
     RDKit          3D

 38 38  0  0  0  0  0  0  0  0999 V2000
   14.0281    7.0397    1.2343 C   0  0  0  0  0  0  0  0  0  0  0  0
   13.6693    8.3364    1.9396 C   0  0  0  0  0  0  0  0  0  0  0  0
   14.6134    8.7687    2.9623 N   0  0  0  0  0  4  0  0  0  0  0  0
   12.1578    8.5899    2.2120 C   0  0  0  0  0  0  0  0  0  0  0  0
   11.2405    7.3772    2.4519 C   0  0  0  0  0  0  0  0  0  0  0  0
    9.7885    7.8243    2.2114 C   0  0  0  0  0  0  0  0  0  0  0  0
    9.4114    8.9838    3.1519 C   0  0  0  0  0  0  0  0  0  0  0  0
    8.0137    9.4644    2.8764 C   0  0  0  0  0  0  0  0  0  0  0  0
    7.6236    9.6755    1.6931 O   0  0  0  0  0  0  0  0  0  0  0  0
    7.1388    9.7055    3.9791 N   0  0  0  0  0  0  0  0  0  0  0  0
    5.7610   10.1385    3.7918 C   0  0  0  0  0  0  0  0  0  0  0  0
    5.0964   10.2807    5.1228 C   0  0  0  0  0  0  0  0  0  0  0  0
    5.2137   11.4974    5.8582 N   0  0  0  0  0  0  0  0  0  0  0  0
    4.4940    9.2972    5.6288 O   0  0  0  0  0  0  0  0  0  0  0  0
   10.4061   10.1586    3.0871 C   0  0  0  0  0  0  0  0  0  0  0  0
   11.8556    9.6808    3.2542 C   0  0  0  0  0  0  0  0  0  0  0  0
   13.3771    6.8823    0.3473 H   0  0  0  0  0  0  0  0  0  0  0  0
   13.9078    6.1867    1.9346 H   0  0  0  0  0  0  0  0  0  0  0  0
   15.0832    7.0603    0.8857 H   0  0  0  0  0  0  0  0  0  0  0  0
   13.8831    9.0582    1.1114 H   0  0  0  0  0  0  0  0  0  0  0  0
   15.5896    8.5022    2.6974 H   0  0  0  0  0  0  0  0  0  0  0  0
   14.3777    8.3021    3.8677 H   0  0  0  0  0  0  0  0  0  0  0  0
   14.5961    9.8060    3.0881 H   0  0  0  0  0  0  0  0  0  0  0  0
   11.8027    9.0089    1.2373 H   0  0  0  0  0  0  0  0  0  0  0  0
   11.3695    6.9868    3.4852 H   0  0  0  0  0  0  0  0  0  0  0  0
   11.4632    6.5568    1.7395 H   0  0  0  0  0  0  0  0  0  0  0  0
    9.6589    8.1233    1.1472 H   0  0  0  0  0  0  0  0  0  0  0  0
    9.1130    6.9617    2.4019 H   0  0  0  0  0  0  0  0  0  0  0  0
    9.4464    8.5784    4.1883 H   0  0  0  0  0  0  0  0  0  0  0  0
    7.5087    9.5678    4.9482 H   0  0  0  0  0  0  0  0  0  0  0  0
    5.7440   11.1125    3.2573 H   0  0  0  0  0  0  0  0  0  0  0  0
    5.2145    9.3890    3.1791 H   0  0  0  0  0  0  0  0  0  0  0  0
    5.7459   12.3067    5.4681 H   0  0  0  0  0  0  0  0  0  0  0  0
    4.7721   11.5883    6.8000 H   0  0  0  0  0  0  0  0  0  0  0  0
   10.1715   10.8883    3.8929 H   0  0  0  0  0  0  0  0  0  0  0  0
   10.3032   10.6869    2.1126 H   0  0  0  0  0  0  0  0  0  0  0  0
   12.5086   10.5642    3.0949 H   0  0  0  0  0  0  0  0  0  0  0  0
   12.0204    9.2949    4.2840 H   0  0  0  0  0  0  0  0  0  0  0  0
  1  2  1  0
  2  3  1  0
  2  4  1  0
  4  5  1  0
  5  6  1  0
  6  7  1  0
  7  8  1  0
  8  9  2  0
  8 10  1  0
 10 11  1  0
 11 12  1  0
 12 13  1  0
 12 14  2  0
  7 15  1  0
 15 16  1  0
 16  4  1  0
  1 17  1  0
  1 18  1  0
  1 19  1  0
  2 20  1  0
  3 21  1  0
  3 22  1  0
  3 23  1  0
  4 24  1  0
  5 25  1  0
  5 26  1  0
  6 27  1  0
  6 28  1  0
  7 29  1  0
 10 30  1  0
 11 31  1  0
 11 32  1  0
 13 33  1  0
 13 34  1  0
 15 35  1  0
 15 36  1  0
 16 37  1  0
 16 38  1  0
M  CHG  1   3   1
M  END
>  <EmbedRMS>  (1) 
0.1933160619529778

$$$$

     RDKit          3D

 38 38  0  0  0  0  0  0  0  0999 V2000
   14.0281    7.0397    1.2343 C   0  0  0  0  0  0  0  0  0  0  0  0
   13.6693    8.3364    1.9396 C   0  0  0  0  0  0  0  0  0  0  0  0
   14.6134    8.7687    2.9623 N   0  0  0  0  0  4  0  0  0  0  0  0
   12.1578    8.5899    2.2120 C   0  0  0  0  0  0  0  0  0  0  0  0
   11.2405    7.3772    2.4519 C   0  0  0  0  0  0  0  0  0  0  0  0
    9.7885    7.8243    2.2114 C   0  0  0  0  0  0  0  0  0  0  0  0
    9.4114    8.9838    3.1519 C   0  0  0  0  0  0  0  0  0  0  0  0
    8.0137    9.4644    2.8764 C   0  0  0  0  0  0  0  0  0  0  0  0
    7.6236    9.6755    1.6931 O   0  0  0  0  0  0  0  0  0  0  0  0
    7.1388    9.7055    3.9791 N   0  0  0  0  0  0  0  0  0  0  0  0
    5.7610   10.1385    3.7918 C   0  0  0  0  0  0  0  0  0  0  0  0
    5.0964   10.2807    5.1228 C   0  0  0  0  0  0  0  0  0  0  0  0
    5.2137   11.4974    5.8582 N   0  0  0  0  0  0  0  0  0  0  0  0
    4.4940    9.2972    5.6288 O   0  0  0  0  0  0  0  0  0  0  0  0
   10.4061   10.1586    3.0871 C   0  0  0  0  0  0  0  0  0  0  0  0
   11.8556    9.6808    3.2542 C   0  0  0  0  0  0  0  0  0  0  0  0
   13.3771    6.8823    0.3473 H   0  0  0  0  0  0  0  0  0  0  0  0
   13.9078    6.1867    1.9346 H   0  0  0  0  0  0  0  0  0  0  0  0
   15.0832    7.0603    0.8857 H   0  0  0  0  0  0  0  0  0  0  0  0
   13.8831    9.0582    1.1114 H   0  0  0  0  0  0  0  0  0  0  0  0
   15.5896    8.5022    2.6974 H   0  0  0  0  0  0  0  0  0  0  0  0
   14.3777    8.3021    3.8677 H   0  0  0  0  0  0  0  0  0  0  0  0
   14.5961    9.8060    3.0881 H   0  0  0  0  0  0  0  0  0  0  0  0
   11.8027    9.0089    1.2373 H   0  0  0  0  0  0  0  0  0  0  0  0
   11.3695    6.9868    3.4852 H   0  0  0  0  0  0  0  0  0  0  0  0
   11.4632    6.5568    1.7395 H   0  0  0  0  0  0  0  0  0  0  0  0
    9.6589    8.1233    1.1472 H   0  0  0  0  0  0  0  0  0  0  0  0
    9.1130    6.9617    2.4019 H   0  0  0  0  0  0  0  0  0  0  0  0
    9.4464    8.5784    4.1883 H   0  0  0  0  0  0  0  0  0  0  0  0
    7.5087    9.5678    4.9482 H   0  0  0  0  0  0  0  0  0  0  0  0
    5.7440   11.1125    3.2573 H   0  0  0  0  0  0  0  0  0  0  0  0
    5.2145    9.3890    3.1791 H   0  0  0  0  0  0  0  0  0  0  0  0
    5.7459   12.3067    5.4681 H   0  0  0  0  0  0  0  0  0  0  0  0
    4.7721   11.5883    6.8000 H   0  0  0  0  0  0  0  0  0  0  0  0
   10.1715   10.8883    3.8929 H   0  0  0  0  0  0  0  0  0  0  0  0
   10.3032   10.6869    2.1126 H   0  0  0  0  0  0  0  0  0  0  0  0
   12.5086   10.5642    3.0949 H   0  0  0  0  0  0  0  0  0  0  0  0
   12.0204    9.2949    4.2840 H   0  0  0  0  0  0  0  0  0  0  0  0
  1  2  1  0
  2  3  1  0
  2  4  1  0
  4  5  1  0
  5  6  1  0
  6  7  1  0
  7  8  1  0
  8  9  2  0
  8 10  1  0
 10 11  1  0
 11 12  1  0
 12 13  1  0
 12 14  2  0
  7 15  1  0
 15 16  1  0
 16  4  1  0
  1 17  1  0
  1 18  1  0
  1 19  1  0
  2 20  1  0
  3 21  1  0
  3 22  1  0
  3 23  1  0
  4 24  1  0
  5 25  1  0
  5 26  1  0
  6 27  1  0
  6 28  1  0
  7 29  1  0
 10 30  1  0
 11 31  1  0
 11 32  1  0
 13 33  1  0
 13 34  1  0
 15 35  1  0
 15 36  1  0
 16 37  1  0
 16 38  1  0
M  CHG  1   3   1
M  END
>  <EmbedRMS>  (2) 
0.1933160619529778

$$$$

     RDKit          3D

 41 41  0  0  0  0  0  0  0  0999 V2000
    5.1584   10.8739    5.0060 C   0  0  0  0  0  0  0  0  0  0  0  0
    5.8518    9.7483    4.2777 C   0  0  0  0  0  0  0  0  0  0  0  0
    4.9792    8.9509    3.3102 C   0  0  0  0  0  0  0  0  0  0  0  0
    4.7948    7.7006    3.9116 O   0  0  0  0  0  0  0  0  0  0  0  0
    7.2345   10.0272    3.9202 N   0  0  0  0  0  0  0  0  0  0  0  0
    8.0007    9.5023    2.8388 C   0  0  0  0  0  0  0  0  0  0  0  0
    7.5958    9.6422    1.6541 O   0  0  0  0  0  0  0  0  0  0  0  0
    9.3923    8.9975    3.1201 C   0  0  0  0  0  0  0  0  0  0  0  0
    9.7656    7.8695    2.1519 C   0  0  0  0  0  0  0  0  0  0  0  0
   11.1748    7.3654    2.4387 C   0  0  0  0  0  0  0  0  0  0  0  0
   12.1959    8.5103    2.2753 C   0  0  0  0  0  0  0  0  0  0  0  0
   13.6464    7.9548    2.4000 C   0  0  0  0  0  0  0  0  0  0  0  0
   14.0460    7.2193    1.1055 C   0  0  0  0  0  0  0  0  0  0  0  0
   14.6256    9.0152    2.6723 N   0  0  0  0  0  4  0  0  0  0  0  0
   11.8526    9.6337    3.2837 C   0  0  0  0  0  0  0  0  0  0  0  0
   10.4188   10.1466    3.0638 C   0  0  0  0  0  0  0  0  0  0  0  0
    4.1986   10.5255    5.4463 H   0  0  0  0  0  0  0  0  0  0  0  0
    4.9451   11.6982    4.2934 H   0  0  0  0  0  0  0  0  0  0  0  0
    5.7972   11.2717    5.8246 H   0  0  0  0  0  0  0  0  0  0  0  0
    6.0021    9.0661    5.1498 H   0  0  0  0  0  0  0  0  0  0  0  0
    3.9931    9.4475    3.1669 H   0  0  0  0  0  0  0  0  0  0  0  0
    5.4427    8.8238    2.3138 H   0  0  0  0  0  0  0  0  0  0  0  0
    4.2135    7.1820    3.2968 H   0  0  0  0  0  0  0  0  0  0  0  0
    7.7999   10.4793    4.6756 H   0  0  0  0  0  0  0  0  0  0  0  0
    9.3990    8.5770    4.1515 H   0  0  0  0  0  0  0  0  0  0  0  0
    9.0498    7.0263    2.2709 H   0  0  0  0  0  0  0  0  0  0  0  0
    9.7092    8.2227    1.0978 H   0  0  0  0  0  0  0  0  0  0  0  0
   11.2245    6.9443    3.4677 H   0  0  0  0  0  0  0  0  0  0  0  0
   11.3796    6.5407    1.7275 H   0  0  0  0  0  0  0  0  0  0  0  0
   12.0835    8.9459    1.2555 H   0  0  0  0  0  0  0  0  0  0  0  0
   13.6882    7.2237    3.2397 H   0  0  0  0  0  0  0  0  0  0  0  0
   13.9780    7.8987    0.2290 H   0  0  0  0  0  0  0  0  0  0  0  0
   13.4131    6.3285    0.9258 H   0  0  0  0  0  0  0  0  0  0  0  0
   15.0926    6.8555    1.1826 H   0  0  0  0  0  0  0  0  0  0  0  0
   15.5972    8.6298    2.6307 H   0  0  0  0  0  0  0  0  0  0  0  0
   14.4931    9.3921    3.6383 H   0  0  0  0  0  0  0  0  0  0  0  0
   14.5391    9.7863    1.9704 H   0  0  0  0  0  0  0  0  0  0  0  0
   12.5333   10.5003    3.1486 H   0  0  0  0  0  0  0  0  0  0  0  0
   11.9628    9.2592    4.3254 H   0  0  0  0  0  0  0  0  0  0  0  0
   10.1822   10.8990    3.8473 H   0  0  0  0  0  0  0  0  0  0  0  0
   10.3605   10.6541    2.0751 H   0  0  0  0  0  0  0  0  0  0  0  0
  1  2  1  0
  2  3  1  0
  3  4  1  0
  2  5  1  0
  5  6  1  0
  6  7  2  0
  6  8  1  0
  8  9  1  0
  9 10  1  0
 10 11  1  0
 11 12  1  0
 12 13  1  0
 12 14  1  0
 11 15  1  0
 15 16  1  0
 16  8  1  0
  1 17  1  0
  1 18  1  0
  1 19  1  0
  2 20  1  0
  3 21  1  0
  3 22  1  0
  4 23  1  0
  5 24  1  0
  8 25  1  0
  9 26  1  0
  9 27  1  0
 10 28  1  0
 10 29  1  0
 11 30  1  0
 12 31  1  0
 13 32  1  0
 13 33  1  0
 13 34  1  0
 14 35  1  0
 14 36  1  0
 14 37  1  0
 15 38  1  0
 15 39  1  0
 16 40  1  0
 16 41  1  0
M  CHG  1  14   1
M  END
>  <EmbedRMS>  (3) 
0.20925142480886919

$$$$

     RDKit          3D

 38 38  0  0  0  0  0  0  0  0999 V2000
   14.0281    7.0397    1.2343 C   0  0  0  0  0  0  0  0  0  0  0  0
   13.6693    8.3364    1.9396 C   0  0  0  0  0  0  0  0  0  0  0  0
   14.6134    8.7687    2.9623 N   0  0  0  0  0  4  0  0  0  0  0  0
   12.1578    8.5899    2.2120 C   0  0  0  0  0  0  0  0  0  0  0  0
   11.2405    7.3772    2.4519 C   0  0  0  0  0  0  0  0  0  0  0  0
    9.7885    7.8243    2.2114 C   0  0  0  0  0  0  0  0  0  0  0  0
    9.4114    8.9838    3.1519 C   0  0  0  0  0  0  0  0  0  0  0  0
    8.0137    9.4644    2.8764 C   0  0  0  0  0  0  0  0  0  0  0  0
    7.6236    9.6755    1.6931 O   0  0  0  0  0  0  0  0  0  0  0  0
    7.1388    9.7055    3.9791 N   0  0  0  0  0  0  0  0  0  0  0  0
    5.7610   10.1385    3.7918 C   0  0  0  0  0  0  0  0  0  0  0  0
    5.0964   10.2807    5.1228 C   0  0  0  0  0  0  0  0  0  0  0  0
    5.2137   11.4974    5.8582 N   0  0  0  0  0  0  0  0  0  0  0  0
    4.4940    9.2972    5.6288 O   0  0  0  0  0  0  0  0  0  0  0  0
   10.4061   10.1586    3.0871 C   0  0  0  0  0  0  0  0  0  0  0  0
   11.8556    9.6808    3.2542 C   0  0  0  0  0  0  0  0  0  0  0  0
   13.3771    6.8823    0.3473 H   0  0  0  0  0  0  0  0  0  0  0  0
   13.9078    6.1867    1.9346 H   0  0  0  0  0  0  0  0  0  0  0  0
   15.0832    7.0603    0.8857 H   0  0  0  0  0  0  0  0  0  0  0  0
   13.8831    9.0582    1.1114 H   0  0  0  0  0  0  0  0  0  0  0  0
   15.5896    8.5022    2.6974 H   0  0  0  0  0  0  0  0  0  0  0  0
   14.3777    8.3021    3.8677 H   0  0  0  0  0  0  0  0  0  0  0  0
   14.5961    9.8060    3.0881 H   0  0  0  0  0  0  0  0  0  0  0  0
   11.8027    9.0089    1.2373 H   0  0  0  0  0  0  0  0  0  0  0  0
   11.3695    6.9868    3.4852 H   0  0  0  0  0  0  0  0  0  0  0  0
   11.4632    6.5568    1.7395 H   0  0  0  0  0  0  0  0  0  0  0  0
    9.6589    8.1233    1.1472 H   0  0  0  0  0  0  0  0  0  0  0  0
    9.1130    6.9617    2.4019 H   0  0  0  0  0  0  0  0  0  0  0  0
    9.4464    8.5784    4.1883 H   0  0  0  0  0  0  0  0  0  0  0  0
    7.5087    9.5678    4.9482 H   0  0  0  0  0  0  0  0  0  0  0  0
    5.7440   11.1125    3.2573 H   0  0  0  0  0  0  0  0  0  0  0  0
    5.2145    9.3890    3.1791 H   0  0  0  0  0  0  0  0  0  0  0  0
    5.7459   12.3067    5.4681 H   0  0  0  0  0  0  0  0  0  0  0  0
    4.7721   11.5883    6.8000 H   0  0  0  0  0  0  0  0  0  0  0  0
   10.1715   10.8883    3.8929 H   0  0  0  0  0  0  0  0  0  0  0  0
   10.3032   10.6869    2.1126 H   0  0  0  0  0  0  0  0  0  0  0  0
   12.5086   10.5642    3.0949 H   0  0  0  0  0  0  0  0  0  0  0  0
   12.0204    9.2949    4.2840 H   0  0  0  0  0  0  0  0  0  0  0  0
  1  2  1  0
  2  3  1  0
  2  4  1  0
  4  5  1  0
  5  6  1  0
  6  7  1  0
  7  8  1  0
  8  9  2  0
  8 10  1  0
 10 11  1  0
 11 12  1  0
 12 13  1  0
 12 14  2  0
  7 15  1  0
 15 16  1  0
 16  4  1  0
  1 17  1  0
  1 18  1  0
  1 19  1  0
  2 20  1  0
  3 21  1  0
  3 22  1  0
  3 23  1  0
  4 24  1  0
  5 25  1  0
  5 26  1  0
  6 27  1  0
  6 28  1  0
  7 29  1  0
 10 30  1  0
 11 31  1  0
 11 32  1  0
 13 33  1  0
 13 34  1  0
 15 35  1  0
 15 36  1  0
 16 37  1  0
 16 38  1  0
M  CHG  1   3   1
M  END
>  <EmbedRMS>  (4) 
0.1933160619529778

$$$$

     RDKit          3D

 35 35  0  0  0  0  0  0  0  0999 V2000
   14.0105    7.0510    1.2527 C   0  0  0  0  0  0  0  0  0  0  0  0
   13.5999    8.3245    1.9901 C   0  0  0  0  0  0  0  0  0  0  0  0
   14.7024    8.8920    2.7692 N   0  0  0  0  0  4  0  0  0  0  0  0
   12.2613    8.3268    2.7688 C   0  0  0  0  0  0  0  0  0  0  0  0
   11.1788    7.4392    2.1371 C   0  0  0  0  0  0  0  0  0  0  0  0
    9.7439    7.7246    2.5496 C   0  0  0  0  0  0  0  0  0  0  0  0
    9.4498    9.2000    2.6478 C   0  0  0  0  0  0  0  0  0  0  0  0
    7.9869    9.5311    2.7175 C   0  0  0  0  0  0  0  0  0  0  0  0
    7.4522    9.7012    1.5983 O   0  0  0  0  0  0  0  0  0  0  0  0
    7.1968    9.6646    3.9188 N   0  0  0  0  0  0  0  0  0  0  0  0
    5.8181   10.1174    3.9117 C   0  0  0  0  0  0  0  0  0  0  0  0
    5.1140   10.4008    2.6965 N   0  0  0  0  0  0  0  0  0  0  0  0
    5.2091   10.2790    5.0025 O   0  0  0  0  0  0  0  0  0  0  0  0
   10.3857   10.0191    3.4908 C   0  0  0  0  0  0  0  0  0  0  0  0
   11.8494    9.7801    3.1254 C   0  0  0  0  0  0  0  0  0  0  0  0
   13.2655    6.7644    0.4823 H   0  0  0  0  0  0  0  0  0  0  0  0
   14.9812    7.1940    0.7318 H   0  0  0  0  0  0  0  0  0  0  0  0
   14.1178    6.2182    1.9791 H   0  0  0  0  0  0  0  0  0  0  0  0
   13.4347    9.0289    1.1417 H   0  0  0  0  0  0  0  0  0  0  0  0
   14.8383    8.3421    3.6482 H   0  0  0  0  0  0  0  0  0  0  0  0
   15.5915    8.8671    2.2188 H   0  0  0  0  0  0  0  0  0  0  0  0
   14.5204    9.8926    3.0069 H   0  0  0  0  0  0  0  0  0  0  0  0
   12.4698    7.8393    3.7479 H   0  0  0  0  0  0  0  0  0  0  0  0
   11.2109    7.5921    1.0361 H   0  0  0  0  0  0  0  0  0  0  0  0
   11.4061    6.3664    2.3247 H   0  0  0  0  0  0  0  0  0  0  0  0
    9.0526    7.2371    1.8259 H   0  0  0  0  0  0  0  0  0  0  0  0
    9.5619    7.2662    3.5461 H   0  0  0  0  0  0  0  0  0  0  0  0
    9.7336    9.5571    1.6259 H   0  0  0  0  0  0  0  0  0  0  0  0
    7.6541    9.4690    4.8372 H   0  0  0  0  0  0  0  0  0  0  0  0
    4.2892   11.0403    2.7286 H   0  0  0  0  0  0  0  0  0  0  0  0
    5.1621    9.7571    1.8783 H   0  0  0  0  0  0  0  0  0  0  0  0
   10.1475   11.1020    3.3945 H   0  0  0  0  0  0  0  0  0  0  0  0
   10.2338    9.7349    4.5549 H   0  0  0  0  0  0  0  0  0  0  0  0
   12.0635   10.4407    2.2563 H   0  0  0  0  0  0  0  0  0  0  0  0
   12.4723   10.1509    3.9684 H   0  0  0  0  0  0  0  0  0  0  0  0
  1  2  1  0
  2  3  1  0
  2  4  1  0
  4  5  1  0
  5  6  1  0
  6  7  1  0
  7  8  1  0
  8  9  2  0
  8 10  1  0
 10 11  1  0
 11 12  1  0
 11 13  2  0
  7 14  1  0
 14 15  1  0
 15  4  1  0
  1 16  1  0
  1 17  1  0
  1 18  1  0
  2 19  1  0
  3 20  1  0
  3 21  1  0
  3 22  1  0
  4 23  1  0
  5 24  1  0
  5 25  1  0
  6 26  1  0
  6 27  1  0
  7 28  1  0
 10 29  1  0
 12 30  1  0
 12 31  1  0
 14 32  1  0
 14 33  1  0
 15 34  1  0
 15 35  1  0
M  CHG  1   3   1
M  END
>  <EmbedRMS>  (5) 
0.3207721569004263

$$$$

     RDKit          3D

 38 38  0  0  0  0  0  0  0  0999 V2000
   14.0281    7.0397    1.2343 C   0  0  0  0  0  0  0  0  0  0  0  0
   13.6693    8.3364    1.9396 C   0  0  0  0  0  0  0  0  0  0  0  0
   14.6134    8.7687    2.9623 N   0  0  0  0  0  4  0  0  0  0  0  0
   12.1578    8.5899    2.2120 C   0  0  0  0  0  0  0  0  0  0  0  0
   11.2405    7.3772    2.4519 C   0  0  0  0  0  0  0  0  0  0  0  0
    9.7885    7.8243    2.2114 C   0  0  0  0  0  0  0  0  0  0  0  0
    9.4114    8.9838    3.1519 C   0  0  0  0  0  0  0  0  0  0  0  0
    8.0137    9.4644    2.8764 C   0  0  0  0  0  0  0  0  0  0  0  0
    7.6236    9.6755    1.6931 O   0  0  0  0  0  0  0  0  0  0  0  0
    7.1388    9.7055    3.9791 N   0  0  0  0  0  0  0  0  0  0  0  0
    5.7610   10.1385    3.7918 C   0  0  0  0  0  0  0  0  0  0  0  0
    5.0964   10.2807    5.1228 C   0  0  0  0  0  0  0  0  0  0  0  0
    5.2137   11.4974    5.8582 N   0  0  0  0  0  0  0  0  0  0  0  0
    4.4940    9.2972    5.6288 O   0  0  0  0  0  0  0  0  0  0  0  0
   10.4061   10.1586    3.0871 C   0  0  0  0  0  0  0  0  0  0  0  0
   11.8556    9.6808    3.2542 C   0  0  0  0  0  0  0  0  0  0  0  0
   13.3771    6.8823    0.3473 H   0  0  0  0  0  0  0  0  0  0  0  0
   13.9078    6.1867    1.9346 H   0  0  0  0  0  0  0  0  0  0  0  0
   15.0832    7.0603    0.8857 H   0  0  0  0  0  0  0  0  0  0  0  0
   13.8831    9.0582    1.1114 H   0  0  0  0  0  0  0  0  0  0  0  0
   15.5896    8.5022    2.6974 H   0  0  0  0  0  0  0  0  0  0  0  0
   14.3777    8.3021    3.8677 H   0  0  0  0  0  0  0  0  0  0  0  0
   14.5961    9.8060    3.0881 H   0  0  0  0  0  0  0  0  0  0  0  0
   11.8027    9.0089    1.2373 H   0  0  0  0  0  0  0  0  0  0  0  0
   11.3695    6.9868    3.4852 H   0  0  0  0  0  0  0  0  0  0  0  0
   11.4632    6.5568    1.7395 H   0  0  0  0  0  0  0  0  0  0  0  0
    9.6589    8.1233    1.1472 H   0  0  0  0  0  0  0  0  0  0  0  0
    9.1130    6.9617    2.4019 H   0  0  0  0  0  0  0  0  0  0  0  0
    9.4464    8.5784    4.1883 H   0  0  0  0  0  0  0  0  0  0  0  0
    7.5087    9.5678    4.9482 H   0  0  0  0  0  0  0  0  0  0  0  0
    5.7440   11.1125    3.2573 H   0  0  0  0  0  0  0  0  0  0  0  0
    5.2145    9.3890    3.1791 H   0  0  0  0  0  0  0  0  0  0  0  0
    5.7459   12.3067    5.4681 H   0  0  0  0  0  0  0  0  0  0  0  0
    4.7721   11.5883    6.8000 H   0  0  0  0  0  0  0  0  0  0  0  0
   10.1715   10.8883    3.8929 H   0  0  0  0  0  0  0  0  0  0  0  0
   10.3032   10.6869    2.1126 H   0  0  0  0  0  0  0  0  0  0  0  0
   12.5086   10.5642    3.0949 H   0  0  0  0  0  0  0  0  0  0  0  0
   12.0204    9.2949    4.2840 H   0  0  0  0  0  0  0  0  0  0  0  0
  1  2  1  0
  2  3  1  0
  2  4  1  0
  4  5  1  0
  5  6  1  0
  6  7  1  0
  7  8  1  0
  8  9  2  0
  8 10  1  0
 10 11  1  0
 11 12  1  0
 12 13  1  0
 12 14  2  0
  7 15  1  0
 15 16  1  0
 16  4  1  0
  1 17  1  0
  1 18  1  0
  1 19  1  0
  2 20  1  0
  3 21  1  0
  3 22  1  0
  3 23  1  0
  4 24  1  0
  5 25  1  0
  5 26  1  0
  6 27  1  0
  6 28  1  0
  7 29  1  0
 10 30  1  0
 11 31  1  0
 11 32  1  0
 13 33  1  0
 13 34  1  0
 15 35  1  0
 15 36  1  0
 16 37  1  0
 16 38  1  0
M  CHG  1   3   1
M  END
>  <EmbedRMS>  (6) 
0.1933160619529778

$$$$

     RDKit          3D

 38 38  0  0  0  0  0  0  0  0999 V2000
   14.0281    7.0397    1.2343 C   0  0  0  0  0  0  0  0  0  0  0  0
   13.6693    8.3364    1.9396 C   0  0  0  0  0  0  0  0  0  0  0  0
   14.6134    8.7687    2.9623 N   0  0  0  0  0  4  0  0  0  0  0  0
   12.1578    8.5899    2.2120 C   0  0  0  0  0  0  0  0  0  0  0  0
   11.2405    7.3772    2.4519 C   0  0  0  0  0  0  0  0  0  0  0  0
    9.7885    7.8243    2.2114 C   0  0  0  0  0  0  0  0  0  0  0  0
    9.4114    8.9838    3.1519 C   0  0  0  0  0  0  0  0  0  0  0  0
    8.0137    9.4644    2.8764 C   0  0  0  0  0  0  0  0  0  0  0  0
    7.6236    9.6755    1.6931 O   0  0  0  0  0  0  0  0  0  0  0  0
    7.1388    9.7055    3.9791 N   0  0  0  0  0  0  0  0  0  0  0  0
    5.7610   10.1385    3.7918 C   0  0  0  0  0  0  0  0  0  0  0  0
    5.0964   10.2807    5.1228 C   0  0  0  0  0  0  0  0  0  0  0  0
    5.2137   11.4974    5.8582 N   0  0  0  0  0  0  0  0  0  0  0  0
    4.4940    9.2972    5.6288 O   0  0  0  0  0  0  0  0  0  0  0  0
   10.4061   10.1586    3.0871 C   0  0  0  0  0  0  0  0  0  0  0  0
   11.8556    9.6808    3.2542 C   0  0  0  0  0  0  0  0  0  0  0  0
   13.3771    6.8823    0.3473 H   0  0  0  0  0  0  0  0  0  0  0  0
   13.9078    6.1867    1.9346 H   0  0  0  0  0  0  0  0  0  0  0  0
   15.0832    7.0603    0.8857 H   0  0  0  0  0  0  0  0  0  0  0  0
   13.8831    9.0582    1.1114 H   0  0  0  0  0  0  0  0  0  0  0  0
   15.5896    8.5022    2.6974 H   0  0  0  0  0  0  0  0  0  0  0  0
   14.3777    8.3021    3.8677 H   0  0  0  0  0  0  0  0  0  0  0  0
   14.5961    9.8060    3.0881 H   0  0  0  0  0  0  0  0  0  0  0  0
   11.8027    9.0089    1.2373 H   0  0  0  0  0  0  0  0  0  0  0  0
   11.3695    6.9868    3.4852 H   0  0  0  0  0  0  0  0  0  0  0  0
   11.4632    6.5568    1.7395 H   0  0  0  0  0  0  0  0  0  0  0  0
    9.6589    8.1233    1.1472 H   0  0  0  0  0  0  0  0  0  0  0  0
    9.1130    6.9617    2.4019 H   0  0  0  0  0  0  0  0  0  0  0  0
    9.4464    8.5784    4.1883 H   0  0  0  0  0  0  0  0  0  0  0  0
    7.5087    9.5678    4.9482 H   0  0  0  0  0  0  0  0  0  0  0  0
    5.7440   11.1125    3.2573 H   0  0  0  0  0  0  0  0  0  0  0  0
    5.2145    9.3890    3.1791 H   0  0  0  0  0  0  0  0  0  0  0  0
    5.7459   12.3067    5.4681 H   0  0  0  0  0  0  0  0  0  0  0  0
    4.7721   11.5883    6.8000 H   0  0  0  0  0  0  0  0  0  0  0  0
   10.1715   10.8883    3.8929 H   0  0  0  0  0  0  0  0  0  0  0  0
   10.3032   10.6869    2.1126 H   0  0  0  0  0  0  0  0  0  0  0  0
   12.5086   10.5642    3.0949 H   0  0  0  0  0  0  0  0  0  0  0  0
   12.0204    9.2949    4.2840 H   0  0  0  0  0  0  0  0  0  0  0  0
  1  2  1  0
  2  3  1  0
  2  4  1  0
  4  5  1  0
  5  6  1  0
  6  7  1  0
  7  8  1  0
  8  9  2  0
  8 10  1  0
 10 11  1  0
 11 12  1  0
 12 13  1  0
 12 14  2  0
  7 15  1  0
 15 16  1  0
 16  4  1  0
  1 17  1  0
  1 18  1  0
  1 19  1  0
  2 20  1  0
  3 21  1  0
  3 22  1  0
  3 23  1  0
  4 24  1  0
  5 25  1  0
  5 26  1  0
  6 27  1  0
  6 28  1  0
  7 29  1  0
 10 30  1  0
 11 31  1  0
 11 32  1  0
 13 33  1  0
 13 34  1  0
 15 35  1  0
 15 36  1  0
 16 37  1  0
 16 38  1  0
M  CHG  1   3   1
M  END
>  <EmbedRMS>  (7) 
0.1933160619529778

$$$$

     RDKit          3D

 38 38  0  0  0  0  0  0  0  0999 V2000
    3.6385   10.7482    5.0771 C   0  0  0  0  0  0  0  0  0  0  0  0
    5.0244   10.3031    5.0964 N   0  0  0  0  0  0  0  0  0  0  0  0
    5.7847   10.1354    3.8949 C   0  0  0  0  0  0  0  0  0  0  0  0
    5.2566   10.3718    2.7738 O   0  0  0  0  0  0  0  0  0  0  0  0
    7.1467    9.6993    3.9864 N   0  0  0  0  0  0  0  0  0  0  0  0
    8.0075    9.4704    2.8626 C   0  0  0  0  0  0  0  0  0  0  0  0
    7.6045    9.6875    1.6857 O   0  0  0  0  0  0  0  0  0  0  0  0
    9.4145    8.9894    3.1029 C   0  0  0  0  0  0  0  0  0  0  0  0
    9.7990    7.9230    2.0801 C   0  0  0  0  0  0  0  0  0  0  0  0
   11.1578    7.3126    2.3942 C   0  0  0  0  0  0  0  0  0  0  0  0
   12.2751    8.3216    2.7728 C   0  0  0  0  0  0  0  0  0  0  0  0
   13.5806    8.3572    1.9536 C   0  0  0  0  0  0  0  0  0  0  0  0
   13.9839    7.0986    1.1855 C   0  0  0  0  0  0  0  0  0  0  0  0
   14.7109    8.8838    2.7307 N   0  0  0  0  0  4  0  0  0  0  0  0
   11.8312    9.7192    3.3037 C   0  0  0  0  0  0  0  0  0  0  0  0
   10.3967   10.1517    3.0052 C   0  0  0  0  0  0  0  0  0  0  0  0
    3.0198   10.0280    4.5014 H   0  0  0  0  0  0  0  0  0  0  0  0
    3.2469   10.8090    6.1144 H   0  0  0  0  0  0  0  0  0  0  0  0
    3.5722   11.7528    4.6088 H   0  0  0  0  0  0  0  0  0  0  0  0
    5.4730   10.1023    6.0184 H   0  0  0  0  0  0  0  0  0  0  0  0
    7.5351    9.5364    4.9425 H   0  0  0  0  0  0  0  0  0  0  0  0
    9.4759    8.5443    4.1218 H   0  0  0  0  0  0  0  0  0  0  0  0
    9.8306    8.3627    1.0577 H   0  0  0  0  0  0  0  0  0  0  0  0
    9.0353    7.1133    2.0742 H   0  0  0  0  0  0  0  0  0  0  0  0
   11.0019    6.5978    3.2359 H   0  0  0  0  0  0  0  0  0  0  0  0
   11.4421    6.6822    1.5317 H   0  0  0  0  0  0  0  0  0  0  0  0
   12.6569    7.8395    3.7038 H   0  0  0  0  0  0  0  0  0  0  0  0
   13.3809    9.1011    1.1484 H   0  0  0  0  0  0  0  0  0  0  0  0
   15.0005    7.2117    0.7523 H   0  0  0  0  0  0  0  0  0  0  0  0
   13.9866    6.2216    1.8667 H   0  0  0  0  0  0  0  0  0  0  0  0
   13.2931    6.9112    0.3369 H   0  0  0  0  0  0  0  0  0  0  0  0
   15.5288    9.0531    2.1007 H   0  0  0  0  0  0  0  0  0  0  0  0
   14.9938    8.1898    3.4605 H   0  0  0  0  0  0  0  0  0  0  0  0
   14.4918    9.7900    3.1976 H   0  0  0  0  0  0  0  0  0  0  0  0
   12.4767   10.5260    2.8984 H   0  0  0  0  0  0  0  0  0  0  0  0
   11.9638    9.7493    4.4096 H   0  0  0  0  0  0  0  0  0  0  0  0
   10.3561   10.5884    1.9816 H   0  0  0  0  0  0  0  0  0  0  0  0
   10.1036   10.9532    3.7195 H   0  0  0  0  0  0  0  0  0  0  0  0
  1  2  1  0
  2  3  1  0
  3  4  2  0
  3  5  1  0
  5  6  1  0
  6  7  2  0
  6  8  1  0
  8  9  1  0
  9 10  1  0
 10 11  1  0
 11 12  1  0
 12 13  1  0
 12 14  1  0
 11 15  1  0
 15 16  1  0
 16  8  1  0
  1 17  1  0
  1 18  1  0
  1 19  1  0
  2 20  1  0
  5 21  1  0
  8 22  1  0
  9 23  1  0
  9 24  1  0
 10 25  1  0
 10 26  1  0
 11 27  1  0
 12 28  1  0
 13 29  1  0
 13 30  1  0
 13 31  1  0
 14 32  1  0
 14 33  1  0
 14 34  1  0
 15 35  1  0
 15 36  1  0
 16 37  1  0
 16 38  1  0
M  CHG  1  14   1
M  END
>  <EmbedRMS>  (8) 
0.21425678987932514

$$$$

     RDKit          3D

 38 38  0  0  0  0  0  0  0  0999 V2000
   14.0281    7.0397    1.2343 C   0  0  0  0  0  0  0  0  0  0  0  0
   13.6693    8.3364    1.9396 C   0  0  0  0  0  0  0  0  0  0  0  0
   14.6134    8.7687    2.9623 N   0  0  0  0  0  4  0  0  0  0  0  0
   12.1578    8.5899    2.2120 C   0  0  0  0  0  0  0  0  0  0  0  0
   11.2405    7.3772    2.4519 C   0  0  0  0  0  0  0  0  0  0  0  0
    9.7885    7.8243    2.2114 C   0  0  0  0  0  0  0  0  0  0  0  0
    9.4114    8.9838    3.1519 C   0  0  0  0  0  0  0  0  0  0  0  0
    8.0137    9.4644    2.8764 C   0  0  0  0  0  0  0  0  0  0  0  0
    7.6236    9.6755    1.6931 O   0  0  0  0  0  0  0  0  0  0  0  0
    7.1388    9.7055    3.9791 N   0  0  0  0  0  0  0  0  0  0  0  0
    5.7610   10.1385    3.7918 C   0  0  0  0  0  0  0  0  0  0  0  0
    5.0964   10.2807    5.1228 C   0  0  0  0  0  0  0  0  0  0  0  0
    5.2137   11.4974    5.8582 N   0  0  0  0  0  0  0  0  0  0  0  0
    4.4940    9.2972    5.6288 O   0  0  0  0  0  0  0  0  0  0  0  0
   10.4061   10.1586    3.0871 C   0  0  0  0  0  0  0  0  0  0  0  0
   11.8556    9.6808    3.2542 C   0  0  0  0  0  0  0  0  0  0  0  0
   13.3771    6.8823    0.3473 H   0  0  0  0  0  0  0  0  0  0  0  0
   13.9078    6.1867    1.9346 H   0  0  0  0  0  0  0  0  0  0  0  0
   15.0832    7.0603    0.8857 H   0  0  0  0  0  0  0  0  0  0  0  0
   13.8831    9.0582    1.1114 H   0  0  0  0  0  0  0  0  0  0  0  0
   15.5896    8.5022    2.6974 H   0  0  0  0  0  0  0  0  0  0  0  0
   14.3777    8.3021    3.8677 H   0  0  0  0  0  0  0  0  0  0  0  0
   14.5961    9.8060    3.0881 H   0  0  0  0  0  0  0  0  0  0  0  0
   11.8027    9.0089    1.2373 H   0  0  0  0  0  0  0  0  0  0  0  0
   11.3695    6.9868    3.4852 H   0  0  0  0  0  0  0  0  0  0  0  0
   11.4632    6.5568    1.7395 H   0  0  0  0  0  0  0  0  0  0  0  0
    9.6589    8.1233    1.1472 H   0  0  0  0  0  0  0  0  0  0  0  0
    9.1130    6.9617    2.4019 H   0  0  0  0  0  0  0  0  0  0  0  0
    9.4464    8.5784    4.1883 H   0  0  0  0  0  0  0  0  0  0  0  0
    7.5087    9.5678    4.9482 H   0  0  0  0  0  0  0  0  0  0  0  0
    5.7440   11.1125    3.2573 H   0  0  0  0  0  0  0  0  0  0  0  0
    5.2145    9.3890    3.1791 H   0  0  0  0  0  0  0  0  0  0  0  0
    5.7459   12.3067    5.4681 H   0  0  0  0  0  0  0  0  0  0  0  0
    4.7721   11.5883    6.8000 H   0  0  0  0  0  0  0  0  0  0  0  0
   10.1715   10.8883    3.8929 H   0  0  0  0  0  0  0  0  0  0  0  0
   10.3032   10.6869    2.1126 H   0  0  0  0  0  0  0  0  0  0  0  0
   12.5086   10.5642    3.0949 H   0  0  0  0  0  0  0  0  0  0  0  0
   12.0204    9.2949    4.2840 H   0  0  0  0  0  0  0  0  0  0  0  0
  1  2  1  0
  2  3  1  0
  2  4  1  0
  4  5  1  0
  5  6  1  0
  6  7  1  0
  7  8  1  0
  8  9  2  0
  8 10  1  0
 10 11  1  0
 11 12  1  0
 12 13  1  0
 12 14  2  0
  7 15  1  0
 15 16  1  0
 16  4  1  0
  1 17  1  0
  1 18  1  0
  1 19  1  0
  2 20  1  0
  3 21  1  0
  3 22  1  0
  3 23  1  0
  4 24  1  0
  5 25  1  0
  5 26  1  0
  6 27  1  0
  6 28  1  0
  7 29  1  0
 10 30  1  0
 11 31  1  0
 11 32  1  0
 13 33  1  0
 13 34  1  0
 15 35  1  0
 15 36  1  0
 16 37  1  0
 16 38  1  0
M  CHG  1   3   1
M  END
>  <EmbedRMS>  (9) 
0.1933160619529778

$$$$

     RDKit          3D

 38 38  0  0  0  0  0  0  0  0999 V2000
   14.0485    7.2193    1.1052 C   0  0  0  0  0  0  0  0  0  0  0  0
   13.6494    7.9557    2.3993 C   0  0  0  0  0  0  0  0  0  0  0  0
   14.6287    9.0157    2.6714 N   0  0  0  0  0  4  0  0  0  0  0  0
   12.1999    8.5121    2.2739 C   0  0  0  0  0  0  0  0  0  0  0  0
   11.1802    7.3659    2.4359 C   0  0  0  0  0  0  0  0  0  0  0  0
    9.7714    7.8716    2.1578 C   0  0  0  0  0  0  0  0  0  0  0  0
    9.4086    8.9939    3.1360 C   0  0  0  0  0  0  0  0  0  0  0  0
    8.0119    9.4795    2.8745 C   0  0  0  0  0  0  0  0  0  0  0  0
    7.6187    9.6893    1.6921 O   0  0  0  0  0  0  0  0  0  0  0  0
    7.1292    9.6965    3.9807 N   0  0  0  0  0  0  0  0  0  0  0  0
    5.7624   10.1694    3.8094 C   0  0  0  0  0  0  0  0  0  0  0  0
    5.7587   11.6573    3.4724 C   0  0  0  0  0  0  0  0  0  0  0  0
    4.4421   12.1064    3.3200 O   0  0  0  0  0  0  0  0  0  0  0  0
   10.4229   10.1485    3.0671 C   0  0  0  0  0  0  0  0  0  0  0  0
   11.8582    9.6379    3.2816 C   0  0  0  0  0  0  0  0  0  0  0  0
   15.0958    6.8574    1.1814 H   0  0  0  0  0  0  0  0  0  0  0  0
   13.9784    7.8974    0.2278 H   0  0  0  0  0  0  0  0  0  0  0  0
   13.4173    6.3269    0.9275 H   0  0  0  0  0  0  0  0  0  0  0  0
   13.6910    7.2251    3.2394 H   0  0  0  0  0  0  0  0  0  0  0  0
   14.4960    9.3935    3.6370 H   0  0  0  0  0  0  0  0  0  0  0  0
   15.6002    8.6298    2.6308 H   0  0  0  0  0  0  0  0  0  0  0  0
   14.5433    9.7863    1.9687 H   0  0  0  0  0  0  0  0  0  0  0  0
   12.0876    8.9473    1.2540 H   0  0  0  0  0  0  0  0  0  0  0  0
   11.2347    6.9393    3.4625 H   0  0  0  0  0  0  0  0  0  0  0  0
   11.3816    6.5452    1.7192 H   0  0  0  0  0  0  0  0  0  0  0  0
    9.0563    7.0278    2.2771 H   0  0  0  0  0  0  0  0  0  0  0  0
    9.7089    8.2307    1.1059 H   0  0  0  0  0  0  0  0  0  0  0  0
    9.4455    8.5679    4.1642 H   0  0  0  0  0  0  0  0  0  0  0  0
    7.4525    9.4673    4.9477 H   0  0  0  0  0  0  0  0  0  0  0  0
    5.2572    9.5890    3.0069 H   0  0  0  0  0  0  0  0  0  0  0  0
    5.2000   10.0100    4.7552 H   0  0  0  0  0  0  0  0  0  0  0  0
    6.2767   12.2336    4.2730 H   0  0  0  0  0  0  0  0  0  0  0  0
    6.3008   11.8316    2.5198 H   0  0  0  0  0  0  0  0  0  0  0  0
    4.0707   12.2170    4.2342 H   0  0  0  0  0  0  0  0  0  0  0  0
   10.3565   10.6518    2.0766 H   0  0  0  0  0  0  0  0  0  0  0  0
   10.1846   10.9008    3.8506 H   0  0  0  0  0  0  0  0  0  0  0  0
   12.5372   10.5052    3.1416 H   0  0  0  0  0  0  0  0  0  0  0  0
   11.9739    9.2660    4.3236 H   0  0  0  0  0  0  0  0  0  0  0  0
  1  2  1  0
  2  3  1  0
  2  4  1  0
  4  5  1  0
  5  6  1  0
  6  7  1  0
  7  8  1  0
  8  9  2  0
  8 10  1  0
 10 11  1  0
 11 12  1  0
 12 13  1  0
  7 14  1  0
 14 15  1  0
 15  4  1  0
  1 16  1  0
  1 17  1  0
  1 18  1  0
  2 19  1  0
  3 20  1  0
  3 21  1  0
  3 22  1  0
  4 23  1  0
  5 24  1  0
  5 25  1  0
  6 26  1  0
  6 27  1  0
  7 28  1  0
 10 29  1  0
 11 30  1  0
 11 31  1  0
 12 32  1  0
 12 33  1  0
 13 34  1  0
 14 35  1  0
 14 36  1  0
 15 37  1  0
 15 38  1  0
M  CHG  1   3   1
M  END
>  <EmbedRMS>  (10) 
0.031392693704421666

$$$$

     RDKit          3D

 38 38  0  0  0  0  0  0  0  0999 V2000
   14.0281    7.0397    1.2343 C   0  0  0  0  0  0  0  0  0  0  0  0
   13.6693    8.3364    1.9396 C   0  0  0  0  0  0  0  0  0  0  0  0
   14.6134    8.7687    2.9623 N   0  0  0  0  0  4  0  0  0  0  0  0
   12.1578    8.5899    2.2120 C   0  0  0  0  0  0  0  0  0  0  0  0
   11.2405    7.3772    2.4519 C   0  0  0  0  0  0  0  0  0  0  0  0
    9.7885    7.8243    2.2114 C   0  0  0  0  0  0  0  0  0  0  0  0
    9.4114    8.9838    3.1519 C   0  0  0  0  0  0  0  0  0  0  0  0
    8.0137    9.4644    2.8764 C   0  0  0  0  0  0  0  0  0  0  0  0
    7.6236    9.6755    1.6931 O   0  0  0  0  0  0  0  0  0  0  0  0
    7.1388    9.7055    3.9791 N   0  0  0  0  0  0  0  0  0  0  0  0
    5.7610   10.1385    3.7918 C   0  0  0  0  0  0  0  0  0  0  0  0
    5.0964   10.2807    5.1228 C   0  0  0  0  0  0  0  0  0  0  0  0
    5.2137   11.4974    5.8582 N   0  0  0  0  0  0  0  0  0  0  0  0
    4.4940    9.2972    5.6288 O   0  0  0  0  0  0  0  0  0  0  0  0
   10.4061   10.1586    3.0871 C   0  0  0  0  0  0  0  0  0  0  0  0
   11.8556    9.6808    3.2542 C   0  0  0  0  0  0  0  0  0  0  0  0
   13.3771    6.8823    0.3473 H   0  0  0  0  0  0  0  0  0  0  0  0
   13.9078    6.1867    1.9346 H   0  0  0  0  0  0  0  0  0  0  0  0
   15.0832    7.0603    0.8857 H   0  0  0  0  0  0  0  0  0  0  0  0
   13.8831    9.0582    1.1114 H   0  0  0  0  0  0  0  0  0  0  0  0
   15.5896    8.5022    2.6974 H   0  0  0  0  0  0  0  0  0  0  0  0
   14.3777    8.3021    3.8677 H   0  0  0  0  0  0  0  0  0  0  0  0
   14.5961    9.8060    3.0881 H   0  0  0  0  0  0  0  0  0  0  0  0
   11.8027    9.0089    1.2373 H   0  0  0  0  0  0  0  0  0  0  0  0
   11.3695    6.9868    3.4852 H   0  0  0  0  0  0  0  0  0  0  0  0
   11.4632    6.5568    1.7395 H   0  0  0  0  0  0  0  0  0  0  0  0
    9.6589    8.1233    1.1472 H   0  0  0  0  0  0  0  0  0  0  0  0
    9.1130    6.9617    2.4019 H   0  0  0  0  0  0  0  0  0  0  0  0
    9.4464    8.5784    4.1883 H   0  0  0  0  0  0  0  0  0  0  0  0
    7.5087    9.5678    4.9482 H   0  0  0  0  0  0  0  0  0  0  0  0
    5.7440   11.1125    3.2573 H   0  0  0  0  0  0  0  0  0  0  0  0
    5.2145    9.3890    3.1791 H   0  0  0  0  0  0  0  0  0  0  0  0
    5.7459   12.3067    5.4681 H   0  0  0  0  0  0  0  0  0  0  0  0
    4.7721   11.5883    6.8000 H   0  0  0  0  0  0  0  0  0  0  0  0
   10.1715   10.8883    3.8929 H   0  0  0  0  0  0  0  0  0  0  0  0
   10.3032   10.6869    2.1126 H   0  0  0  0  0  0  0  0  0  0  0  0
   12.5086   10.5642    3.0949 H   0  0  0  0  0  0  0  0  0  0  0  0
   12.0204    9.2949    4.2840 H   0  0  0  0  0  0  0  0  0  0  0  0
  1  2  1  0
  2  3  1  0
  2  4  1  0
  4  5  1  0
  5  6  1  0
  6  7  1  0
  7  8  1  0
  8  9  2  0
  8 10  1  0
 10 11  1  0
 11 12  1  0
 12 13  1  0
 12 14  2  0
  7 15  1  0
 15 16  1  0
 16  4  1  0
  1 17  1  0
  1 18  1  0
  1 19  1  0
  2 20  1  0
  3 21  1  0
  3 22  1  0
  3 23  1  0
  4 24  1  0
  5 25  1  0
  5 26  1  0
  6 27  1  0
  6 28  1  0
  7 29  1  0
 10 30  1  0
 11 31  1  0
 11 32  1  0
 13 33  1  0
 13 34  1  0
 15 35  1  0
 15 36  1  0
 16 37  1  0
 16 38  1  0
M  CHG  1   3   1
M  END
>  <EmbedRMS>  (11) 
0.1933160619529778

$$$$

     RDKit          3D

 38 38  0  0  0  0  0  0  0  0999 V2000
   14.0281    7.0397    1.2343 C   0  0  0  0  0  0  0  0  0  0  0  0
   13.6693    8.3364    1.9396 C   0  0  0  0  0  0  0  0  0  0  0  0
   14.6134    8.7687    2.9623 N   0  0  0  0  0  4  0  0  0  0  0  0
   12.1578    8.5899    2.2120 C   0  0  0  0  0  0  0  0  0  0  0  0
   11.2405    7.3772    2.4519 C   0  0  0  0  0  0  0  0  0  0  0  0
    9.7885    7.8243    2.2114 C   0  0  0  0  0  0  0  0  0  0  0  0
    9.4114    8.9838    3.1519 C   0  0  0  0  0  0  0  0  0  0  0  0
    8.0137    9.4644    2.8764 C   0  0  0  0  0  0  0  0  0  0  0  0
    7.6236    9.6755    1.6931 O   0  0  0  0  0  0  0  0  0  0  0  0
    7.1388    9.7055    3.9791 N   0  0  0  0  0  0  0  0  0  0  0  0
    5.7610   10.1385    3.7918 C   0  0  0  0  0  0  0  0  0  0  0  0
    5.0964   10.2807    5.1228 C   0  0  0  0  0  0  0  0  0  0  0  0
    5.2137   11.4974    5.8582 N   0  0  0  0  0  0  0  0  0  0  0  0
    4.4940    9.2972    5.6288 O   0  0  0  0  0  0  0  0  0  0  0  0
   10.4061   10.1586    3.0871 C   0  0  0  0  0  0  0  0  0  0  0  0
   11.8556    9.6808    3.2542 C   0  0  0  0  0  0  0  0  0  0  0  0
   13.3771    6.8823    0.3473 H   0  0  0  0  0  0  0  0  0  0  0  0
   13.9078    6.1867    1.9346 H   0  0  0  0  0  0  0  0  0  0  0  0
   15.0832    7.0603    0.8857 H   0  0  0  0  0  0  0  0  0  0  0  0
   13.8831    9.0582    1.1114 H   0  0  0  0  0  0  0  0  0  0  0  0
   15.5896    8.5022    2.6974 H   0  0  0  0  0  0  0  0  0  0  0  0
   14.3777    8.3021    3.8677 H   0  0  0  0  0  0  0  0  0  0  0  0
   14.5961    9.8060    3.0881 H   0  0  0  0  0  0  0  0  0  0  0  0
   11.8027    9.0089    1.2373 H   0  0  0  0  0  0  0  0  0  0  0  0
   11.3695    6.9868    3.4852 H   0  0  0  0  0  0  0  0  0  0  0  0
   11.4632    6.5568    1.7395 H   0  0  0  0  0  0  0  0  0  0  0  0
    9.6589    8.1233    1.1472 H   0  0  0  0  0  0  0  0  0  0  0  0
    9.1130    6.9617    2.4019 H   0  0  0  0  0  0  0  0  0  0  0  0
    9.4464    8.5784    4.1883 H   0  0  0  0  0  0  0  0  0  0  0  0
    7.5087    9.5678    4.9482 H   0  0  0  0  0  0  0  0  0  0  0  0
    5.7440   11.1125    3.2573 H   0  0  0  0  0  0  0  0  0  0  0  0
    5.2145    9.3890    3.1791 H   0  0  0  0  0  0  0  0  0  0  0  0
    5.7459   12.3067    5.4681 H   0  0  0  0  0  0  0  0  0  0  0  0
    4.7721   11.5883    6.8000 H   0  0  0  0  0  0  0  0  0  0  0  0
   10.1715   10.8883    3.8929 H   0  0  0  0  0  0  0  0  0  0  0  0
   10.3032   10.6869    2.1126 H   0  0  0  0  0  0  0  0  0  0  0  0
   12.5086   10.5642    3.0949 H   0  0  0  0  0  0  0  0  0  0  0  0
   12.0204    9.2949    4.2840 H   0  0  0  0  0  0  0  0  0  0  0  0
  1  2  1  0
  2  3  1  0
  2  4  1  0
  4  5  1  0
  5  6  1  0
  6  7  1  0
  7  8  1  0
  8  9  2  0
  8 10  1  0
 10 11  1  0
 11 12  1  0
 12 13  1  0
 12 14  2  0
  7 15  1  0
 15 16  1  0
 16  4  1  0
  1 17  1  0
  1 18  1  0
  1 19  1  0
  2 20  1  0
  3 21  1  0
  3 22  1  0
  3 23  1  0
  4 24  1  0
  5 25  1  0
  5 26  1  0
  6 27  1  0
  6 28  1  0
  7 29  1  0
 10 30  1  0
 11 31  1  0
 11 32  1  0
 13 33  1  0
 13 34  1  0
 15 35  1  0
 15 36  1  0
 16 37  1  0
 16 38  1  0
M  CHG  1   3   1
M  END
>  <EmbedRMS>  (12) 
0.1933160619529778

$$$$

     RDKit          3D

 35 35  0  0  0  0  0  0  0  0999 V2000
   14.0105    7.0510    1.2527 C   0  0  0  0  0  0  0  0  0  0  0  0
   13.5999    8.3245    1.9901 C   0  0  0  0  0  0  0  0  0  0  0  0
   14.7024    8.8920    2.7692 N   0  0  0  0  0  4  0  0  0  0  0  0
   12.2613    8.3268    2.7688 C   0  0  0  0  0  0  0  0  0  0  0  0
   11.1788    7.4392    2.1371 C   0  0  0  0  0  0  0  0  0  0  0  0
    9.7439    7.7246    2.5496 C   0  0  0  0  0  0  0  0  0  0  0  0
    9.4498    9.2000    2.6478 C   0  0  0  0  0  0  0  0  0  0  0  0
    7.9869    9.5311    2.7175 C   0  0  0  0  0  0  0  0  0  0  0  0
    7.4522    9.7012    1.5983 O   0  0  0  0  0  0  0  0  0  0  0  0
    7.1968    9.6646    3.9188 N   0  0  0  0  0  0  0  0  0  0  0  0
    5.8181   10.1174    3.9117 C   0  0  0  0  0  0  0  0  0  0  0  0
    5.1140   10.4008    2.6965 N   0  0  0  0  0  0  0  0  0  0  0  0
    5.2091   10.2790    5.0025 O   0  0  0  0  0  0  0  0  0  0  0  0
   10.3857   10.0191    3.4908 C   0  0  0  0  0  0  0  0  0  0  0  0
   11.8494    9.7801    3.1254 C   0  0  0  0  0  0  0  0  0  0  0  0
   13.2655    6.7644    0.4823 H   0  0  0  0  0  0  0  0  0  0  0  0
   14.9812    7.1940    0.7318 H   0  0  0  0  0  0  0  0  0  0  0  0
   14.1178    6.2182    1.9791 H   0  0  0  0  0  0  0  0  0  0  0  0
   13.4347    9.0289    1.1417 H   0  0  0  0  0  0  0  0  0  0  0  0
   14.8383    8.3421    3.6482 H   0  0  0  0  0  0  0  0  0  0  0  0
   15.5915    8.8671    2.2188 H   0  0  0  0  0  0  0  0  0  0  0  0
   14.5204    9.8926    3.0069 H   0  0  0  0  0  0  0  0  0  0  0  0
   12.4698    7.8393    3.7479 H   0  0  0  0  0  0  0  0  0  0  0  0
   11.2109    7.5921    1.0361 H   0  0  0  0  0  0  0  0  0  0  0  0
   11.4061    6.3664    2.3247 H   0  0  0  0  0  0  0  0  0  0  0  0
    9.0526    7.2371    1.8259 H   0  0  0  0  0  0  0  0  0  0  0  0
    9.5619    7.2662    3.5461 H   0  0  0  0  0  0  0  0  0  0  0  0
    9.7336    9.5571    1.6259 H   0  0  0  0  0  0  0  0  0  0  0  0
    7.6541    9.4690    4.8372 H   0  0  0  0  0  0  0  0  0  0  0  0
    4.2892   11.0403    2.7286 H   0  0  0  0  0  0  0  0  0  0  0  0
    5.1621    9.7571    1.8783 H   0  0  0  0  0  0  0  0  0  0  0  0
   10.1475   11.1020    3.3945 H   0  0  0  0  0  0  0  0  0  0  0  0
   10.2338    9.7349    4.5549 H   0  0  0  0  0  0  0  0  0  0  0  0
   12.0635   10.4407    2.2563 H   0  0  0  0  0  0  0  0  0  0  0  0
   12.4723   10.1509    3.9684 H   0  0  0  0  0  0  0  0  0  0  0  0
  1  2  1  0
  2  3  1  0
  2  4  1  0
  4  5  1  0
  5  6  1  0
  6  7  1  0
  7  8  1  0
  8  9  2  0
  8 10  1  0
 10 11  1  0
 11 12  1  0
 11 13  2  0
  7 14  1  0
 14 15  1  0
 15  4  1  0
  1 16  1  0
  1 17  1  0
  1 18  1  0
  2 19  1  0
  3 20  1  0
  3 21  1  0
  3 22  1  0
  4 23  1  0
  5 24  1  0
  5 25  1  0
  6 26  1  0
  6 27  1  0
  7 28  1  0
 10 29  1  0
 12 30  1  0
 12 31  1  0
 14 32  1  0
 14 33  1  0
 15 34  1  0
 15 35  1  0
M  CHG  1   3   1
M  END
>  <EmbedRMS>  (13) 
0.3207721569004263

$$$$

     RDKit          3D

 41 41  0  0  0  0  0  0  0  0999 V2000
    6.2087   12.5260    4.6401 C   0  0  0  0  0  0  0  0  0  0  0  0
    5.7640   11.6400    3.4758 C   0  0  0  0  0  0  0  0  0  0  0  0
    4.4679   11.9935    3.0646 O   0  0  0  0  0  0  0  0  0  0  0  0
    5.8328   10.1467    3.8641 C   0  0  0  0  0  0  0  0  0  0  0  0
    7.2282    9.6850    3.9299 N   0  0  0  0  0  0  0  0  0  0  0  0
    7.9894    9.5239    2.7207 C   0  0  0  0  0  0  0  0  0  0  0  0
    7.4161    9.6728    1.6144 O   0  0  0  0  0  0  0  0  0  0  0  0
    9.4505    9.2009    2.6353 C   0  0  0  0  0  0  0  0  0  0  0  0
    9.7454    7.7255    2.5443 C   0  0  0  0  0  0  0  0  0  0  0  0
   11.1802    7.4393    2.1347 C   0  0  0  0  0  0  0  0  0  0  0  0
   12.2615    8.3272    2.7673 C   0  0  0  0  0  0  0  0  0  0  0  0
   13.6008    8.3246    1.9898 C   0  0  0  0  0  0  0  0  0  0  0  0
   14.0116    7.0508    1.2528 C   0  0  0  0  0  0  0  0  0  0  0  0
   14.7027    8.8918    2.7697 N   0  0  0  0  0  4  0  0  0  0  0  0
   11.8490    9.7807    3.1221 C   0  0  0  0  0  0  0  0  0  0  0  0
   10.3844   10.0198    3.4822 C   0  0  0  0  0  0  0  0  0  0  0  0
    7.2594   12.2967    4.9190 H   0  0  0  0  0  0  0  0  0  0  0  0
    5.5569   12.3697    5.5263 H   0  0  0  0  0  0  0  0  0  0  0  0
    6.1519   13.5941    4.3412 H   0  0  0  0  0  0  0  0  0  0  0  0
    6.4447   11.8349    2.6207 H   0  0  0  0  0  0  0  0  0  0  0  0
    3.8513   11.8005    3.8192 H   0  0  0  0  0  0  0  0  0  0  0  0
    5.3439    9.9870    4.8501 H   0  0  0  0  0  0  0  0  0  0  0  0
    5.2758    9.5353    3.1209 H   0  0  0  0  0  0  0  0  0  0  0  0
    7.6600    9.4551    4.8526 H   0  0  0  0  0  0  0  0  0  0  0  0
    9.7227    9.5597    1.6116 H   0  0  0  0  0  0  0  0  0  0  0  0
    9.0553    7.2345    1.8218 H   0  0  0  0  0  0  0  0  0  0  0  0
    9.5627    7.2709    3.5425 H   0  0  0  0  0  0  0  0  0  0  0  0
   11.2138    7.5913    1.0337 H   0  0  0  0  0  0  0  0  0  0  0  0
   11.4070    6.3666    2.3237 H   0  0  0  0  0  0  0  0  0  0  0  0
   12.4690    7.8404    3.7470 H   0  0  0  0  0  0  0  0  0  0  0  0
   13.4366    9.0289    1.1411 H   0  0  0  0  0  0  0  0  0  0  0  0
   14.9834    7.1931    0.7338 H   0  0  0  0  0  0  0  0  0  0  0  0
   14.1169    6.2178    1.9792 H   0  0  0  0  0  0  0  0  0  0  0  0
   13.2679    6.7650    0.4809 H   0  0  0  0  0  0  0  0  0  0  0  0
   14.8391    8.3407    3.6478 H   0  0  0  0  0  0  0  0  0  0  0  0
   14.5198    9.8920    3.0090 H   0  0  0  0  0  0  0  0  0  0  0  0
   15.5918    8.8686    2.2192 H   0  0  0  0  0  0  0  0  0  0  0  0
   12.4693   10.1517    3.9669 H   0  0  0  0  0  0  0  0  0  0  0  0
   12.0657   10.4410    2.2534 H   0  0  0  0  0  0  0  0  0  0  0  0
   10.2293    9.7359    4.5458 H   0  0  0  0  0  0  0  0  0  0  0  0
   10.1463   11.1028    3.3851 H   0  0  0  0  0  0  0  0  0  0  0  0
  1  2  1  0
  2  3  1  0
  2  4  1  0
  4  5  1  0
  5  6  1  0
  6  7  2  0
  6  8  1  0
  8  9  1  0
  9 10  1  0
 10 11  1  0
 11 12  1  0
 12 13  1  0
 12 14  1  0
 11 15  1  0
 15 16  1  0
 16  8  1  0
  1 17  1  0
  1 18  1  0
  1 19  1  0
  2 20  1  0
  3 21  1  0
  4 22  1  0
  4 23  1  0
  5 24  1  0
  8 25  1  0
  9 26  1  0
  9 27  1  0
 10 28  1  0
 10 29  1  0
 11 30  1  0
 12 31  1  0
 13 32  1  0
 13 33  1  0
 13 34  1  0
 14 35  1  0
 14 36  1  0
 14 37  1  0
 15 38  1  0
 15 39  1  0
 16 40  1  0
 16 41  1  0
M  CHG  1  14   1
M  END
>  <EmbedRMS>  (14) 
0.3113970459893027

$$$$

     RDKit          3D

 38 38  0  0  0  0  0  0  0  0999 V2000
   14.0281    7.0397    1.2343 C   0  0  0  0  0  0  0  0  0  0  0  0
   13.6693    8.3364    1.9396 C   0  0  0  0  0  0  0  0  0  0  0  0
   14.6134    8.7687    2.9623 N   0  0  0  0  0  4  0  0  0  0  0  0
   12.1578    8.5899    2.2120 C   0  0  0  0  0  0  0  0  0  0  0  0
   11.2405    7.3772    2.4519 C   0  0  0  0  0  0  0  0  0  0  0  0
    9.7885    7.8243    2.2114 C   0  0  0  0  0  0  0  0  0  0  0  0
    9.4114    8.9838    3.1519 C   0  0  0  0  0  0  0  0  0  0  0  0
    8.0137    9.4644    2.8764 C   0  0  0  0  0  0  0  0  0  0  0  0
    7.6236    9.6755    1.6931 O   0  0  0  0  0  0  0  0  0  0  0  0
    7.1388    9.7055    3.9791 N   0  0  0  0  0  0  0  0  0  0  0  0
    5.7610   10.1385    3.7918 C   0  0  0  0  0  0  0  0  0  0  0  0
    5.0964   10.2807    5.1228 C   0  0  0  0  0  0  0  0  0  0  0  0
    5.2137   11.4974    5.8582 N   0  0  0  0  0  0  0  0  0  0  0  0
    4.4940    9.2972    5.6288 O   0  0  0  0  0  0  0  0  0  0  0  0
   10.4061   10.1586    3.0871 C   0  0  0  0  0  0  0  0  0  0  0  0
   11.8556    9.6808    3.2542 C   0  0  0  0  0  0  0  0  0  0  0  0
   13.3771    6.8823    0.3473 H   0  0  0  0  0  0  0  0  0  0  0  0
   13.9078    6.1867    1.9346 H   0  0  0  0  0  0  0  0  0  0  0  0
   15.0832    7.0603    0.8857 H   0  0  0  0  0  0  0  0  0  0  0  0
   13.8831    9.0582    1.1114 H   0  0  0  0  0  0  0  0  0  0  0  0
   15.5896    8.5022    2.6974 H   0  0  0  0  0  0  0  0  0  0  0  0
   14.3777    8.3021    3.8677 H   0  0  0  0  0  0  0  0  0  0  0  0
   14.5961    9.8060    3.0881 H   0  0  0  0  0  0  0  0  0  0  0  0
   11.8027    9.0089    1.2373 H   0  0  0  0  0  0  0  0  0  0  0  0
   11.3695    6.9868    3.4852 H   0  0  0  0  0  0  0  0  0  0  0  0
   11.4632    6.5568    1.7395 H   0  0  0  0  0  0  0  0  0  0  0  0
    9.6589    8.1233    1.1472 H   0  0  0  0  0  0  0  0  0  0  0  0
    9.1130    6.9617    2.4019 H   0  0  0  0  0  0  0  0  0  0  0  0
    9.4464    8.5784    4.1883 H   0  0  0  0  0  0  0  0  0  0  0  0
    7.5087    9.5678    4.9482 H   0  0  0  0  0  0  0  0  0  0  0  0
    5.7440   11.1125    3.2573 H   0  0  0  0  0  0  0  0  0  0  0  0
    5.2145    9.3890    3.1791 H   0  0  0  0  0  0  0  0  0  0  0  0
    5.7459   12.3067    5.4681 H   0  0  0  0  0  0  0  0  0  0  0  0
    4.7721   11.5883    6.8000 H   0  0  0  0  0  0  0  0  0  0  0  0
   10.1715   10.8883    3.8929 H   0  0  0  0  0  0  0  0  0  0  0  0
   10.3032   10.6869    2.1126 H   0  0  0  0  0  0  0  0  0  0  0  0
   12.5086   10.5642    3.0949 H   0  0  0  0  0  0  0  0  0  0  0  0
   12.0204    9.2949    4.2840 H   0  0  0  0  0  0  0  0  0  0  0  0
  1  2  1  0
  2  3  1  0
  2  4  1  0
  4  5  1  0
  5  6  1  0
  6  7  1  0
  7  8  1  0
  8  9  2  0
  8 10  1  0
 10 11  1  0
 11 12  1  0
 12 13  1  0
 12 14  2  0
  7 15  1  0
 15 16  1  0
 16  4  1  0
  1 17  1  0
  1 18  1  0
  1 19  1  0
  2 20  1  0
  3 21  1  0
  3 22  1  0
  3 23  1  0
  4 24  1  0
  5 25  1  0
  5 26  1  0
  6 27  1  0
  6 28  1  0
  7 29  1  0
 10 30  1  0
 11 31  1  0
 11 32  1  0
 13 33  1  0
 13 34  1  0
 15 35  1  0
 15 36  1  0
 16 37  1  0
 16 38  1  0
M  CHG  1   3   1
M  END
>  <EmbedRMS>  (15) 
0.1933160619529778

$$$$

     RDKit          3D

 38 38  0  0  0  0  0  0  0  0999 V2000
   14.0281    7.0397    1.2343 C   0  0  0  0  0  0  0  0  0  0  0  0
   13.6693    8.3364    1.9396 C   0  0  0  0  0  0  0  0  0  0  0  0
   14.6134    8.7687    2.9623 N   0  0  0  0  0  4  0  0  0  0  0  0
   12.1578    8.5899    2.2120 C   0  0  0  0  0  0  0  0  0  0  0  0
   11.2405    7.3772    2.4519 C   0  0  0  0  0  0  0  0  0  0  0  0
    9.7885    7.8243    2.2114 C   0  0  0  0  0  0  0  0  0  0  0  0
    9.4114    8.9838    3.1519 C   0  0  0  0  0  0  0  0  0  0  0  0
    8.0137    9.4644    2.8764 C   0  0  0  0  0  0  0  0  0  0  0  0
    7.6236    9.6755    1.6931 O   0  0  0  0  0  0  0  0  0  0  0  0
    7.1388    9.7055    3.9791 N   0  0  0  0  0  0  0  0  0  0  0  0
    5.7610   10.1385    3.7918 C   0  0  0  0  0  0  0  0  0  0  0  0
    5.0964   10.2807    5.1228 C   0  0  0  0  0  0  0  0  0  0  0  0
    5.2137   11.4974    5.8582 N   0  0  0  0  0  0  0  0  0  0  0  0
    4.4940    9.2972    5.6288 O   0  0  0  0  0  0  0  0  0  0  0  0
   10.4061   10.1586    3.0871 C   0  0  0  0  0  0  0  0  0  0  0  0
   11.8556    9.6808    3.2542 C   0  0  0  0  0  0  0  0  0  0  0  0
   13.3771    6.8823    0.3473 H   0  0  0  0  0  0  0  0  0  0  0  0
   13.9078    6.1867    1.9346 H   0  0  0  0  0  0  0  0  0  0  0  0
   15.0832    7.0603    0.8857 H   0  0  0  0  0  0  0  0  0  0  0  0
   13.8831    9.0582    1.1114 H   0  0  0  0  0  0  0  0  0  0  0  0
   15.5896    8.5022    2.6974 H   0  0  0  0  0  0  0  0  0  0  0  0
   14.3777    8.3021    3.8677 H   0  0  0  0  0  0  0  0  0  0  0  0
   14.5961    9.8060    3.0881 H   0  0  0  0  0  0  0  0  0  0  0  0
   11.8027    9.0089    1.2373 H   0  0  0  0  0  0  0  0  0  0  0  0
   11.3695    6.9868    3.4852 H   0  0  0  0  0  0  0  0  0  0  0  0
   11.4632    6.5568    1.7395 H   0  0  0  0  0  0  0  0  0  0  0  0
    9.6589    8.1233    1.1472 H   0  0  0  0  0  0  0  0  0  0  0  0
    9.1130    6.9617    2.4019 H   0  0  0  0  0  0  0  0  0  0  0  0
    9.4464    8.5784    4.1883 H   0  0  0  0  0  0  0  0  0  0  0  0
    7.5087    9.5678    4.9482 H   0  0  0  0  0  0  0  0  0  0  0  0
    5.7440   11.1125    3.2573 H   0  0  0  0  0  0  0  0  0  0  0  0
    5.2145    9.3890    3.1791 H   0  0  0  0  0  0  0  0  0  0  0  0
    5.7459   12.3067    5.4681 H   0  0  0  0  0  0  0  0  0  0  0  0
    4.7721   11.5883    6.8000 H   0  0  0  0  0  0  0  0  0  0  0  0
   10.1715   10.8883    3.8929 H   0  0  0  0  0  0  0  0  0  0  0  0
   10.3032   10.6869    2.1126 H   0  0  0  0  0  0  0  0  0  0  0  0
   12.5086   10.5642    3.0949 H   0  0  0  0  0  0  0  0  0  0  0  0
   12.0204    9.2949    4.2840 H   0  0  0  0  0  0  0  0  0  0  0  0
  1  2  1  0
  2  3  1  0
  2  4  1  0
  4  5  1  0
  5  6  1  0
  6  7  1  0
  7  8  1  0
  8  9  2  0
  8 10  1  0
 10 11  1  0
 11 12  1  0
 12 13  1  0
 12 14  2  0
  7 15  1  0
 15 16  1  0
 16  4  1  0
  1 17  1  0
  1 18  1  0
  1 19  1  0
  2 20  1  0
  3 21  1  0
  3 22  1  0
  3 23  1  0
  4 24  1  0
  5 25  1  0
  5 26  1  0
  6 27  1  0
  6 28  1  0
  7 29  1  0
 10 30  1  0
 11 31  1  0
 11 32  1  0
 13 33  1  0
 13 34  1  0
 15 35  1  0
 15 36  1  0
 16 37  1  0
 16 38  1  0
M  CHG  1   3   1
M  END
>  <EmbedRMS>  (16) 
0.1933160619529778

$$$$

     RDKit          3D

 38 38  0  0  0  0  0  0  0  0999 V2000
   14.0485    7.2193    1.1052 C   0  0  0  0  0  0  0  0  0  0  0  0
   13.6494    7.9557    2.3993 C   0  0  0  0  0  0  0  0  0  0  0  0
   14.6287    9.0157    2.6714 N   0  0  0  0  0  4  0  0  0  0  0  0
   12.1999    8.5121    2.2739 C   0  0  0  0  0  0  0  0  0  0  0  0
   11.1802    7.3659    2.4359 C   0  0  0  0  0  0  0  0  0  0  0  0
    9.7714    7.8716    2.1578 C   0  0  0  0  0  0  0  0  0  0  0  0
    9.4086    8.9939    3.1360 C   0  0  0  0  0  0  0  0  0  0  0  0
    8.0119    9.4795    2.8745 C   0  0  0  0  0  0  0  0  0  0  0  0
    7.6187    9.6893    1.6921 O   0  0  0  0  0  0  0  0  0  0  0  0
    7.1292    9.6965    3.9807 N   0  0  0  0  0  0  0  0  0  0  0  0
    5.7624   10.1694    3.8094 C   0  0  0  0  0  0  0  0  0  0  0  0
    5.7587   11.6573    3.4724 C   0  0  0  0  0  0  0  0  0  0  0  0
    4.4421   12.1064    3.3200 O   0  0  0  0  0  0  0  0  0  0  0  0
   10.4229   10.1485    3.0671 C   0  0  0  0  0  0  0  0  0  0  0  0
   11.8582    9.6379    3.2816 C   0  0  0  0  0  0  0  0  0  0  0  0
   15.0958    6.8574    1.1814 H   0  0  0  0  0  0  0  0  0  0  0  0
   13.9784    7.8974    0.2278 H   0  0  0  0  0  0  0  0  0  0  0  0
   13.4173    6.3269    0.9275 H   0  0  0  0  0  0  0  0  0  0  0  0
   13.6910    7.2251    3.2394 H   0  0  0  0  0  0  0  0  0  0  0  0
   14.4960    9.3935    3.6370 H   0  0  0  0  0  0  0  0  0  0  0  0
   15.6002    8.6298    2.6308 H   0  0  0  0  0  0  0  0  0  0  0  0
   14.5433    9.7863    1.9687 H   0  0  0  0  0  0  0  0  0  0  0  0
   12.0876    8.9473    1.2540 H   0  0  0  0  0  0  0  0  0  0  0  0
   11.2347    6.9393    3.4625 H   0  0  0  0  0  0  0  0  0  0  0  0
   11.3816    6.5452    1.7192 H   0  0  0  0  0  0  0  0  0  0  0  0
    9.0563    7.0278    2.2771 H   0  0  0  0  0  0  0  0  0  0  0  0
    9.7089    8.2307    1.1059 H   0  0  0  0  0  0  0  0  0  0  0  0
    9.4455    8.5679    4.1642 H   0  0  0  0  0  0  0  0  0  0  0  0
    7.4525    9.4673    4.9477 H   0  0  0  0  0  0  0  0  0  0  0  0
    5.2572    9.5890    3.0069 H   0  0  0  0  0  0  0  0  0  0  0  0
    5.2000   10.0100    4.7552 H   0  0  0  0  0  0  0  0  0  0  0  0
    6.2767   12.2336    4.2730 H   0  0  0  0  0  0  0  0  0  0  0  0
    6.3008   11.8316    2.5198 H   0  0  0  0  0  0  0  0  0  0  0  0
    4.0707   12.2170    4.2342 H   0  0  0  0  0  0  0  0  0  0  0  0
   10.3565   10.6518    2.0766 H   0  0  0  0  0  0  0  0  0  0  0  0
   10.1846   10.9008    3.8506 H   0  0  0  0  0  0  0  0  0  0  0  0
   12.5372   10.5052    3.1416 H   0  0  0  0  0  0  0  0  0  0  0  0
   11.9739    9.2660    4.3236 H   0  0  0  0  0  0  0  0  0  0  0  0
  1  2  1  0
  2  3  1  0
  2  4  1  0
  4  5  1  0
  5  6  1  0
  6  7  1  0
  7  8  1  0
  8  9  2  0
  8 10  1  0
 10 11  1  0
 11 12  1  0
 12 13  1  0
  7 14  1  0
 14 15  1  0
 15  4  1  0
  1 16  1  0
  1 17  1  0
  1 18  1  0
  2 19  1  0
  3 20  1  0
  3 21  1  0
  3 22  1  0
  4 23  1  0
  5 24  1  0
  5 25  1  0
  6 26  1  0
  6 27  1  0
  7 28  1  0
 10 29  1  0
 11 30  1  0
 11 31  1  0
 12 32  1  0
 12 33  1  0
 13 34  1  0
 14 35  1  0
 14 36  1  0
 15 37  1  0
 15 38  1  0
M  CHG  1   3   1
M  END
>  <EmbedRMS>  (17) 
0.031392693704421666

$$$$

     RDKit          3D

 38 38  0  0  0  0  0  0  0  0999 V2000
   14.0281    7.0397    1.2343 C   0  0  0  0  0  0  0  0  0  0  0  0
   13.6693    8.3364    1.9396 C   0  0  0  0  0  0  0  0  0  0  0  0
   14.6134    8.7687    2.9623 N   0  0  0  0  0  4  0  0  0  0  0  0
   12.1578    8.5899    2.2120 C   0  0  0  0  0  0  0  0  0  0  0  0
   11.2405    7.3772    2.4519 C   0  0  0  0  0  0  0  0  0  0  0  0
    9.7885    7.8243    2.2114 C   0  0  0  0  0  0  0  0  0  0  0  0
    9.4114    8.9838    3.1519 C   0  0  0  0  0  0  0  0  0  0  0  0
    8.0137    9.4644    2.8764 C   0  0  0  0  0  0  0  0  0  0  0  0
    7.6236    9.6755    1.6931 O   0  0  0  0  0  0  0  0  0  0  0  0
    7.1388    9.7055    3.9791 N   0  0  0  0  0  0  0  0  0  0  0  0
    5.7610   10.1385    3.7918 C   0  0  0  0  0  0  0  0  0  0  0  0
    5.0964   10.2807    5.1228 C   0  0  0  0  0  0  0  0  0  0  0  0
    5.2137   11.4974    5.8582 N   0  0  0  0  0  0  0  0  0  0  0  0
    4.4940    9.2972    5.6288 O   0  0  0  0  0  0  0  0  0  0  0  0
   10.4061   10.1586    3.0871 C   0  0  0  0  0  0  0  0  0  0  0  0
   11.8556    9.6808    3.2542 C   0  0  0  0  0  0  0  0  0  0  0  0
   13.3771    6.8823    0.3473 H   0  0  0  0  0  0  0  0  0  0  0  0
   13.9078    6.1867    1.9346 H   0  0  0  0  0  0  0  0  0  0  0  0
   15.0832    7.0603    0.8857 H   0  0  0  0  0  0  0  0  0  0  0  0
   13.8831    9.0582    1.1114 H   0  0  0  0  0  0  0  0  0  0  0  0
   15.5896    8.5022    2.6974 H   0  0  0  0  0  0  0  0  0  0  0  0
   14.3777    8.3021    3.8677 H   0  0  0  0  0  0  0  0  0  0  0  0
   14.5961    9.8060    3.0881 H   0  0  0  0  0  0  0  0  0  0  0  0
   11.8027    9.0089    1.2373 H   0  0  0  0  0  0  0  0  0  0  0  0
   11.3695    6.9868    3.4852 H   0  0  0  0  0  0  0  0  0  0  0  0
   11.4632    6.5568    1.7395 H   0  0  0  0  0  0  0  0  0  0  0  0
    9.6589    8.1233    1.1472 H   0  0  0  0  0  0  0  0  0  0  0  0
    9.1130    6.9617    2.4019 H   0  0  0  0  0  0  0  0  0  0  0  0
    9.4464    8.5784    4.1883 H   0  0  0  0  0  0  0  0  0  0  0  0
    7.5087    9.5678    4.9482 H   0  0  0  0  0  0  0  0  0  0  0  0
    5.7440   11.1125    3.2573 H   0  0  0  0  0  0  0  0  0  0  0  0
    5.2145    9.3890    3.1791 H   0  0  0  0  0  0  0  0  0  0  0  0
    5.7459   12.3067    5.4681 H   0  0  0  0  0  0  0  0  0  0  0  0
    4.7721   11.5883    6.8000 H   0  0  0  0  0  0  0  0  0  0  0  0
   10.1715   10.8883    3.8929 H   0  0  0  0  0  0  0  0  0  0  0  0
   10.3032   10.6869    2.1126 H   0  0  0  0  0  0  0  0  0  0  0  0
   12.5086   10.5642    3.0949 H   0  0  0  0  0  0  0  0  0  0  0  0
   12.0204    9.2949    4.2840 H   0  0  0  0  0  0  0  0  0  0  0  0
  1  2  1  0
  2  3  1  0
  2  4  1  0
  4  5  1  0
  5  6  1  0
  6  7  1  0
  7  8  1  0
  8  9  2  0
  8 10  1  0
 10 11  1  0
 11 12  1  0
 12 13  1  0
 12 14  2  0
  7 15  1  0
 15 16  1  0
 16  4  1  0
  1 17  1  0
  1 18  1  0
  1 19  1  0
  2 20  1  0
  3 21  1  0
  3 22  1  0
  3 23  1  0
  4 24  1  0
  5 25  1  0
  5 26  1  0
  6 27  1  0
  6 28  1  0
  7 29  1  0
 10 30  1  0
 11 31  1  0
 11 32  1  0
 13 33  1  0
 13 34  1  0
 15 35  1  0
 15 36  1  0
 16 37  1  0
 16 38  1  0
M  CHG  1   3   1
M  END
>  <EmbedRMS>  (18) 
0.1933160619529778

$$$$

     RDKit          3D

 38 38  0  0  0  0  0  0  0  0999 V2000
   14.0281    7.0397    1.2343 C   0  0  0  0  0  0  0  0  0  0  0  0
   13.6693    8.3364    1.9396 C   0  0  0  0  0  0  0  0  0  0  0  0
   14.6134    8.7687    2.9623 N   0  0  0  0  0  4  0  0  0  0  0  0
   12.1578    8.5899    2.2120 C   0  0  0  0  0  0  0  0  0  0  0  0
   11.2405    7.3772    2.4519 C   0  0  0  0  0  0  0  0  0  0  0  0
    9.7885    7.8243    2.2114 C   0  0  0  0  0  0  0  0  0  0  0  0
    9.4114    8.9838    3.1519 C   0  0  0  0  0  0  0  0  0  0  0  0
    8.0137    9.4644    2.8764 C   0  0  0  0  0  0  0  0  0  0  0  0
    7.6236    9.6755    1.6931 O   0  0  0  0  0  0  0  0  0  0  0  0
    7.1388    9.7055    3.9791 N   0  0  0  0  0  0  0  0  0  0  0  0
    5.7610   10.1385    3.7918 C   0  0  0  0  0  0  0  0  0  0  0  0
    5.0964   10.2807    5.1228 C   0  0  0  0  0  0  0  0  0  0  0  0
    5.2137   11.4974    5.8582 N   0  0  0  0  0  0  0  0  0  0  0  0
    4.4940    9.2972    5.6288 O   0  0  0  0  0  0  0  0  0  0  0  0
   10.4061   10.1586    3.0871 C   0  0  0  0  0  0  0  0  0  0  0  0
   11.8556    9.6808    3.2542 C   0  0  0  0  0  0  0  0  0  0  0  0
   13.3771    6.8823    0.3473 H   0  0  0  0  0  0  0  0  0  0  0  0
   13.9078    6.1867    1.9346 H   0  0  0  0  0  0  0  0  0  0  0  0
   15.0832    7.0603    0.8857 H   0  0  0  0  0  0  0  0  0  0  0  0
   13.8831    9.0582    1.1114 H   0  0  0  0  0  0  0  0  0  0  0  0
   15.5896    8.5022    2.6974 H   0  0  0  0  0  0  0  0  0  0  0  0
   14.3777    8.3021    3.8677 H   0  0  0  0  0  0  0  0  0  0  0  0
   14.5961    9.8060    3.0881 H   0  0  0  0  0  0  0  0  0  0  0  0
   11.8027    9.0089    1.2373 H   0  0  0  0  0  0  0  0  0  0  0  0
   11.3695    6.9868    3.4852 H   0  0  0  0  0  0  0  0  0  0  0  0
   11.4632    6.5568    1.7395 H   0  0  0  0  0  0  0  0  0  0  0  0
    9.6589    8.1233    1.1472 H   0  0  0  0  0  0  0  0  0  0  0  0
    9.1130    6.9617    2.4019 H   0  0  0  0  0  0  0  0  0  0  0  0
    9.4464    8.5784    4.1883 H   0  0  0  0  0  0  0  0  0  0  0  0
    7.5087    9.5678    4.9482 H   0  0  0  0  0  0  0  0  0  0  0  0
    5.7440   11.1125    3.2573 H   0  0  0  0  0  0  0  0  0  0  0  0
    5.2145    9.3890    3.1791 H   0  0  0  0  0  0  0  0  0  0  0  0
    5.7459   12.3067    5.4681 H   0  0  0  0  0  0  0  0  0  0  0  0
    4.7721   11.5883    6.8000 H   0  0  0  0  0  0  0  0  0  0  0  0
   10.1715   10.8883    3.8929 H   0  0  0  0  0  0  0  0  0  0  0  0
   10.3032   10.6869    2.1126 H   0  0  0  0  0  0  0  0  0  0  0  0
   12.5086   10.5642    3.0949 H   0  0  0  0  0  0  0  0  0  0  0  0
   12.0204    9.2949    4.2840 H   0  0  0  0  0  0  0  0  0  0  0  0
  1  2  1  0
  2  3  1  0
  2  4  1  0
  4  5  1  0
  5  6  1  0
  6  7  1  0
  7  8  1  0
  8  9  2  0
  8 10  1  0
 10 11  1  0
 11 12  1  0
 12 13  1  0
 12 14  2  0
  7 15  1  0
 15 16  1  0
 16  4  1  0
  1 17  1  0
  1 18  1  0
  1 19  1  0
  2 20  1  0
  3 21  1  0
  3 22  1  0
  3 23  1  0
  4 24  1  0
  5 25  1  0
  5 26  1  0
  6 27  1  0
  6 28  1  0
  7 29  1  0
 10 30  1  0
 11 31  1  0
 11 32  1  0
 13 33  1  0
 13 34  1  0
 15 35  1  0
 15 36  1  0
 16 37  1  0
 16 38  1  0
M  CHG  1   3   1
M  END
>  <EmbedRMS>  (19) 
0.1933160619529778

$$$$

     RDKit          3D

 38 38  0  0  0  0  0  0  0  0999 V2000
   14.0281    7.0397    1.2343 C   0  0  0  0  0  0  0  0  0  0  0  0
   13.6693    8.3364    1.9396 C   0  0  0  0  0  0  0  0  0  0  0  0
   14.6134    8.7687    2.9623 N   0  0  0  0  0  4  0  0  0  0  0  0
   12.1578    8.5899    2.2120 C   0  0  0  0  0  0  0  0  0  0  0  0
   11.2405    7.3772    2.4519 C   0  0  0  0  0  0  0  0  0  0  0  0
    9.7885    7.8243    2.2114 C   0  0  0  0  0  0  0  0  0  0  0  0
    9.4114    8.9838    3.1519 C   0  0  0  0  0  0  0  0  0  0  0  0
    8.0137    9.4644    2.8764 C   0  0  0  0  0  0  0  0  0  0  0  0
    7.6236    9.6755    1.6931 O   0  0  0  0  0  0  0  0  0  0  0  0
    7.1388    9.7055    3.9791 N   0  0  0  0  0  0  0  0  0  0  0  0
    5.7610   10.1385    3.7918 C   0  0  0  0  0  0  0  0  0  0  0  0
    5.0964   10.2807    5.1228 C   0  0  0  0  0  0  0  0  0  0  0  0
    5.2137   11.4974    5.8582 N   0  0  0  0  0  0  0  0  0  0  0  0
    4.4940    9.2972    5.6288 O   0  0  0  0  0  0  0  0  0  0  0  0
   10.4061   10.1586    3.0871 C   0  0  0  0  0  0  0  0  0  0  0  0
   11.8556    9.6808    3.2542 C   0  0  0  0  0  0  0  0  0  0  0  0
   13.3771    6.8823    0.3473 H   0  0  0  0  0  0  0  0  0  0  0  0
   13.9078    6.1867    1.9346 H   0  0  0  0  0  0  0  0  0  0  0  0
   15.0832    7.0603    0.8857 H   0  0  0  0  0  0  0  0  0  0  0  0
   13.8831    9.0582    1.1114 H   0  0  0  0  0  0  0  0  0  0  0  0
   15.5896    8.5022    2.6974 H   0  0  0  0  0  0  0  0  0  0  0  0
   14.3777    8.3021    3.8677 H   0  0  0  0  0  0  0  0  0  0  0  0
   14.5961    9.8060    3.0881 H   0  0  0  0  0  0  0  0  0  0  0  0
   11.8027    9.0089    1.2373 H   0  0  0  0  0  0  0  0  0  0  0  0
   11.3695    6.9868    3.4852 H   0  0  0  0  0  0  0  0  0  0  0  0
   11.4632    6.5568    1.7395 H   0  0  0  0  0  0  0  0  0  0  0  0
    9.6589    8.1233    1.1472 H   0  0  0  0  0  0  0  0  0  0  0  0
    9.1130    6.9617    2.4019 H   0  0  0  0  0  0  0  0  0  0  0  0
    9.4464    8.5784    4.1883 H   0  0  0  0  0  0  0  0  0  0  0  0
    7.5087    9.5678    4.9482 H   0  0  0  0  0  0  0  0  0  0  0  0
    5.7440   11.1125    3.2573 H   0  0  0  0  0  0  0  0  0  0  0  0
    5.2145    9.3890    3.1791 H   0  0  0  0  0  0  0  0  0  0  0  0
    5.7459   12.3067    5.4681 H   0  0  0  0  0  0  0  0  0  0  0  0
    4.7721   11.5883    6.8000 H   0  0  0  0  0  0  0  0  0  0  0  0
   10.1715   10.8883    3.8929 H   0  0  0  0  0  0  0  0  0  0  0  0
   10.3032   10.6869    2.1126 H   0  0  0  0  0  0  0  0  0  0  0  0
   12.5086   10.5642    3.0949 H   0  0  0  0  0  0  0  0  0  0  0  0
   12.0204    9.2949    4.2840 H   0  0  0  0  0  0  0  0  0  0  0  0
  1  2  1  0
  2  3  1  0
  2  4  1  0
  4  5  1  0
  5  6  1  0
  6  7  1  0
  7  8  1  0
  8  9  2  0
  8 10  1  0
 10 11  1  0
 11 12  1  0
 12 13  1  0
 12 14  2  0
  7 15  1  0
 15 16  1  0
 16  4  1  0
  1 17  1  0
  1 18  1  0
  1 19  1  0
  2 20  1  0
  3 21  1  0
  3 22  1  0
  3 23  1  0
  4 24  1  0
  5 25  1  0
  5 26  1  0
  6 27  1  0
  6 28  1  0
  7 29  1  0
 10 30  1  0
 11 31  1  0
 11 32  1  0
 13 33  1  0
 13 34  1  0
 15 35  1  0
 15 36  1  0
 16 37  1  0
 16 38  1  0
M  CHG  1   3   1
M  END
>  <EmbedRMS>  (20) 
0.1933160619529778

$$$$

     RDKit          3D

 41 41  0  0  0  0  0  0  0  0999 V2000
   14.0319    7.0406    1.2328 C   0  0  0  0  0  0  0  0  0  0  0  0
   13.6732    8.3369    1.9390 C   0  0  0  0  0  0  0  0  0  0  0  0
   14.6169    8.7682    2.9622 N   0  0  0  0  0  4  0  0  0  0  0  0
   12.1628    8.5881    2.2129 C   0  0  0  0  0  0  0  0  0  0  0  0
   11.2514    7.3725    2.4579 C   0  0  0  0  0  0  0  0  0  0  0  0
    9.8004    7.8136    2.2199 C   0  0  0  0  0  0  0  0  0  0  0  0
    9.4229    8.9736    3.1596 C   0  0  0  0  0  0  0  0  0  0  0  0
    8.0358    9.4485    2.8643 C   0  0  0  0  0  0  0  0  0  0  0  0
    7.6713    9.6279    1.6694 O   0  0  0  0  0  0  0  0  0  0  0  0
    7.1546    9.7374    3.9520 N   0  0  0  0  0  0  0  0  0  0  0  0
    5.7415   10.0944    3.7722 C   0  0  0  0  0  0  0  0  0  0  0  0
    5.4768   11.0267    2.5905 C   0  0  0  0  0  0  0  0  0  0  0  0
    4.8583    9.1458    4.5185 C   0  0  0  0  0  0  0  0  0  0  0  0
    5.3629   10.9566    4.5824 O   0  0  0  0  0  0  0  0  0  0  0  0
   10.4116   10.1530    3.0912 C   0  0  0  0  0  0  0  0  0  0  0  0
   11.8614    9.6797    3.2548 C   0  0  0  0  0  0  0  0  0  0  0  0
   15.0864    7.0625    0.8824 H   0  0  0  0  0  0  0  0  0  0  0  0
   13.9142    6.1872    1.9331 H   0  0  0  0  0  0  0  0  0  0  0  0
   13.3797    6.8827    0.3468 H   0  0  0  0  0  0  0  0  0  0  0  0
   13.8860    9.0598    1.1116 H   0  0  0  0  0  0  0  0  0  0  0  0
   14.3819    8.3000    3.8669 H   0  0  0  0  0  0  0  0  0  0  0  0
   14.5993    9.8053    3.0894 H   0  0  0  0  0  0  0  0  0  0  0  0
   15.5933    8.5027    2.6965 H   0  0  0  0  0  0  0  0  0  0  0  0
   11.8051    9.0047    1.2381 H   0  0  0  0  0  0  0  0  0  0  0  0
   11.3841    6.9852    3.4919 H   0  0  0  0  0  0  0  0  0  0  0  0
   11.4748    6.5509    1.7469 H   0  0  0  0  0  0  0  0  0  0  0  0
    9.6708    8.1070    1.1539 H   0  0  0  0  0  0  0  0  0  0  0  0
    9.1281    6.9491    2.4138 H   0  0  0  0  0  0  0  0  0  0  0  0
    9.4489    8.5726    4.1980 H   0  0  0  0  0  0  0  0  0  0  0  0
    7.5241    9.6416    4.9266 H   0  0  0  0  0  0  0  0  0  0  0  0
    4.4791   11.5366    2.6105 H   0  0  0  0  0  0  0  0  0  0  0  0
    6.2771   11.7939    2.4719 H   0  0  0  0  0  0  0  0  0  0  0  0
    5.4270   10.4206    1.6636 H   0  0  0  0  0  0  0  0  0  0  0  0
    3.7633    9.3842    4.4588 H   0  0  0  0  0  0  0  0  0  0  0  0
    5.1658    8.9410    5.5784 H   0  0  0  0  0  0  0  0  0  0  0  0
    4.9471    8.1643    4.0062 H   0  0  0  0  0  0  0  0  0  0  0  0
    6.1150   11.5195    4.9304 H   0  0  0  0  0  0  0  0  0  0  0  0
   10.3058   10.6806    2.1165 H   0  0  0  0  0  0  0  0  0  0  0  0
   10.1762   10.8823    3.8971 H   0  0  0  0  0  0  0  0  0  0  0  0
   12.0300    9.2955    4.2847 H   0  0  0  0  0  0  0  0  0  0  0  0
   12.5118   10.5645    3.0923 H   0  0  0  0  0  0  0  0  0  0  0  0
  1  2  1  0
  2  3  1  0
  2  4  1  0
  4  5  1  0
  5  6  1  0
  6  7  1  0
  7  8  1  0
  8  9  2  0
  8 10  1  0
 10 11  1  0
 11 12  1  0
 11 13  1  0
 11 14  1  0
  7 15  1  0
 15 16  1  0
 16  4  1  0
  1 17  1  0
  1 18  1  0
  1 19  1  0
  2 20  1  0
  3 21  1  0
  3 22  1  0
  3 23  1  0
  4 24  1  0
  5 25  1  0
  5 26  1  0
  6 27  1  0
  6 28  1  0
  7 29  1  0
 10 30  1  0
 12 31  1  0
 12 32  1  0
 12 33  1  0
 13 34  1  0
 13 35  1  0
 13 36  1  0
 14 37  1  0
 15 38  1  0
 15 39  1  0
 16 40  1  0
 16 41  1  0
M  CHG  1   3   1
M  END
>  <EmbedRMS>  (21) 
0.722667167693788

$$$$

     RDKit          3D

 41 41  0  0  0  0  0  0  0  0999 V2000
   14.0319    7.0406    1.2328 C   0  0  0  0  0  0  0  0  0  0  0  0
   13.6732    8.3369    1.9390 C   0  0  0  0  0  0  0  0  0  0  0  0
   14.6169    8.7682    2.9622 N   0  0  0  0  0  4  0  0  0  0  0  0
   12.1628    8.5881    2.2129 C   0  0  0  0  0  0  0  0  0  0  0  0
   11.2514    7.3725    2.4579 C   0  0  0  0  0  0  0  0  0  0  0  0
    9.8004    7.8136    2.2199 C   0  0  0  0  0  0  0  0  0  0  0  0
    9.4229    8.9736    3.1596 C   0  0  0  0  0  0  0  0  0  0  0  0
    8.0358    9.4485    2.8643 C   0  0  0  0  0  0  0  0  0  0  0  0
    7.6713    9.6279    1.6694 O   0  0  0  0  0  0  0  0  0  0  0  0
    7.1546    9.7374    3.9520 N   0  0  0  0  0  0  0  0  0  0  0  0
    5.7415   10.0944    3.7722 C   0  0  0  0  0  0  0  0  0  0  0  0
    5.4768   11.0267    2.5905 C   0  0  0  0  0  0  0  0  0  0  0  0
    4.8583    9.1458    4.5185 C   0  0  0  0  0  0  0  0  0  0  0  0
    5.3629   10.9566    4.5824 O   0  0  0  0  0  0  0  0  0  0  0  0
   10.4116   10.1530    3.0912 C   0  0  0  0  0  0  0  0  0  0  0  0
   11.8614    9.6797    3.2548 C   0  0  0  0  0  0  0  0  0  0  0  0
   15.0864    7.0625    0.8824 H   0  0  0  0  0  0  0  0  0  0  0  0
   13.9142    6.1872    1.9331 H   0  0  0  0  0  0  0  0  0  0  0  0
   13.3797    6.8827    0.3468 H   0  0  0  0  0  0  0  0  0  0  0  0
   13.8860    9.0598    1.1116 H   0  0  0  0  0  0  0  0  0  0  0  0
   14.3819    8.3000    3.8669 H   0  0  0  0  0  0  0  0  0  0  0  0
   14.5993    9.8053    3.0894 H   0  0  0  0  0  0  0  0  0  0  0  0
   15.5933    8.5027    2.6965 H   0  0  0  0  0  0  0  0  0  0  0  0
   11.8051    9.0047    1.2381 H   0  0  0  0  0  0  0  0  0  0  0  0
   11.3841    6.9852    3.4919 H   0  0  0  0  0  0  0  0  0  0  0  0
   11.4748    6.5509    1.7469 H   0  0  0  0  0  0  0  0  0  0  0  0
    9.6708    8.1070    1.1539 H   0  0  0  0  0  0  0  0  0  0  0  0
    9.1281    6.9491    2.4138 H   0  0  0  0  0  0  0  0  0  0  0  0
    9.4489    8.5726    4.1980 H   0  0  0  0  0  0  0  0  0  0  0  0
    7.5241    9.6416    4.9266 H   0  0  0  0  0  0  0  0  0  0  0  0
    4.4791   11.5366    2.6105 H   0  0  0  0  0  0  0  0  0  0  0  0
    6.2771   11.7939    2.4719 H   0  0  0  0  0  0  0  0  0  0  0  0
    5.4270   10.4206    1.6636 H   0  0  0  0  0  0  0  0  0  0  0  0
    3.7633    9.3842    4.4588 H   0  0  0  0  0  0  0  0  0  0  0  0
    5.1658    8.9410    5.5784 H   0  0  0  0  0  0  0  0  0  0  0  0
    4.9471    8.1643    4.0062 H   0  0  0  0  0  0  0  0  0  0  0  0
    6.1150   11.5195    4.9304 H   0  0  0  0  0  0  0  0  0  0  0  0
   10.3058   10.6806    2.1165 H   0  0  0  0  0  0  0  0  0  0  0  0
   10.1762   10.8823    3.8971 H   0  0  0  0  0  0  0  0  0  0  0  0
   12.0300    9.2955    4.2847 H   0  0  0  0  0  0  0  0  0  0  0  0
   12.5118   10.5645    3.0923 H   0  0  0  0  0  0  0  0  0  0  0  0
  1  2  1  0
  2  3  1  0
  2  4  1  0
  4  5  1  0
  5  6  1  0
  6  7  1  0
  7  8  1  0
  8  9  2  0
  8 10  1  0
 10 11  1  0
 11 12  1  0
 11 13  1  0
 11 14  1  0
  7 15  1  0
 15 16  1  0
 16  4  1  0
  1 17  1  0
  1 18  1  0
  1 19  1  0
  2 20  1  0
  3 21  1  0
  3 22  1  0
  3 23  1  0
  4 24  1  0
  5 25  1  0
  5 26  1  0
  6 27  1  0
  6 28  1  0
  7 29  1  0
 10 30  1  0
 12 31  1  0
 12 32  1  0
 12 33  1  0
 13 34  1  0
 13 35  1  0
 13 36  1  0
 14 37  1  0
 15 38  1  0
 15 39  1  0
 16 40  1  0
 16 41  1  0
M  CHG  1   3   1
M  END
>  <EmbedRMS>  (22) 
0.722667167693788

$$$$

     RDKit          3D

 38 38  0  0  0  0  0  0  0  0999 V2000
   14.0281    7.0397    1.2343 C   0  0  0  0  0  0  0  0  0  0  0  0
   13.6693    8.3364    1.9396 C   0  0  0  0  0  0  0  0  0  0  0  0
   14.6134    8.7687    2.9623 N   0  0  0  0  0  4  0  0  0  0  0  0
   12.1578    8.5899    2.2120 C   0  0  0  0  0  0  0  0  0  0  0  0
   11.2405    7.3772    2.4519 C   0  0  0  0  0  0  0  0  0  0  0  0
    9.7885    7.8243    2.2114 C   0  0  0  0  0  0  0  0  0  0  0  0
    9.4114    8.9838    3.1519 C   0  0  0  0  0  0  0  0  0  0  0  0
    8.0137    9.4644    2.8764 C   0  0  0  0  0  0  0  0  0  0  0  0
    7.6236    9.6755    1.6931 O   0  0  0  0  0  0  0  0  0  0  0  0
    7.1388    9.7055    3.9791 N   0  0  0  0  0  0  0  0  0  0  0  0
    5.7610   10.1385    3.7918 C   0  0  0  0  0  0  0  0  0  0  0  0
    5.0964   10.2807    5.1228 C   0  0  0  0  0  0  0  0  0  0  0  0
    5.2137   11.4974    5.8582 N   0  0  0  0  0  0  0  0  0  0  0  0
    4.4940    9.2972    5.6288 O   0  0  0  0  0  0  0  0  0  0  0  0
   10.4061   10.1586    3.0871 C   0  0  0  0  0  0  0  0  0  0  0  0
   11.8556    9.6808    3.2542 C   0  0  0  0  0  0  0  0  0  0  0  0
   13.3771    6.8823    0.3473 H   0  0  0  0  0  0  0  0  0  0  0  0
   13.9078    6.1867    1.9346 H   0  0  0  0  0  0  0  0  0  0  0  0
   15.0832    7.0603    0.8857 H   0  0  0  0  0  0  0  0  0  0  0  0
   13.8831    9.0582    1.1114 H   0  0  0  0  0  0  0  0  0  0  0  0
   15.5896    8.5022    2.6974 H   0  0  0  0  0  0  0  0  0  0  0  0
   14.3777    8.3021    3.8677 H   0  0  0  0  0  0  0  0  0  0  0  0
   14.5961    9.8060    3.0881 H   0  0  0  0  0  0  0  0  0  0  0  0
   11.8027    9.0089    1.2373 H   0  0  0  0  0  0  0  0  0  0  0  0
   11.3695    6.9868    3.4852 H   0  0  0  0  0  0  0  0  0  0  0  0
   11.4632    6.5568    1.7395 H   0  0  0  0  0  0  0  0  0  0  0  0
    9.6589    8.1233    1.1472 H   0  0  0  0  0  0  0  0  0  0  0  0
    9.1130    6.9617    2.4019 H   0  0  0  0  0  0  0  0  0  0  0  0
    9.4464    8.5784    4.1883 H   0  0  0  0  0  0  0  0  0  0  0  0
    7.5087    9.5678    4.9482 H   0  0  0  0  0  0  0  0  0  0  0  0
    5.7440   11.1125    3.2573 H   0  0  0  0  0  0  0  0  0  0  0  0
    5.2145    9.3890    3.1791 H   0  0  0  0  0  0  0  0  0  0  0  0
    5.7459   12.3067    5.4681 H   0  0  0  0  0  0  0  0  0  0  0  0
    4.7721   11.5883    6.8000 H   0  0  0  0  0  0  0  0  0  0  0  0
   10.1715   10.8883    3.8929 H   0  0  0  0  0  0  0  0  0  0  0  0
   10.3032   10.6869    2.1126 H   0  0  0  0  0  0  0  0  0  0  0  0
   12.5086   10.5642    3.0949 H   0  0  0  0  0  0  0  0  0  0  0  0
   12.0204    9.2949    4.2840 H   0  0  0  0  0  0  0  0  0  0  0  0
  1  2  1  0
  2  3  1  0
  2  4  1  0
  4  5  1  0
  5  6  1  0
  6  7  1  0
  7  8  1  0
  8  9  2  0
  8 10  1  0
 10 11  1  0
 11 12  1  0
 12 13  1  0
 12 14  2  0
  7 15  1  0
 15 16  1  0
 16  4  1  0
  1 17  1  0
  1 18  1  0
  1 19  1  0
  2 20  1  0
  3 21  1  0
  3 22  1  0
  3 23  1  0
  4 24  1  0
  5 25  1  0
  5 26  1  0
  6 27  1  0
  6 28  1  0
  7 29  1  0
 10 30  1  0
 11 31  1  0
 11 32  1  0
 13 33  1  0
 13 34  1  0
 15 35  1  0
 15 36  1  0
 16 37  1  0
 16 38  1  0
M  CHG  1   3   1
M  END
>  <EmbedRMS>  (23) 
0.1933160619529778

$$$$

     RDKit          3D

 41 41  0  0  0  0  0  0  0  0999 V2000
   14.0112    7.0502    1.2530 C   0  0  0  0  0  0  0  0  0  0  0  0
   13.6006    8.3242    1.9896 C   0  0  0  0  0  0  0  0  0  0  0  0
   14.7025    8.8915    2.7695 N   0  0  0  0  0  4  0  0  0  0  0  0
   12.2611    8.3275    2.7668 C   0  0  0  0  0  0  0  0  0  0  0  0
   11.1789    7.4405    2.1342 C   0  0  0  0  0  0  0  0  0  0  0  0
    9.7438    7.7286    2.5427 C   0  0  0  0  0  0  0  0  0  0  0  0
    9.4497    9.2048    2.6337 C   0  0  0  0  0  0  0  0  0  0  0  0
    7.9879    9.5295    2.7214 C   0  0  0  0  0  0  0  0  0  0  0  0
    7.4128    9.6770    1.6163 O   0  0  0  0  0  0  0  0  0  0  0  0
    7.2353    9.7042    3.9341 N   0  0  0  0  0  0  0  0  0  0  0  0
    5.8340   10.1508    3.8938 C   0  0  0  0  0  0  0  0  0  0  0  0
    5.7099   11.6592    4.1550 C   0  0  0  0  0  0  0  0  0  0  0  0
    6.2760   12.5224    3.0236 C   0  0  0  0  0  0  0  0  0  0  0  0
    7.6715   12.5833    3.1173 O   0  0  0  0  0  0  0  0  0  0  0  0
   10.3857   10.0213    3.4811 C   0  0  0  0  0  0  0  0  0  0  0  0
   11.8496    9.7812    3.1206 C   0  0  0  0  0  0  0  0  0  0  0  0
   14.1168    6.2176    1.9797 H   0  0  0  0  0  0  0  0  0  0  0  0
   13.2672    6.7640    0.4815 H   0  0  0  0  0  0  0  0  0  0  0  0
   14.9828    7.1924    0.7335 H   0  0  0  0  0  0  0  0  0  0  0  0
   13.4368    9.0282    1.1406 H   0  0  0  0  0  0  0  0  0  0  0  0
   14.8376    8.3417    3.6487 H   0  0  0  0  0  0  0  0  0  0  0  0
   14.5205    9.8923    3.0071 H   0  0  0  0  0  0  0  0  0  0  0  0
   15.5921    8.8665    2.2199 H   0  0  0  0  0  0  0  0  0  0  0  0
   12.4679    7.8409    3.7467 H   0  0  0  0  0  0  0  0  0  0  0  0
   11.2133    7.5919    1.0331 H   0  0  0  0  0  0  0  0  0  0  0  0
   11.4044    6.3677    2.3239 H   0  0  0  0  0  0  0  0  0  0  0  0
    9.5597    7.2741    3.5407 H   0  0  0  0  0  0  0  0  0  0  0  0
    9.0536    7.2385    1.8196 H   0  0  0  0  0  0  0  0  0  0  0  0
    9.7211    9.5640    1.6100 H   0  0  0  0  0  0  0  0  0  0  0  0
    7.7202    9.6263    4.8558 H   0  0  0  0  0  0  0  0  0  0  0  0
    5.2756    9.6127    4.6895 H   0  0  0  0  0  0  0  0  0  0  0  0
    5.3471    9.8825    2.9314 H   0  0  0  0  0  0  0  0  0  0  0  0
    6.2064   11.9192    5.1154 H   0  0  0  0  0  0  0  0  0  0  0  0
    4.6296   11.8978    4.2654 H   0  0  0  0  0  0  0  0  0  0  0  0
    5.8625   13.5509    3.1198 H   0  0  0  0  0  0  0  0  0  0  0  0
    5.9690   12.1143    2.0344 H   0  0  0  0  0  0  0  0  0  0  0  0
    7.9776   13.1131    2.3361 H   0  0  0  0  0  0  0  0  0  0  0  0
   10.2319    9.7363    4.5446 H   0  0  0  0  0  0  0  0  0  0  0  0
   10.1501   11.1047    3.3855 H   0  0  0  0  0  0  0  0  0  0  0  0
   12.0661   10.4408    2.2513 H   0  0  0  0  0  0  0  0  0  0  0  0
   12.4705   10.1525    3.9649 H   0  0  0  0  0  0  0  0  0  0  0  0
  1  2  1  0
  2  3  1  0
  2  4  1  0
  4  5  1  0
  5  6  1  0
  6  7  1  0
  7  8  1  0
  8  9  2  0
  8 10  1  0
 10 11  1  0
 11 12  1  0
 12 13  1  0
 13 14  1  0
  7 15  1  0
 15 16  1  0
 16  4  1  0
  1 17  1  0
  1 18  1  0
  1 19  1  0
  2 20  1  0
  3 21  1  0
  3 22  1  0
  3 23  1  0
  4 24  1  0
  5 25  1  0
  5 26  1  0
  6 27  1  0
  6 28  1  0
  7 29  1  0
 10 30  1  0
 11 31  1  0
 11 32  1  0
 12 33  1  0
 12 34  1  0
 13 35  1  0
 13 36  1  0
 14 37  1  0
 15 38  1  0
 15 39  1  0
 16 40  1  0
 16 41  1  0
M  CHG  1   3   1
M  END
>  <EmbedRMS>  (24) 
0.31188721664002633

$$$$

     RDKit          3D

 41 41  0  0  0  0  0  0  0  0999 V2000
    6.2087   12.5260    4.6401 C   0  0  0  0  0  0  0  0  0  0  0  0
    5.7640   11.6400    3.4758 C   0  0  0  0  0  0  0  0  0  0  0  0
    4.4679   11.9935    3.0646 O   0  0  0  0  0  0  0  0  0  0  0  0
    5.8328   10.1467    3.8641 C   0  0  0  0  0  0  0  0  0  0  0  0
    7.2282    9.6850    3.9299 N   0  0  0  0  0  0  0  0  0  0  0  0
    7.9894    9.5239    2.7207 C   0  0  0  0  0  0  0  0  0  0  0  0
    7.4161    9.6728    1.6144 O   0  0  0  0  0  0  0  0  0  0  0  0
    9.4505    9.2009    2.6353 C   0  0  0  0  0  0  0  0  0  0  0  0
    9.7454    7.7255    2.5443 C   0  0  0  0  0  0  0  0  0  0  0  0
   11.1802    7.4393    2.1347 C   0  0  0  0  0  0  0  0  0  0  0  0
   12.2615    8.3272    2.7673 C   0  0  0  0  0  0  0  0  0  0  0  0
   13.6008    8.3246    1.9898 C   0  0  0  0  0  0  0  0  0  0  0  0
   14.0116    7.0508    1.2528 C   0  0  0  0  0  0  0  0  0  0  0  0
   14.7027    8.8918    2.7697 N   0  0  0  0  0  4  0  0  0  0  0  0
   11.8490    9.7807    3.1221 C   0  0  0  0  0  0  0  0  0  0  0  0
   10.3844   10.0198    3.4822 C   0  0  0  0  0  0  0  0  0  0  0  0
    7.2594   12.2967    4.9190 H   0  0  0  0  0  0  0  0  0  0  0  0
    5.5569   12.3697    5.5263 H   0  0  0  0  0  0  0  0  0  0  0  0
    6.1519   13.5941    4.3412 H   0  0  0  0  0  0  0  0  0  0  0  0
    6.4447   11.8349    2.6207 H   0  0  0  0  0  0  0  0  0  0  0  0
    3.8513   11.8005    3.8192 H   0  0  0  0  0  0  0  0  0  0  0  0
    5.3439    9.9870    4.8501 H   0  0  0  0  0  0  0  0  0  0  0  0
    5.2758    9.5353    3.1209 H   0  0  0  0  0  0  0  0  0  0  0  0
    7.6600    9.4551    4.8526 H   0  0  0  0  0  0  0  0  0  0  0  0
    9.7227    9.5597    1.6116 H   0  0  0  0  0  0  0  0  0  0  0  0
    9.0553    7.2345    1.8218 H   0  0  0  0  0  0  0  0  0  0  0  0
    9.5627    7.2709    3.5425 H   0  0  0  0  0  0  0  0  0  0  0  0
   11.2138    7.5913    1.0337 H   0  0  0  0  0  0  0  0  0  0  0  0
   11.4070    6.3666    2.3237 H   0  0  0  0  0  0  0  0  0  0  0  0
   12.4690    7.8404    3.7470 H   0  0  0  0  0  0  0  0  0  0  0  0
   13.4366    9.0289    1.1411 H   0  0  0  0  0  0  0  0  0  0  0  0
   14.9834    7.1931    0.7338 H   0  0  0  0  0  0  0  0  0  0  0  0
   14.1169    6.2178    1.9792 H   0  0  0  0  0  0  0  0  0  0  0  0
   13.2679    6.7650    0.4809 H   0  0  0  0  0  0  0  0  0  0  0  0
   14.8391    8.3407    3.6478 H   0  0  0  0  0  0  0  0  0  0  0  0
   14.5198    9.8920    3.0090 H   0  0  0  0  0  0  0  0  0  0  0  0
   15.5918    8.8686    2.2192 H   0  0  0  0  0  0  0  0  0  0  0  0
   12.4693   10.1517    3.9669 H   0  0  0  0  0  0  0  0  0  0  0  0
   12.0657   10.4410    2.2534 H   0  0  0  0  0  0  0  0  0  0  0  0
   10.2293    9.7359    4.5458 H   0  0  0  0  0  0  0  0  0  0  0  0
   10.1463   11.1028    3.3851 H   0  0  0  0  0  0  0  0  0  0  0  0
  1  2  1  0
  2  3  1  0
  2  4  1  0
  4  5  1  0
  5  6  1  0
  6  7  2  0
  6  8  1  0
  8  9  1  0
  9 10  1  0
 10 11  1  0
 11 12  1  0
 12 13  1  0
 12 14  1  0
 11 15  1  0
 15 16  1  0
 16  8  1  0
  1 17  1  0
  1 18  1  0
  1 19  1  0
  2 20  1  0
  3 21  1  0
  4 22  1  0
  4 23  1  0
  5 24  1  0
  8 25  1  0
  9 26  1  0
  9 27  1  0
 10 28  1  0
 10 29  1  0
 11 30  1  0
 12 31  1  0
 13 32  1  0
 13 33  1  0
 13 34  1  0
 14 35  1  0
 14 36  1  0
 14 37  1  0
 15 38  1  0
 15 39  1  0
 16 40  1  0
 16 41  1  0
M  CHG  1  14   1
M  END
>  <EmbedRMS>  (25) 
0.3113970459893027

$$$$

     RDKit          3D

 38 38  0  0  0  0  0  0  0  0999 V2000
   14.0281    7.0397    1.2343 C   0  0  0  0  0  0  0  0  0  0  0  0
   13.6693    8.3364    1.9396 C   0  0  0  0  0  0  0  0  0  0  0  0
   14.6134    8.7687    2.9623 N   0  0  0  0  0  4  0  0  0  0  0  0
   12.1578    8.5899    2.2120 C   0  0  0  0  0  0  0  0  0  0  0  0
   11.2405    7.3772    2.4519 C   0  0  0  0  0  0  0  0  0  0  0  0
    9.7885    7.8243    2.2114 C   0  0  0  0  0  0  0  0  0  0  0  0
    9.4114    8.9838    3.1519 C   0  0  0  0  0  0  0  0  0  0  0  0
    8.0137    9.4644    2.8764 C   0  0  0  0  0  0  0  0  0  0  0  0
    7.6236    9.6755    1.6931 O   0  0  0  0  0  0  0  0  0  0  0  0
    7.1388    9.7055    3.9791 N   0  0  0  0  0  0  0  0  0  0  0  0
    5.7610   10.1385    3.7918 C   0  0  0  0  0  0  0  0  0  0  0  0
    5.0964   10.2807    5.1228 C   0  0  0  0  0  0  0  0  0  0  0  0
    5.2137   11.4974    5.8582 N   0  0  0  0  0  0  0  0  0  0  0  0
    4.4940    9.2972    5.6288 O   0  0  0  0  0  0  0  0  0  0  0  0
   10.4061   10.1586    3.0871 C   0  0  0  0  0  0  0  0  0  0  0  0
   11.8556    9.6808    3.2542 C   0  0  0  0  0  0  0  0  0  0  0  0
   13.3771    6.8823    0.3473 H   0  0  0  0  0  0  0  0  0  0  0  0
   13.9078    6.1867    1.9346 H   0  0  0  0  0  0  0  0  0  0  0  0
   15.0832    7.0603    0.8857 H   0  0  0  0  0  0  0  0  0  0  0  0
   13.8831    9.0582    1.1114 H   0  0  0  0  0  0  0  0  0  0  0  0
   15.5896    8.5022    2.6974 H   0  0  0  0  0  0  0  0  0  0  0  0
   14.3777    8.3021    3.8677 H   0  0  0  0  0  0  0  0  0  0  0  0
   14.5961    9.8060    3.0881 H   0  0  0  0  0  0  0  0  0  0  0  0
   11.8027    9.0089    1.2373 H   0  0  0  0  0  0  0  0  0  0  0  0
   11.3695    6.9868    3.4852 H   0  0  0  0  0  0  0  0  0  0  0  0
   11.4632    6.5568    1.7395 H   0  0  0  0  0  0  0  0  0  0  0  0
    9.6589    8.1233    1.1472 H   0  0  0  0  0  0  0  0  0  0  0  0
    9.1130    6.9617    2.4019 H   0  0  0  0  0  0  0  0  0  0  0  0
    9.4464    8.5784    4.1883 H   0  0  0  0  0  0  0  0  0  0  0  0
    7.5087    9.5678    4.9482 H   0  0  0  0  0  0  0  0  0  0  0  0
    5.7440   11.1125    3.2573 H   0  0  0  0  0  0  0  0  0  0  0  0
    5.2145    9.3890    3.1791 H   0  0  0  0  0  0  0  0  0  0  0  0
    5.7459   12.3067    5.4681 H   0  0  0  0  0  0  0  0  0  0  0  0
    4.7721   11.5883    6.8000 H   0  0  0  0  0  0  0  0  0  0  0  0
   10.1715   10.8883    3.8929 H   0  0  0  0  0  0  0  0  0  0  0  0
   10.3032   10.6869    2.1126 H   0  0  0  0  0  0  0  0  0  0  0  0
   12.5086   10.5642    3.0949 H   0  0  0  0  0  0  0  0  0  0  0  0
   12.0204    9.2949    4.2840 H   0  0  0  0  0  0  0  0  0  0  0  0
  1  2  1  0
  2  3  1  0
  2  4  1  0
  4  5  1  0
  5  6  1  0
  6  7  1  0
  7  8  1  0
  8  9  2  0
  8 10  1  0
 10 11  1  0
 11 12  1  0
 12 13  1  0
 12 14  2  0
  7 15  1  0
 15 16  1  0
 16  4  1  0
  1 17  1  0
  1 18  1  0
  1 19  1  0
  2 20  1  0
  3 21  1  0
  3 22  1  0
  3 23  1  0
  4 24  1  0
  5 25  1  0
  5 26  1  0
  6 27  1  0
  6 28  1  0
  7 29  1  0
 10 30  1  0
 11 31  1  0
 11 32  1  0
 13 33  1  0
 13 34  1  0
 15 35  1  0
 15 36  1  0
 16 37  1  0
 16 38  1  0
M  CHG  1   3   1
M  END
>  <EmbedRMS>  (26) 
0.1933160619529778

$$$$

     RDKit          3D

 41 41  0  0  0  0  0  0  0  0999 V2000
   14.0112    7.0502    1.2530 C   0  0  0  0  0  0  0  0  0  0  0  0
   13.6006    8.3242    1.9896 C   0  0  0  0  0  0  0  0  0  0  0  0
   14.7025    8.8915    2.7695 N   0  0  0  0  0  4  0  0  0  0  0  0
   12.2611    8.3275    2.7668 C   0  0  0  0  0  0  0  0  0  0  0  0
   11.1789    7.4405    2.1342 C   0  0  0  0  0  0  0  0  0  0  0  0
    9.7438    7.7286    2.5427 C   0  0  0  0  0  0  0  0  0  0  0  0
    9.4497    9.2048    2.6337 C   0  0  0  0  0  0  0  0  0  0  0  0
    7.9879    9.5295    2.7214 C   0  0  0  0  0  0  0  0  0  0  0  0
    7.4128    9.6770    1.6163 O   0  0  0  0  0  0  0  0  0  0  0  0
    7.2353    9.7042    3.9341 N   0  0  0  0  0  0  0  0  0  0  0  0
    5.8340   10.1508    3.8938 C   0  0  0  0  0  0  0  0  0  0  0  0
    5.7099   11.6592    4.1550 C   0  0  0  0  0  0  0  0  0  0  0  0
    6.2760   12.5224    3.0236 C   0  0  0  0  0  0  0  0  0  0  0  0
    7.6715   12.5833    3.1173 O   0  0  0  0  0  0  0  0  0  0  0  0
   10.3857   10.0213    3.4811 C   0  0  0  0  0  0  0  0  0  0  0  0
   11.8496    9.7812    3.1206 C   0  0  0  0  0  0  0  0  0  0  0  0
   14.1168    6.2176    1.9797 H   0  0  0  0  0  0  0  0  0  0  0  0
   13.2672    6.7640    0.4815 H   0  0  0  0  0  0  0  0  0  0  0  0
   14.9828    7.1924    0.7335 H   0  0  0  0  0  0  0  0  0  0  0  0
   13.4368    9.0282    1.1406 H   0  0  0  0  0  0  0  0  0  0  0  0
   14.8376    8.3417    3.6487 H   0  0  0  0  0  0  0  0  0  0  0  0
   14.5205    9.8923    3.0071 H   0  0  0  0  0  0  0  0  0  0  0  0
   15.5921    8.8665    2.2199 H   0  0  0  0  0  0  0  0  0  0  0  0
   12.4679    7.8409    3.7467 H   0  0  0  0  0  0  0  0  0  0  0  0
   11.2133    7.5919    1.0331 H   0  0  0  0  0  0  0  0  0  0  0  0
   11.4044    6.3677    2.3239 H   0  0  0  0  0  0  0  0  0  0  0  0
    9.5597    7.2741    3.5407 H   0  0  0  0  0  0  0  0  0  0  0  0
    9.0536    7.2385    1.8196 H   0  0  0  0  0  0  0  0  0  0  0  0
    9.7211    9.5640    1.6100 H   0  0  0  0  0  0  0  0  0  0  0  0
    7.7202    9.6263    4.8558 H   0  0  0  0  0  0  0  0  0  0  0  0
    5.2756    9.6127    4.6895 H   0  0  0  0  0  0  0  0  0  0  0  0
    5.3471    9.8825    2.9314 H   0  0  0  0  0  0  0  0  0  0  0  0
    6.2064   11.9192    5.1154 H   0  0  0  0  0  0  0  0  0  0  0  0
    4.6296   11.8978    4.2654 H   0  0  0  0  0  0  0  0  0  0  0  0
    5.8625   13.5509    3.1198 H   0  0  0  0  0  0  0  0  0  0  0  0
    5.9690   12.1143    2.0344 H   0  0  0  0  0  0  0  0  0  0  0  0
    7.9776   13.1131    2.3361 H   0  0  0  0  0  0  0  0  0  0  0  0
   10.2319    9.7363    4.5446 H   0  0  0  0  0  0  0  0  0  0  0  0
   10.1501   11.1047    3.3855 H   0  0  0  0  0  0  0  0  0  0  0  0
   12.0661   10.4408    2.2513 H   0  0  0  0  0  0  0  0  0  0  0  0
   12.4705   10.1525    3.9649 H   0  0  0  0  0  0  0  0  0  0  0  0
  1  2  1  0
  2  3  1  0
  2  4  1  0
  4  5  1  0
  5  6  1  0
  6  7  1  0
  7  8  1  0
  8  9  2  0
  8 10  1  0
 10 11  1  0
 11 12  1  0
 12 13  1  0
 13 14  1  0
  7 15  1  0
 15 16  1  0
 16  4  1  0
  1 17  1  0
  1 18  1  0
  1 19  1  0
  2 20  1  0
  3 21  1  0
  3 22  1  0
  3 23  1  0
  4 24  1  0
  5 25  1  0
  5 26  1  0
  6 27  1  0
  6 28  1  0
  7 29  1  0
 10 30  1  0
 11 31  1  0
 11 32  1  0
 12 33  1  0
 12 34  1  0
 13 35  1  0
 13 36  1  0
 14 37  1  0
 15 38  1  0
 15 39  1  0
 16 40  1  0
 16 41  1  0
M  CHG  1   3   1
M  END
>  <EmbedRMS>  (27) 
0.31188721664002633

$$$$

     RDKit          3D

 41 41  0  0  0  0  0  0  0  0999 V2000
   14.0112    7.0502    1.2530 C   0  0  0  0  0  0  0  0  0  0  0  0
   13.6006    8.3242    1.9896 C   0  0  0  0  0  0  0  0  0  0  0  0
   14.7025    8.8915    2.7695 N   0  0  0  0  0  4  0  0  0  0  0  0
   12.2611    8.3275    2.7668 C   0  0  0  0  0  0  0  0  0  0  0  0
   11.1789    7.4405    2.1342 C   0  0  0  0  0  0  0  0  0  0  0  0
    9.7438    7.7286    2.5427 C   0  0  0  0  0  0  0  0  0  0  0  0
    9.4497    9.2048    2.6337 C   0  0  0  0  0  0  0  0  0  0  0  0
    7.9879    9.5295    2.7214 C   0  0  0  0  0  0  0  0  0  0  0  0
    7.4128    9.6770    1.6163 O   0  0  0  0  0  0  0  0  0  0  0  0
    7.2353    9.7042    3.9341 N   0  0  0  0  0  0  0  0  0  0  0  0
    5.8340   10.1508    3.8938 C   0  0  0  0  0  0  0  0  0  0  0  0
    5.7099   11.6592    4.1550 C   0  0  0  0  0  0  0  0  0  0  0  0
    6.2760   12.5224    3.0236 C   0  0  0  0  0  0  0  0  0  0  0  0
    7.6715   12.5833    3.1173 O   0  0  0  0  0  0  0  0  0  0  0  0
   10.3857   10.0213    3.4811 C   0  0  0  0  0  0  0  0  0  0  0  0
   11.8496    9.7812    3.1206 C   0  0  0  0  0  0  0  0  0  0  0  0
   14.1168    6.2176    1.9797 H   0  0  0  0  0  0  0  0  0  0  0  0
   13.2672    6.7640    0.4815 H   0  0  0  0  0  0  0  0  0  0  0  0
   14.9828    7.1924    0.7335 H   0  0  0  0  0  0  0  0  0  0  0  0
   13.4368    9.0282    1.1406 H   0  0  0  0  0  0  0  0  0  0  0  0
   14.8376    8.3417    3.6487 H   0  0  0  0  0  0  0  0  0  0  0  0
   14.5205    9.8923    3.0071 H   0  0  0  0  0  0  0  0  0  0  0  0
   15.5921    8.8665    2.2199 H   0  0  0  0  0  0  0  0  0  0  0  0
   12.4679    7.8409    3.7467 H   0  0  0  0  0  0  0  0  0  0  0  0
   11.2133    7.5919    1.0331 H   0  0  0  0  0  0  0  0  0  0  0  0
   11.4044    6.3677    2.3239 H   0  0  0  0  0  0  0  0  0  0  0  0
    9.5597    7.2741    3.5407 H   0  0  0  0  0  0  0  0  0  0  0  0
    9.0536    7.2385    1.8196 H   0  0  0  0  0  0  0  0  0  0  0  0
    9.7211    9.5640    1.6100 H   0  0  0  0  0  0  0  0  0  0  0  0
    7.7202    9.6263    4.8558 H   0  0  0  0  0  0  0  0  0  0  0  0
    5.2756    9.6127    4.6895 H   0  0  0  0  0  0  0  0  0  0  0  0
    5.3471    9.8825    2.9314 H   0  0  0  0  0  0  0  0  0  0  0  0
    6.2064   11.9192    5.1154 H   0  0  0  0  0  0  0  0  0  0  0  0
    4.6296   11.8978    4.2654 H   0  0  0  0  0  0  0  0  0  0  0  0
    5.8625   13.5509    3.1198 H   0  0  0  0  0  0  0  0  0  0  0  0
    5.9690   12.1143    2.0344 H   0  0  0  0  0  0  0  0  0  0  0  0
    7.9776   13.1131    2.3361 H   0  0  0  0  0  0  0  0  0  0  0  0
   10.2319    9.7363    4.5446 H   0  0  0  0  0  0  0  0  0  0  0  0
   10.1501   11.1047    3.3855 H   0  0  0  0  0  0  0  0  0  0  0  0
   12.0661   10.4408    2.2513 H   0  0  0  0  0  0  0  0  0  0  0  0
   12.4705   10.1525    3.9649 H   0  0  0  0  0  0  0  0  0  0  0  0
  1  2  1  0
  2  3  1  0
  2  4  1  0
  4  5  1  0
  5  6  1  0
  6  7  1  0
  7  8  1  0
  8  9  2  0
  8 10  1  0
 10 11  1  0
 11 12  1  0
 12 13  1  0
 13 14  1  0
  7 15  1  0
 15 16  1  0
 16  4  1  0
  1 17  1  0
  1 18  1  0
  1 19  1  0
  2 20  1  0
  3 21  1  0
  3 22  1  0
  3 23  1  0
  4 24  1  0
  5 25  1  0
  5 26  1  0
  6 27  1  0
  6 28  1  0
  7 29  1  0
 10 30  1  0
 11 31  1  0
 11 32  1  0
 12 33  1  0
 12 34  1  0
 13 35  1  0
 13 36  1  0
 14 37  1  0
 15 38  1  0
 15 39  1  0
 16 40  1  0
 16 41  1  0
M  CHG  1   3   1
M  END
>  <EmbedRMS>  (28) 
0.31188721664002633

$$$$

     RDKit          3D

 38 38  0  0  0  0  0  0  0  0999 V2000
   14.0485    7.2193    1.1052 C   0  0  0  0  0  0  0  0  0  0  0  0
   13.6494    7.9557    2.3993 C   0  0  0  0  0  0  0  0  0  0  0  0
   14.6287    9.0157    2.6714 N   0  0  0  0  0  4  0  0  0  0  0  0
   12.1999    8.5121    2.2739 C   0  0  0  0  0  0  0  0  0  0  0  0
   11.1802    7.3659    2.4359 C   0  0  0  0  0  0  0  0  0  0  0  0
    9.7714    7.8716    2.1578 C   0  0  0  0  0  0  0  0  0  0  0  0
    9.4086    8.9939    3.1360 C   0  0  0  0  0  0  0  0  0  0  0  0
    8.0119    9.4795    2.8745 C   0  0  0  0  0  0  0  0  0  0  0  0
    7.6187    9.6893    1.6921 O   0  0  0  0  0  0  0  0  0  0  0  0
    7.1292    9.6965    3.9807 N   0  0  0  0  0  0  0  0  0  0  0  0
    5.7624   10.1694    3.8094 C   0  0  0  0  0  0  0  0  0  0  0  0
    5.7587   11.6573    3.4724 C   0  0  0  0  0  0  0  0  0  0  0  0
    4.4421   12.1064    3.3200 O   0  0  0  0  0  0  0  0  0  0  0  0
   10.4229   10.1485    3.0671 C   0  0  0  0  0  0  0  0  0  0  0  0
   11.8582    9.6379    3.2816 C   0  0  0  0  0  0  0  0  0  0  0  0
   15.0958    6.8574    1.1814 H   0  0  0  0  0  0  0  0  0  0  0  0
   13.9784    7.8974    0.2278 H   0  0  0  0  0  0  0  0  0  0  0  0
   13.4173    6.3269    0.9275 H   0  0  0  0  0  0  0  0  0  0  0  0
   13.6910    7.2251    3.2394 H   0  0  0  0  0  0  0  0  0  0  0  0
   14.4960    9.3935    3.6370 H   0  0  0  0  0  0  0  0  0  0  0  0
   15.6002    8.6298    2.6308 H   0  0  0  0  0  0  0  0  0  0  0  0
   14.5433    9.7863    1.9687 H   0  0  0  0  0  0  0  0  0  0  0  0
   12.0876    8.9473    1.2540 H   0  0  0  0  0  0  0  0  0  0  0  0
   11.2347    6.9393    3.4625 H   0  0  0  0  0  0  0  0  0  0  0  0
   11.3816    6.5452    1.7192 H   0  0  0  0  0  0  0  0  0  0  0  0
    9.0563    7.0278    2.2771 H   0  0  0  0  0  0  0  0  0  0  0  0
    9.7089    8.2307    1.1059 H   0  0  0  0  0  0  0  0  0  0  0  0
    9.4455    8.5679    4.1642 H   0  0  0  0  0  0  0  0  0  0  0  0
    7.4525    9.4673    4.9477 H   0  0  0  0  0  0  0  0  0  0  0  0
    5.2572    9.5890    3.0069 H   0  0  0  0  0  0  0  0  0  0  0  0
    5.2000   10.0100    4.7552 H   0  0  0  0  0  0  0  0  0  0  0  0
    6.2767   12.2336    4.2730 H   0  0  0  0  0  0  0  0  0  0  0  0
    6.3008   11.8316    2.5198 H   0  0  0  0  0  0  0  0  0  0  0  0
    4.0707   12.2170    4.2342 H   0  0  0  0  0  0  0  0  0  0  0  0
   10.3565   10.6518    2.0766 H   0  0  0  0  0  0  0  0  0  0  0  0
   10.1846   10.9008    3.8506 H   0  0  0  0  0  0  0  0  0  0  0  0
   12.5372   10.5052    3.1416 H   0  0  0  0  0  0  0  0  0  0  0  0
   11.9739    9.2660    4.3236 H   0  0  0  0  0  0  0  0  0  0  0  0
  1  2  1  0
  2  3  1  0
  2  4  1  0
  4  5  1  0
  5  6  1  0
  6  7  1  0
  7  8  1  0
  8  9  2  0
  8 10  1  0
 10 11  1  0
 11 12  1  0
 12 13  1  0
  7 14  1  0
 14 15  1  0
 15  4  1  0
  1 16  1  0
  1 17  1  0
  1 18  1  0
  2 19  1  0
  3 20  1  0
  3 21  1  0
  3 22  1  0
  4 23  1  0
  5 24  1  0
  5 25  1  0
  6 26  1  0
  6 27  1  0
  7 28  1  0
 10 29  1  0
 11 30  1  0
 11 31  1  0
 12 32  1  0
 12 33  1  0
 13 34  1  0
 14 35  1  0
 14 36  1  0
 15 37  1  0
 15 38  1  0
M  CHG  1   3   1
M  END
>  <EmbedRMS>  (29) 
0.031392693704421666

$$$$

     RDKit          3D

 41 41  0  0  0  0  0  0  0  0999 V2000
    6.2087   12.5260    4.6401 C   0  0  0  0  0  0  0  0  0  0  0  0
    5.7640   11.6400    3.4758 C   0  0  0  0  0  0  0  0  0  0  0  0
    4.4679   11.9935    3.0646 O   0  0  0  0  0  0  0  0  0  0  0  0
    5.8328   10.1467    3.8641 C   0  0  0  0  0  0  0  0  0  0  0  0
    7.2282    9.6850    3.9299 N   0  0  0  0  0  0  0  0  0  0  0  0
    7.9894    9.5239    2.7207 C   0  0  0  0  0  0  0  0  0  0  0  0
    7.4161    9.6728    1.6144 O   0  0  0  0  0  0  0  0  0  0  0  0
    9.4505    9.2009    2.6353 C   0  0  0  0  0  0  0  0  0  0  0  0
    9.7454    7.7255    2.5443 C   0  0  0  0  0  0  0  0  0  0  0  0
   11.1802    7.4393    2.1347 C   0  0  0  0  0  0  0  0  0  0  0  0
   12.2615    8.3272    2.7673 C   0  0  0  0  0  0  0  0  0  0  0  0
   13.6008    8.3246    1.9898 C   0  0  0  0  0  0  0  0  0  0  0  0
   14.0116    7.0508    1.2528 C   0  0  0  0  0  0  0  0  0  0  0  0
   14.7027    8.8918    2.7697 N   0  0  0  0  0  4  0  0  0  0  0  0
   11.8490    9.7807    3.1221 C   0  0  0  0  0  0  0  0  0  0  0  0
   10.3844   10.0198    3.4822 C   0  0  0  0  0  0  0  0  0  0  0  0
    7.2594   12.2967    4.9190 H   0  0  0  0  0  0  0  0  0  0  0  0
    5.5569   12.3697    5.5263 H   0  0  0  0  0  0  0  0  0  0  0  0
    6.1519   13.5941    4.3412 H   0  0  0  0  0  0  0  0  0  0  0  0
    6.4447   11.8349    2.6207 H   0  0  0  0  0  0  0  0  0  0  0  0
    3.8513   11.8005    3.8192 H   0  0  0  0  0  0  0  0  0  0  0  0
    5.3439    9.9870    4.8501 H   0  0  0  0  0  0  0  0  0  0  0  0
    5.2758    9.5353    3.1209 H   0  0  0  0  0  0  0  0  0  0  0  0
    7.6600    9.4551    4.8526 H   0  0  0  0  0  0  0  0  0  0  0  0
    9.7227    9.5597    1.6116 H   0  0  0  0  0  0  0  0  0  0  0  0
    9.0553    7.2345    1.8218 H   0  0  0  0  0  0  0  0  0  0  0  0
    9.5627    7.2709    3.5425 H   0  0  0  0  0  0  0  0  0  0  0  0
   11.2138    7.5913    1.0337 H   0  0  0  0  0  0  0  0  0  0  0  0
   11.4070    6.3666    2.3237 H   0  0  0  0  0  0  0  0  0  0  0  0
   12.4690    7.8404    3.7470 H   0  0  0  0  0  0  0  0  0  0  0  0
   13.4366    9.0289    1.1411 H   0  0  0  0  0  0  0  0  0  0  0  0
   14.9834    7.1931    0.7338 H   0  0  0  0  0  0  0  0  0  0  0  0
   14.1169    6.2178    1.9792 H   0  0  0  0  0  0  0  0  0  0  0  0
   13.2679    6.7650    0.4809 H   0  0  0  0  0  0  0  0  0  0  0  0
   14.8391    8.3407    3.6478 H   0  0  0  0  0  0  0  0  0  0  0  0
   14.5198    9.8920    3.0090 H   0  0  0  0  0  0  0  0  0  0  0  0
   15.5918    8.8686    2.2192 H   0  0  0  0  0  0  0  0  0  0  0  0
   12.4693   10.1517    3.9669 H   0  0  0  0  0  0  0  0  0  0  0  0
   12.0657   10.4410    2.2534 H   0  0  0  0  0  0  0  0  0  0  0  0
   10.2293    9.7359    4.5458 H   0  0  0  0  0  0  0  0  0  0  0  0
   10.1463   11.1028    3.3851 H   0  0  0  0  0  0  0  0  0  0  0  0
  1  2  1  0
  2  3  1  0
  2  4  1  0
  4  5  1  0
  5  6  1  0
  6  7  2  0
  6  8  1  0
  8  9  1  0
  9 10  1  0
 10 11  1  0
 11 12  1  0
 12 13  1  0
 12 14  1  0
 11 15  1  0
 15 16  1  0
 16  8  1  0
  1 17  1  0
  1 18  1  0
  1 19  1  0
  2 20  1  0
  3 21  1  0
  4 22  1  0
  4 23  1  0
  5 24  1  0
  8 25  1  0
  9 26  1  0
  9 27  1  0
 10 28  1  0
 10 29  1  0
 11 30  1  0
 12 31  1  0
 13 32  1  0
 13 33  1  0
 13 34  1  0
 14 35  1  0
 14 36  1  0
 14 37  1  0
 15 38  1  0
 15 39  1  0
 16 40  1  0
 16 41  1  0
M  CHG  1  14   1
M  END
>  <EmbedRMS>  (30) 
0.3113970459893027

$$$$

     RDKit          3D

 38 38  0  0  0  0  0  0  0  0999 V2000
   14.0281    7.0397    1.2343 C   0  0  0  0  0  0  0  0  0  0  0  0
   13.6693    8.3364    1.9396 C   0  0  0  0  0  0  0  0  0  0  0  0
   14.6134    8.7687    2.9623 N   0  0  0  0  0  4  0  0  0  0  0  0
   12.1578    8.5899    2.2120 C   0  0  0  0  0  0  0  0  0  0  0  0
   11.2405    7.3772    2.4519 C   0  0  0  0  0  0  0  0  0  0  0  0
    9.7885    7.8243    2.2114 C   0  0  0  0  0  0  0  0  0  0  0  0
    9.4114    8.9838    3.1519 C   0  0  0  0  0  0  0  0  0  0  0  0
    8.0137    9.4644    2.8764 C   0  0  0  0  0  0  0  0  0  0  0  0
    7.6236    9.6755    1.6931 O   0  0  0  0  0  0  0  0  0  0  0  0
    7.1388    9.7055    3.9791 N   0  0  0  0  0  0  0  0  0  0  0  0
    5.7610   10.1385    3.7918 C   0  0  0  0  0  0  0  0  0  0  0  0
    5.0964   10.2807    5.1228 C   0  0  0  0  0  0  0  0  0  0  0  0
    5.2137   11.4974    5.8582 N   0  0  0  0  0  0  0  0  0  0  0  0
    4.4940    9.2972    5.6288 O   0  0  0  0  0  0  0  0  0  0  0  0
   10.4061   10.1586    3.0871 C   0  0  0  0  0  0  0  0  0  0  0  0
   11.8556    9.6808    3.2542 C   0  0  0  0  0  0  0  0  0  0  0  0
   13.3771    6.8823    0.3473 H   0  0  0  0  0  0  0  0  0  0  0  0
   13.9078    6.1867    1.9346 H   0  0  0  0  0  0  0  0  0  0  0  0
   15.0832    7.0603    0.8857 H   0  0  0  0  0  0  0  0  0  0  0  0
   13.8831    9.0582    1.1114 H   0  0  0  0  0  0  0  0  0  0  0  0
   15.5896    8.5022    2.6974 H   0  0  0  0  0  0  0  0  0  0  0  0
   14.3777    8.3021    3.8677 H   0  0  0  0  0  0  0  0  0  0  0  0
   14.5961    9.8060    3.0881 H   0  0  0  0  0  0  0  0  0  0  0  0
   11.8027    9.0089    1.2373 H   0  0  0  0  0  0  0  0  0  0  0  0
   11.3695    6.9868    3.4852 H   0  0  0  0  0  0  0  0  0  0  0  0
   11.4632    6.5568    1.7395 H   0  0  0  0  0  0  0  0  0  0  0  0
    9.6589    8.1233    1.1472 H   0  0  0  0  0  0  0  0  0  0  0  0
    9.1130    6.9617    2.4019 H   0  0  0  0  0  0  0  0  0  0  0  0
    9.4464    8.5784    4.1883 H   0  0  0  0  0  0  0  0  0  0  0  0
    7.5087    9.5678    4.9482 H   0  0  0  0  0  0  0  0  0  0  0  0
    5.7440   11.1125    3.2573 H   0  0  0  0  0  0  0  0  0  0  0  0
    5.2145    9.3890    3.1791 H   0  0  0  0  0  0  0  0  0  0  0  0
    5.7459   12.3067    5.4681 H   0  0  0  0  0  0  0  0  0  0  0  0
    4.7721   11.5883    6.8000 H   0  0  0  0  0  0  0  0  0  0  0  0
   10.1715   10.8883    3.8929 H   0  0  0  0  0  0  0  0  0  0  0  0
   10.3032   10.6869    2.1126 H   0  0  0  0  0  0  0  0  0  0  0  0
   12.5086   10.5642    3.0949 H   0  0  0  0  0  0  0  0  0  0  0  0
   12.0204    9.2949    4.2840 H   0  0  0  0  0  0  0  0  0  0  0  0
  1  2  1  0
  2  3  1  0
  2  4  1  0
  4  5  1  0
  5  6  1  0
  6  7  1  0
  7  8  1  0
  8  9  2  0
  8 10  1  0
 10 11  1  0
 11 12  1  0
 12 13  1  0
 12 14  2  0
  7 15  1  0
 15 16  1  0
 16  4  1  0
  1 17  1  0
  1 18  1  0
  1 19  1  0
  2 20  1  0
  3 21  1  0
  3 22  1  0
  3 23  1  0
  4 24  1  0
  5 25  1  0
  5 26  1  0
  6 27  1  0
  6 28  1  0
  7 29  1  0
 10 30  1  0
 11 31  1  0
 11 32  1  0
 13 33  1  0
 13 34  1  0
 15 35  1  0
 15 36  1  0
 16 37  1  0
 16 38  1  0
M  CHG  1   3   1
M  END
>  <EmbedRMS>  (31) 
0.1933160619529778

$$$$

     RDKit          3D

 35 35  0  0  0  0  0  0  0  0999 V2000
   14.0105    7.0510    1.2527 C   0  0  0  0  0  0  0  0  0  0  0  0
   13.5999    8.3245    1.9901 C   0  0  0  0  0  0  0  0  0  0  0  0
   14.7024    8.8920    2.7692 N   0  0  0  0  0  4  0  0  0  0  0  0
   12.2613    8.3268    2.7688 C   0  0  0  0  0  0  0  0  0  0  0  0
   11.1788    7.4392    2.1371 C   0  0  0  0  0  0  0  0  0  0  0  0
    9.7439    7.7246    2.5496 C   0  0  0  0  0  0  0  0  0  0  0  0
    9.4498    9.2000    2.6478 C   0  0  0  0  0  0  0  0  0  0  0  0
    7.9869    9.5311    2.7175 C   0  0  0  0  0  0  0  0  0  0  0  0
    7.4522    9.7012    1.5983 O   0  0  0  0  0  0  0  0  0  0  0  0
    7.1968    9.6646    3.9188 N   0  0  0  0  0  0  0  0  0  0  0  0
    5.8181   10.1174    3.9117 C   0  0  0  0  0  0  0  0  0  0  0  0
    5.1140   10.4008    2.6965 N   0  0  0  0  0  0  0  0  0  0  0  0
    5.2091   10.2790    5.0025 O   0  0  0  0  0  0  0  0  0  0  0  0
   10.3857   10.0191    3.4908 C   0  0  0  0  0  0  0  0  0  0  0  0
   11.8494    9.7801    3.1254 C   0  0  0  0  0  0  0  0  0  0  0  0
   13.2655    6.7644    0.4823 H   0  0  0  0  0  0  0  0  0  0  0  0
   14.9812    7.1940    0.7318 H   0  0  0  0  0  0  0  0  0  0  0  0
   14.1178    6.2182    1.9791 H   0  0  0  0  0  0  0  0  0  0  0  0
   13.4347    9.0289    1.1417 H   0  0  0  0  0  0  0  0  0  0  0  0
   14.8383    8.3421    3.6482 H   0  0  0  0  0  0  0  0  0  0  0  0
   15.5915    8.8671    2.2188 H   0  0  0  0  0  0  0  0  0  0  0  0
   14.5204    9.8926    3.0069 H   0  0  0  0  0  0  0  0  0  0  0  0
   12.4698    7.8393    3.7479 H   0  0  0  0  0  0  0  0  0  0  0  0
   11.2109    7.5921    1.0361 H   0  0  0  0  0  0  0  0  0  0  0  0
   11.4061    6.3664    2.3247 H   0  0  0  0  0  0  0  0  0  0  0  0
    9.0526    7.2371    1.8259 H   0  0  0  0  0  0  0  0  0  0  0  0
    9.5619    7.2662    3.5461 H   0  0  0  0  0  0  0  0  0  0  0  0
    9.7336    9.5571    1.6259 H   0  0  0  0  0  0  0  0  0  0  0  0
    7.6541    9.4690    4.8372 H   0  0  0  0  0  0  0  0  0  0  0  0
    4.2892   11.0403    2.7286 H   0  0  0  0  0  0  0  0  0  0  0  0
    5.1621    9.7571    1.8783 H   0  0  0  0  0  0  0  0  0  0  0  0
   10.1475   11.1020    3.3945 H   0  0  0  0  0  0  0  0  0  0  0  0
   10.2338    9.7349    4.5549 H   0  0  0  0  0  0  0  0  0  0  0  0
   12.0635   10.4407    2.2563 H   0  0  0  0  0  0  0  0  0  0  0  0
   12.4723   10.1509    3.9684 H   0  0  0  0  0  0  0  0  0  0  0  0
  1  2  1  0
  2  3  1  0
  2  4  1  0
  4  5  1  0
  5  6  1  0
  6  7  1  0
  7  8  1  0
  8  9  2  0
  8 10  1  0
 10 11  1  0
 11 12  1  0
 11 13  2  0
  7 14  1  0
 14 15  1  0
 15  4  1  0
  1 16  1  0
  1 17  1  0
  1 18  1  0
  2 19  1  0
  3 20  1  0
  3 21  1  0
  3 22  1  0
  4 23  1  0
  5 24  1  0
  5 25  1  0
  6 26  1  0
  6 27  1  0
  7 28  1  0
 10 29  1  0
 12 30  1  0
 12 31  1  0
 14 32  1  0
 14 33  1  0
 15 34  1  0
 15 35  1  0
M  CHG  1   3   1
M  END
>  <EmbedRMS>  (32) 
0.3207721569004263

$$$$

     RDKit          3D

 35 35  0  0  0  0  0  0  0  0999 V2000
   13.9234    7.3281    1.0385 C   0  0  0  0  0  0  0  0  0  0  0  0
   13.7076    7.9208    2.4413 C   0  0  0  0  0  0  0  0  0  0  0  0
   14.6424    9.0265    2.6703 N   0  0  0  0  0  4  0  0  0  0  0  0
   12.2294    8.2932    2.8207 C   0  0  0  0  0  0  0  0  0  0  0  0
   11.1743    7.4151    2.1496 C   0  0  0  0  0  0  0  0  0  0  0  0
    9.7354    7.7242    2.5340 C   0  0  0  0  0  0  0  0  0  0  0  0
    9.4508    9.2044    2.6210 C   0  0  0  0  0  0  0  0  0  0  0  0
    7.9903    9.5374    2.7232 C   0  0  0  0  0  0  0  0  0  0  0  0
    7.4045    9.6951    1.6247 O   0  0  0  0  0  0  0  0  0  0  0  0
    7.2417    9.6872    3.9402 N   0  0  0  0  0  0  0  0  0  0  0  0
    5.8463   10.1468    3.8960 C   0  0  0  0  0  0  0  0  0  0  0  0
    5.7801   11.4548    3.3903 O   0  0  0  0  0  0  0  0  0  0  0  0
   10.4241   10.0508    3.4113 C   0  0  0  0  0  0  0  0  0  0  0  0
   11.8790    9.7839    2.9949 C   0  0  0  0  0  0  0  0  0  0  0  0
   13.5739    8.0446    0.2653 H   0  0  0  0  0  0  0  0  0  0  0  0
   13.3790    6.3674    0.9247 H   0  0  0  0  0  0  0  0  0  0  0  0
   15.0005    7.1183    0.8659 H   0  0  0  0  0  0  0  0  0  0  0  0
   14.0110    7.0966    3.1300 H   0  0  0  0  0  0  0  0  0  0  0  0
   15.6233    8.7085    2.4934 H   0  0  0  0  0  0  0  0  0  0  0  0
   14.5976    9.3368    3.6676 H   0  0  0  0  0  0  0  0  0  0  0  0
   14.4339    9.8270    2.0307 H   0  0  0  0  0  0  0  0  0  0  0  0
   12.1624    7.9508    3.8807 H   0  0  0  0  0  0  0  0  0  0  0  0
   11.2479    7.5616    1.0504 H   0  0  0  0  0  0  0  0  0  0  0  0
   11.3801    6.3420    2.3598 H   0  0  0  0  0  0  0  0  0  0  0  0
    9.5305    7.2743    3.5300 H   0  0  0  0  0  0  0  0  0  0  0  0
    9.0510    7.2391    1.8021 H   0  0  0  0  0  0  0  0  0  0  0  0
    9.6990    9.5364    1.5822 H   0  0  0  0  0  0  0  0  0  0  0  0
    7.6948    9.4801    4.8581 H   0  0  0  0  0  0  0  0  0  0  0  0
    5.2491    9.4709    3.2480 H   0  0  0  0  0  0  0  0  0  0  0  0
    5.4077   10.1129    4.9184 H   0  0  0  0  0  0  0  0  0  0  0  0
    6.2057   12.0386    4.0709 H   0  0  0  0  0  0  0  0  0  0  0  0
   10.1930   11.1308    3.2770 H   0  0  0  0  0  0  0  0  0  0  0  0
   10.3073    9.8089    4.4900 H   0  0  0  0  0  0  0  0  0  0  0  0
   12.5373   10.2611    3.7514 H   0  0  0  0  0  0  0  0  0  0  0  0
   12.0587   10.2943    2.0238 H   0  0  0  0  0  0  0  0  0  0  0  0
  1  2  1  0
  2  3  1  0
  2  4  1  0
  4  5  1  0
  5  6  1  0
  6  7  1  0
  7  8  1  0
  8  9  2  0
  8 10  1  0
 10 11  1  0
 11 12  1  0
  7 13  1  0
 13 14  1  0
 14  4  1  0
  1 15  1  0
  1 16  1  0
  1 17  1  0
  2 18  1  0
  3 19  1  0
  3 20  1  0
  3 21  1  0
  4 22  1  0
  5 23  1  0
  5 24  1  0
  6 25  1  0
  6 26  1  0
  7 27  1  0
 10 28  1  0
 11 29  1  0
 11 30  1  0
 12 31  1  0
 13 32  1  0
 13 33  1  0
 14 34  1  0
 14 35  1  0
M  CHG  1   3   1
M  END
>  <EmbedRMS>  (33) 
0.2982641845284745

$$$$

     RDKit          3D

 35 35  0  0  0  0  0  0  0  0999 V2000
   14.0105    7.0510    1.2527 C   0  0  0  0  0  0  0  0  0  0  0  0
   13.5999    8.3245    1.9901 C   0  0  0  0  0  0  0  0  0  0  0  0
   14.7024    8.8920    2.7692 N   0  0  0  0  0  4  0  0  0  0  0  0
   12.2613    8.3268    2.7688 C   0  0  0  0  0  0  0  0  0  0  0  0
   11.1788    7.4392    2.1371 C   0  0  0  0  0  0  0  0  0  0  0  0
    9.7439    7.7246    2.5496 C   0  0  0  0  0  0  0  0  0  0  0  0
    9.4498    9.2000    2.6478 C   0  0  0  0  0  0  0  0  0  0  0  0
    7.9869    9.5311    2.7175 C   0  0  0  0  0  0  0  0  0  0  0  0
    7.4522    9.7012    1.5983 O   0  0  0  0  0  0  0  0  0  0  0  0
    7.1968    9.6646    3.9188 N   0  0  0  0  0  0  0  0  0  0  0  0
    5.8181   10.1174    3.9117 C   0  0  0  0  0  0  0  0  0  0  0  0
    5.1140   10.4008    2.6965 N   0  0  0  0  0  0  0  0  0  0  0  0
    5.2091   10.2790    5.0025 O   0  0  0  0  0  0  0  0  0  0  0  0
   10.3857   10.0191    3.4908 C   0  0  0  0  0  0  0  0  0  0  0  0
   11.8494    9.7801    3.1254 C   0  0  0  0  0  0  0  0  0  0  0  0
   13.2655    6.7644    0.4823 H   0  0  0  0  0  0  0  0  0  0  0  0
   14.9812    7.1940    0.7318 H   0  0  0  0  0  0  0  0  0  0  0  0
   14.1178    6.2182    1.9791 H   0  0  0  0  0  0  0  0  0  0  0  0
   13.4347    9.0289    1.1417 H   0  0  0  0  0  0  0  0  0  0  0  0
   14.8383    8.3421    3.6482 H   0  0  0  0  0  0  0  0  0  0  0  0
   15.5915    8.8671    2.2188 H   0  0  0  0  0  0  0  0  0  0  0  0
   14.5204    9.8926    3.0069 H   0  0  0  0  0  0  0  0  0  0  0  0
   12.4698    7.8393    3.7479 H   0  0  0  0  0  0  0  0  0  0  0  0
   11.2109    7.5921    1.0361 H   0  0  0  0  0  0  0  0  0  0  0  0
   11.4061    6.3664    2.3247 H   0  0  0  0  0  0  0  0  0  0  0  0
    9.0526    7.2371    1.8259 H   0  0  0  0  0  0  0  0  0  0  0  0
    9.5619    7.2662    3.5461 H   0  0  0  0  0  0  0  0  0  0  0  0
    9.7336    9.5571    1.6259 H   0  0  0  0  0  0  0  0  0  0  0  0
    7.6541    9.4690    4.8372 H   0  0  0  0  0  0  0  0  0  0  0  0
    4.2892   11.0403    2.7286 H   0  0  0  0  0  0  0  0  0  0  0  0
    5.1621    9.7571    1.8783 H   0  0  0  0  0  0  0  0  0  0  0  0
   10.1475   11.1020    3.3945 H   0  0  0  0  0  0  0  0  0  0  0  0
   10.2338    9.7349    4.5549 H   0  0  0  0  0  0  0  0  0  0  0  0
   12.0635   10.4407    2.2563 H   0  0  0  0  0  0  0  0  0  0  0  0
   12.4723   10.1509    3.9684 H   0  0  0  0  0  0  0  0  0  0  0  0
  1  2  1  0
  2  3  1  0
  2  4  1  0
  4  5  1  0
  5  6  1  0
  6  7  1  0
  7  8  1  0
  8  9  2  0
  8 10  1  0
 10 11  1  0
 11 12  1  0
 11 13  2  0
  7 14  1  0
 14 15  1  0
 15  4  1  0
  1 16  1  0
  1 17  1  0
  1 18  1  0
  2 19  1  0
  3 20  1  0
  3 21  1  0
  3 22  1  0
  4 23  1  0
  5 24  1  0
  5 25  1  0
  6 26  1  0
  6 27  1  0
  7 28  1  0
 10 29  1  0
 12 30  1  0
 12 31  1  0
 14 32  1  0
 14 33  1  0
 15 34  1  0
 15 35  1  0
M  CHG  1   3   1
M  END
>  <EmbedRMS>  (34) 
0.3207721569004263

$$$$

     RDKit          3D

 38 38  0  0  0  0  0  0  0  0999 V2000
   14.0281    7.0397    1.2343 C   0  0  0  0  0  0  0  0  0  0  0  0
   13.6693    8.3364    1.9396 C   0  0  0  0  0  0  0  0  0  0  0  0
   14.6134    8.7687    2.9623 N   0  0  0  0  0  4  0  0  0  0  0  0
   12.1578    8.5899    2.2120 C   0  0  0  0  0  0  0  0  0  0  0  0
   11.2405    7.3772    2.4519 C   0  0  0  0  0  0  0  0  0  0  0  0
    9.7885    7.8243    2.2114 C   0  0  0  0  0  0  0  0  0  0  0  0
    9.4114    8.9838    3.1519 C   0  0  0  0  0  0  0  0  0  0  0  0
    8.0137    9.4644    2.8764 C   0  0  0  0  0  0  0  0  0  0  0  0
    7.6236    9.6755    1.6931 O   0  0  0  0  0  0  0  0  0  0  0  0
    7.1388    9.7055    3.9791 N   0  0  0  0  0  0  0  0  0  0  0  0
    5.7610   10.1385    3.7918 C   0  0  0  0  0  0  0  0  0  0  0  0
    5.0964   10.2807    5.1228 C   0  0  0  0  0  0  0  0  0  0  0  0
    5.2137   11.4974    5.8582 N   0  0  0  0  0  0  0  0  0  0  0  0
    4.4940    9.2972    5.6288 O   0  0  0  0  0  0  0  0  0  0  0  0
   10.4061   10.1586    3.0871 C   0  0  0  0  0  0  0  0  0  0  0  0
   11.8556    9.6808    3.2542 C   0  0  0  0  0  0  0  0  0  0  0  0
   13.3771    6.8823    0.3473 H   0  0  0  0  0  0  0  0  0  0  0  0
   13.9078    6.1867    1.9346 H   0  0  0  0  0  0  0  0  0  0  0  0
   15.0832    7.0603    0.8857 H   0  0  0  0  0  0  0  0  0  0  0  0
   13.8831    9.0582    1.1114 H   0  0  0  0  0  0  0  0  0  0  0  0
   15.5896    8.5022    2.6974 H   0  0  0  0  0  0  0  0  0  0  0  0
   14.3777    8.3021    3.8677 H   0  0  0  0  0  0  0  0  0  0  0  0
   14.5961    9.8060    3.0881 H   0  0  0  0  0  0  0  0  0  0  0  0
   11.8027    9.0089    1.2373 H   0  0  0  0  0  0  0  0  0  0  0  0
   11.3695    6.9868    3.4852 H   0  0  0  0  0  0  0  0  0  0  0  0
   11.4632    6.5568    1.7395 H   0  0  0  0  0  0  0  0  0  0  0  0
    9.6589    8.1233    1.1472 H   0  0  0  0  0  0  0  0  0  0  0  0
    9.1130    6.9617    2.4019 H   0  0  0  0  0  0  0  0  0  0  0  0
    9.4464    8.5784    4.1883 H   0  0  0  0  0  0  0  0  0  0  0  0
    7.5087    9.5678    4.9482 H   0  0  0  0  0  0  0  0  0  0  0  0
    5.7440   11.1125    3.2573 H   0  0  0  0  0  0  0  0  0  0  0  0
    5.2145    9.3890    3.1791 H   0  0  0  0  0  0  0  0  0  0  0  0
    5.7459   12.3067    5.4681 H   0  0  0  0  0  0  0  0  0  0  0  0
    4.7721   11.5883    6.8000 H   0  0  0  0  0  0  0  0  0  0  0  0
   10.1715   10.8883    3.8929 H   0  0  0  0  0  0  0  0  0  0  0  0
   10.3032   10.6869    2.1126 H   0  0  0  0  0  0  0  0  0  0  0  0
   12.5086   10.5642    3.0949 H   0  0  0  0  0  0  0  0  0  0  0  0
   12.0204    9.2949    4.2840 H   0  0  0  0  0  0  0  0  0  0  0  0
  1  2  1  0
  2  3  1  0
  2  4  1  0
  4  5  1  0
  5  6  1  0
  6  7  1  0
  7  8  1  0
  8  9  2  0
  8 10  1  0
 10 11  1  0
 11 12  1  0
 12 13  1  0
 12 14  2  0
  7 15  1  0
 15 16  1  0
 16  4  1  0
  1 17  1  0
  1 18  1  0
  1 19  1  0
  2 20  1  0
  3 21  1  0
  3 22  1  0
  3 23  1  0
  4 24  1  0
  5 25  1  0
  5 26  1  0
  6 27  1  0
  6 28  1  0
  7 29  1  0
 10 30  1  0
 11 31  1  0
 11 32  1  0
 13 33  1  0
 13 34  1  0
 15 35  1  0
 15 36  1  0
 16 37  1  0
 16 38  1  0
M  CHG  1   3   1
M  END
>  <EmbedRMS>  (35) 
0.1933160619529778

$$$$

     RDKit          3D

 38 38  0  0  0  0  0  0  0  0999 V2000
   13.9837    7.0986    1.1854 C   0  0  0  0  0  0  0  0  0  0  0  0
   13.5807    8.3571    1.9537 C   0  0  0  0  0  0  0  0  0  0  0  0
   14.7115    8.8837    2.7302 N   0  0  0  0  0  4  0  0  0  0  0  0
   12.2759    8.3214    2.7737 C   0  0  0  0  0  0  0  0  0  0  0  0
   11.1586    7.3121    2.3966 C   0  0  0  0  0  0  0  0  0  0  0  0
    9.7998    7.9222    2.0838 C   0  0  0  0  0  0  0  0  0  0  0  0
    9.4153    8.9896    3.1068 C   0  0  0  0  0  0  0  0  0  0  0  0
    8.0110    9.4733    2.8591 C   0  0  0  0  0  0  0  0  0  0  0  0
    7.6300    9.6942    1.6779 O   0  0  0  0  0  0  0  0  0  0  0  0
    7.1380    9.6956    3.9783 N   0  0  0  0  0  0  0  0  0  0  0  0
    5.7774   10.1588    3.9341 C   0  0  0  0  0  0  0  0  0  0  0  0
    5.1419   10.2569    5.0170 O   0  0  0  0  0  0  0  0  0  0  0  0
    5.0873   10.6085    2.6751 C   0  0  0  0  0  0  0  0  0  0  0  0
    5.3866   12.0092    2.3942 N   0  0  0  0  0  0  0  0  0  0  0  0
   10.3980   10.1514    3.0075 C   0  0  0  0  0  0  0  0  0  0  0  0
   11.8323    9.7189    3.3051 C   0  0  0  0  0  0  0  0  0  0  0  0
   13.2922    6.9109    0.3374 H   0  0  0  0  0  0  0  0  0  0  0  0
   13.9872    6.2216    1.8667 H   0  0  0  0  0  0  0  0  0  0  0  0
   14.9999    7.2119    0.7514 H   0  0  0  0  0  0  0  0  0  0  0  0
   13.3805    9.1011    1.1486 H   0  0  0  0  0  0  0  0  0  0  0  0
   15.5290    9.0531    2.0997 H   0  0  0  0  0  0  0  0  0  0  0  0
   14.4926    9.7899    3.1974 H   0  0  0  0  0  0  0  0  0  0  0  0
   14.9948    8.1897    3.4599 H   0  0  0  0  0  0  0  0  0  0  0  0
   12.6586    7.8394    3.7045 H   0  0  0  0  0  0  0  0  0  0  0  0
   11.4422    6.6815    1.5339 H   0  0  0  0  0  0  0  0  0  0  0  0
   11.0035    6.5976    3.2386 H   0  0  0  0  0  0  0  0  0  0  0  0
    9.8315    8.3610    1.0610 H   0  0  0  0  0  0  0  0  0  0  0  0
    9.0362    7.1125    2.0786 H   0  0  0  0  0  0  0  0  0  0  0  0
    9.4746    8.5456    4.1262 H   0  0  0  0  0  0  0  0  0  0  0  0
    7.5218    9.4925    4.9291 H   0  0  0  0  0  0  0  0  0  0  0  0
    3.9887   10.5076    2.8149 H   0  0  0  0  0  0  0  0  0  0  0  0
    5.3250    9.9715    1.8030 H   0  0  0  0  0  0  0  0  0  0  0  0
    6.4208   12.1180    2.2815 H   0  0  0  0  0  0  0  0  0  0  0  0
    5.0945   12.5898    3.2143 H   0  0  0  0  0  0  0  0  0  0  0  0
   10.1056   10.9536    3.7212 H   0  0  0  0  0  0  0  0  0  0  0  0
   10.3572   10.5875    1.9836 H   0  0  0  0  0  0  0  0  0  0  0  0
   12.4776   10.5258    2.8997 H   0  0  0  0  0  0  0  0  0  0  0  0
   11.9654    9.7488    4.4110 H   0  0  0  0  0  0  0  0  0  0  0  0
  1  2  1  0
  2  3  1  0
  2  4  1  0
  4  5  1  0
  5  6  1  0
  6  7  1  0
  7  8  1  0
  8  9  2  0
  8 10  1  0
 10 11  1  0
 11 12  2  0
 11 13  1  0
 13 14  1  0
  7 15  1  0
 15 16  1  0
 16  4  1  0
  1 17  1  0
  1 18  1  0
  1 19  1  0
  2 20  1  0
  3 21  1  0
  3 22  1  0
  3 23  1  0
  4 24  1  0
  5 25  1  0
  5 26  1  0
  6 27  1  0
  6 28  1  0
  7 29  1  0
 10 30  1  0
 13 31  1  0
 13 32  1  0
 14 33  1  0
 14 34  1  0
 15 35  1  0
 15 36  1  0
 16 37  1  0
 16 38  1  0
M  CHG  1   3   1
M  END
>  <EmbedRMS>  (36) 
0.21516401282296155

$$$$

     RDKit          3D

 38 38  0  0  0  0  0  0  0  0999 V2000
   14.0281    7.0397    1.2343 C   0  0  0  0  0  0  0  0  0  0  0  0
   13.6693    8.3364    1.9396 C   0  0  0  0  0  0  0  0  0  0  0  0
   14.6134    8.7687    2.9623 N   0  0  0  0  0  4  0  0  0  0  0  0
   12.1578    8.5899    2.2120 C   0  0  0  0  0  0  0  0  0  0  0  0
   11.2405    7.3772    2.4519 C   0  0  0  0  0  0  0  0  0  0  0  0
    9.7885    7.8243    2.2114 C   0  0  0  0  0  0  0  0  0  0  0  0
    9.4114    8.9838    3.1519 C   0  0  0  0  0  0  0  0  0  0  0  0
    8.0137    9.4644    2.8764 C   0  0  0  0  0  0  0  0  0  0  0  0
    7.6236    9.6755    1.6931 O   0  0  0  0  0  0  0  0  0  0  0  0
    7.1388    9.7055    3.9791 N   0  0  0  0  0  0  0  0  0  0  0  0
    5.7610   10.1385    3.7918 C   0  0  0  0  0  0  0  0  0  0  0  0
    5.0964   10.2807    5.1228 C   0  0  0  0  0  0  0  0  0  0  0  0
    5.2137   11.4974    5.8582 N   0  0  0  0  0  0  0  0  0  0  0  0
    4.4940    9.2972    5.6288 O   0  0  0  0  0  0  0  0  0  0  0  0
   10.4061   10.1586    3.0871 C   0  0  0  0  0  0  0  0  0  0  0  0
   11.8556    9.6808    3.2542 C   0  0  0  0  0  0  0  0  0  0  0  0
   13.3771    6.8823    0.3473 H   0  0  0  0  0  0  0  0  0  0  0  0
   13.9078    6.1867    1.9346 H   0  0  0  0  0  0  0  0  0  0  0  0
   15.0832    7.0603    0.8857 H   0  0  0  0  0  0  0  0  0  0  0  0
   13.8831    9.0582    1.1114 H   0  0  0  0  0  0  0  0  0  0  0  0
   15.5896    8.5022    2.6974 H   0  0  0  0  0  0  0  0  0  0  0  0
   14.3777    8.3021    3.8677 H   0  0  0  0  0  0  0  0  0  0  0  0
   14.5961    9.8060    3.0881 H   0  0  0  0  0  0  0  0  0  0  0  0
   11.8027    9.0089    1.2373 H   0  0  0  0  0  0  0  0  0  0  0  0
   11.3695    6.9868    3.4852 H   0  0  0  0  0  0  0  0  0  0  0  0
   11.4632    6.5568    1.7395 H   0  0  0  0  0  0  0  0  0  0  0  0
    9.6589    8.1233    1.1472 H   0  0  0  0  0  0  0  0  0  0  0  0
    9.1130    6.9617    2.4019 H   0  0  0  0  0  0  0  0  0  0  0  0
    9.4464    8.5784    4.1883 H   0  0  0  0  0  0  0  0  0  0  0  0
    7.5087    9.5678    4.9482 H   0  0  0  0  0  0  0  0  0  0  0  0
    5.7440   11.1125    3.2573 H   0  0  0  0  0  0  0  0  0  0  0  0
    5.2145    9.3890    3.1791 H   0  0  0  0  0  0  0  0  0  0  0  0
    5.7459   12.3067    5.4681 H   0  0  0  0  0  0  0  0  0  0  0  0
    4.7721   11.5883    6.8000 H   0  0  0  0  0  0  0  0  0  0  0  0
   10.1715   10.8883    3.8929 H   0  0  0  0  0  0  0  0  0  0  0  0
   10.3032   10.6869    2.1126 H   0  0  0  0  0  0  0  0  0  0  0  0
   12.5086   10.5642    3.0949 H   0  0  0  0  0  0  0  0  0  0  0  0
   12.0204    9.2949    4.2840 H   0  0  0  0  0  0  0  0  0  0  0  0
  1  2  1  0
  2  3  1  0
  2  4  1  0
  4  5  1  0
  5  6  1  0
  6  7  1  0
  7  8  1  0
  8  9  2  0
  8 10  1  0
 10 11  1  0
 11 12  1  0
 12 13  1  0
 12 14  2  0
  7 15  1  0
 15 16  1  0
 16  4  1  0
  1 17  1  0
  1 18  1  0
  1 19  1  0
  2 20  1  0
  3 21  1  0
  3 22  1  0
  3 23  1  0
  4 24  1  0
  5 25  1  0
  5 26  1  0
  6 27  1  0
  6 28  1  0
  7 29  1  0
 10 30  1  0
 11 31  1  0
 11 32  1  0
 13 33  1  0
 13 34  1  0
 15 35  1  0
 15 36  1  0
 16 37  1  0
 16 38  1  0
M  CHG  1   3   1
M  END
>  <EmbedRMS>  (37) 
0.1933160619529778

$$$$

     RDKit          3D

 40 40  0  0  0  0  0  0  0  0999 V2000
   14.0269    7.0400    1.2343 C   0  0  0  0  0  0  0  0  0  0  0  0
   13.6679    8.3367    1.9398 C   0  0  0  0  0  0  0  0  0  0  0  0
   14.6125    8.7691    2.9620 N   0  0  0  0  0  4  0  0  0  0  0  0
   12.1563    8.5899    2.2129 C   0  0  0  0  0  0  0  0  0  0  0  0
   11.2395    7.3772    2.4543 C   0  0  0  0  0  0  0  0  0  0  0  0
    9.7866    7.8238    2.2173 C   0  0  0  0  0  0  0  0  0  0  0  0
    9.4089    8.9830    3.1596 C   0  0  0  0  0  0  0  0  0  0  0  0
    8.0109    9.4625    2.8834 C   0  0  0  0  0  0  0  0  0  0  0  0
    7.6249    9.6697    1.6976 O   0  0  0  0  0  0  0  0  0  0  0  0
    7.1308    9.7144    3.9841 N   0  0  0  0  0  0  0  0  0  0  0  0
    5.7595   10.1605    3.7872 C   0  0  0  0  0  0  0  0  0  0  0  0
    4.9525    9.0569    3.2520 N   0  0  0  0  0  0  0  0  0  0  0  0
    4.4391    8.2268    4.3456 C   0  0  0  0  0  0  0  0  0  0  0  0
    3.8833    9.6009    2.6194 O   0  0  0  0  0  0  0  0  0  0  0  0
   10.4040   10.1579    3.0905 C   0  0  0  0  0  0  0  0  0  0  0  0
   11.8544    9.6810    3.2550 C   0  0  0  0  0  0  0  0  0  0  0  0
   15.0818    7.0611    0.8852 H   0  0  0  0  0  0  0  0  0  0  0  0
   13.9073    6.1870    1.9347 H   0  0  0  0  0  0  0  0  0  0  0  0
   13.3754    6.8823    0.3478 H   0  0  0  0  0  0  0  0  0  0  0  0
   13.8810    9.0585    1.1116 H   0  0  0  0  0  0  0  0  0  0  0  0
   15.5888    8.5036    2.6962 H   0  0  0  0  0  0  0  0  0  0  0  0
   14.5945    9.8063    3.0884 H   0  0  0  0  0  0  0  0  0  0  0  0
   14.3779    8.3019    3.8673 H   0  0  0  0  0  0  0  0  0  0  0  0
   11.8001    9.0084    1.2384 H   0  0  0  0  0  0  0  0  0  0  0  0
   11.3707    6.9866    3.4872 H   0  0  0  0  0  0  0  0  0  0  0  0
   11.4612    6.5571    1.7411 H   0  0  0  0  0  0  0  0  0  0  0  0
    9.6551    8.1230    1.1533 H   0  0  0  0  0  0  0  0  0  0  0  0
    9.1121    6.9605    2.4084 H   0  0  0  0  0  0  0  0  0  0  0  0
    9.4419    8.5798    4.1969 H   0  0  0  0  0  0  0  0  0  0  0  0
    7.4906    9.6330    4.9619 H   0  0  0  0  0  0  0  0  0  0  0  0
    5.7652   11.0184    3.0770 H   0  0  0  0  0  0  0  0  0  0  0  0
    5.3460   10.5476    4.7471 H   0  0  0  0  0  0  0  0  0  0  0  0
    5.2803    7.8073    4.9387 H   0  0  0  0  0  0  0  0  0  0  0  0
    3.7669    8.8088    5.0154 H   0  0  0  0  0  0  0  0  0  0  0  0
    3.8652    7.3745    3.9239 H   0  0  0  0  0  0  0  0  0  0  0  0
    3.9669    9.2983    1.6792 H   0  0  0  0  0  0  0  0  0  0  0  0
   10.1710   10.8889    3.8955 H   0  0  0  0  0  0  0  0  0  0  0  0
   10.2988   10.6847    2.1154 H   0  0  0  0  0  0  0  0  0  0  0  0
   12.5065   10.5649    3.0943 H   0  0  0  0  0  0  0  0  0  0  0  0
   12.0212    9.2957    4.2848 H   0  0  0  0  0  0  0  0  0  0  0  0
  1  2  1  0
  2  3  1  0
  2  4  1  0
  4  5  1  0
  5  6  1  0
  6  7  1  0
  7  8  1  0
  8  9  2  0
  8 10  1  0
 10 11  1  0
 11 12  1  0
 12 13  1  0
 12 14  1  0
  7 15  1  0
 15 16  1  0
 16  4  1  0
  1 17  1  0
  1 18  1  0
  1 19  1  0
  2 20  1  0
  3 21  1  0
  3 22  1  0
  3 23  1  0
  4 24  1  0
  5 25  1  0
  5 26  1  0
  6 27  1  0
  6 28  1  0
  7 29  1  0
 10 30  1  0
 11 31  1  0
 11 32  1  0
 13 33  1  0
 13 34  1  0
 13 35  1  0
 14 36  1  0
 15 37  1  0
 15 38  1  0
 16 39  1  0
 16 40  1  0
M  CHG  1   3   1
M  END
>  <EmbedRMS>  (38) 
0.19432856385230776

$$$$

     RDKit          3D

 38 38  0  0  0  0  0  0  0  0999 V2000
   14.0485    7.2193    1.1052 C   0  0  0  0  0  0  0  0  0  0  0  0
   13.6494    7.9557    2.3993 C   0  0  0  0  0  0  0  0  0  0  0  0
   14.6287    9.0157    2.6714 N   0  0  0  0  0  4  0  0  0  0  0  0
   12.1999    8.5121    2.2739 C   0  0  0  0  0  0  0  0  0  0  0  0
   11.1802    7.3659    2.4359 C   0  0  0  0  0  0  0  0  0  0  0  0
    9.7714    7.8716    2.1578 C   0  0  0  0  0  0  0  0  0  0  0  0
    9.4086    8.9939    3.1360 C   0  0  0  0  0  0  0  0  0  0  0  0
    8.0119    9.4795    2.8745 C   0  0  0  0  0  0  0  0  0  0  0  0
    7.6187    9.6893    1.6921 O   0  0  0  0  0  0  0  0  0  0  0  0
    7.1292    9.6965    3.9807 N   0  0  0  0  0  0  0  0  0  0  0  0
    5.7624   10.1694    3.8094 C   0  0  0  0  0  0  0  0  0  0  0  0
    5.7587   11.6573    3.4724 C   0  0  0  0  0  0  0  0  0  0  0  0
    4.4421   12.1064    3.3200 O   0  0  0  0  0  0  0  0  0  0  0  0
   10.4229   10.1485    3.0671 C   0  0  0  0  0  0  0  0  0  0  0  0
   11.8582    9.6379    3.2816 C   0  0  0  0  0  0  0  0  0  0  0  0
   15.0958    6.8574    1.1814 H   0  0  0  0  0  0  0  0  0  0  0  0
   13.9784    7.8974    0.2278 H   0  0  0  0  0  0  0  0  0  0  0  0
   13.4173    6.3269    0.9275 H   0  0  0  0  0  0  0  0  0  0  0  0
   13.6910    7.2251    3.2394 H   0  0  0  0  0  0  0  0  0  0  0  0
   14.4960    9.3935    3.6370 H   0  0  0  0  0  0  0  0  0  0  0  0
   15.6002    8.6298    2.6308 H   0  0  0  0  0  0  0  0  0  0  0  0
   14.5433    9.7863    1.9687 H   0  0  0  0  0  0  0  0  0  0  0  0
   12.0876    8.9473    1.2540 H   0  0  0  0  0  0  0  0  0  0  0  0
   11.2347    6.9393    3.4625 H   0  0  0  0  0  0  0  0  0  0  0  0
   11.3816    6.5452    1.7192 H   0  0  0  0  0  0  0  0  0  0  0  0
    9.0563    7.0278    2.2771 H   0  0  0  0  0  0  0  0  0  0  0  0
    9.7089    8.2307    1.1059 H   0  0  0  0  0  0  0  0  0  0  0  0
    9.4455    8.5679    4.1642 H   0  0  0  0  0  0  0  0  0  0  0  0
    7.4525    9.4673    4.9477 H   0  0  0  0  0  0  0  0  0  0  0  0
    5.2572    9.5890    3.0069 H   0  0  0  0  0  0  0  0  0  0  0  0
    5.2000   10.0100    4.7552 H   0  0  0  0  0  0  0  0  0  0  0  0
    6.2767   12.2336    4.2730 H   0  0  0  0  0  0  0  0  0  0  0  0
    6.3008   11.8316    2.5198 H   0  0  0  0  0  0  0  0  0  0  0  0
    4.0707   12.2170    4.2342 H   0  0  0  0  0  0  0  0  0  0  0  0
   10.3565   10.6518    2.0766 H   0  0  0  0  0  0  0  0  0  0  0  0
   10.1846   10.9008    3.8506 H   0  0  0  0  0  0  0  0  0  0  0  0
   12.5372   10.5052    3.1416 H   0  0  0  0  0  0  0  0  0  0  0  0
   11.9739    9.2660    4.3236 H   0  0  0  0  0  0  0  0  0  0  0  0
  1  2  1  0
  2  3  1  0
  2  4  1  0
  4  5  1  0
  5  6  1  0
  6  7  1  0
  7  8  1  0
  8  9  2  0
  8 10  1  0
 10 11  1  0
 11 12  1  0
 12 13  1  0
  7 14  1  0
 14 15  1  0
 15  4  1  0
  1 16  1  0
  1 17  1  0
  1 18  1  0
  2 19  1  0
  3 20  1  0
  3 21  1  0
  3 22  1  0
  4 23  1  0
  5 24  1  0
  5 25  1  0
  6 26  1  0
  6 27  1  0
  7 28  1  0
 10 29  1  0
 11 30  1  0
 11 31  1  0
 12 32  1  0
 12 33  1  0
 13 34  1  0
 14 35  1  0
 14 36  1  0
 15 37  1  0
 15 38  1  0
M  CHG  1   3   1
M  END
>  <EmbedRMS>  (39) 
0.031392693704421666

$$$$

     RDKit          3D

 41 41  0  0  0  0  0  0  0  0999 V2000
    6.2087   12.5260    4.6401 C   0  0  0  0  0  0  0  0  0  0  0  0
    5.7640   11.6400    3.4758 C   0  0  0  0  0  0  0  0  0  0  0  0
    4.4679   11.9935    3.0646 O   0  0  0  0  0  0  0  0  0  0  0  0
    5.8328   10.1467    3.8641 C   0  0  0  0  0  0  0  0  0  0  0  0
    7.2282    9.6850    3.9299 N   0  0  0  0  0  0  0  0  0  0  0  0
    7.9894    9.5239    2.7207 C   0  0  0  0  0  0  0  0  0  0  0  0
    7.4161    9.6728    1.6144 O   0  0  0  0  0  0  0  0  0  0  0  0
    9.4505    9.2009    2.6353 C   0  0  0  0  0  0  0  0  0  0  0  0
    9.7454    7.7255    2.5443 C   0  0  0  0  0  0  0  0  0  0  0  0
   11.1802    7.4393    2.1347 C   0  0  0  0  0  0  0  0  0  0  0  0
   12.2615    8.3272    2.7673 C   0  0  0  0  0  0  0  0  0  0  0  0
   13.6008    8.3246    1.9898 C   0  0  0  0  0  0  0  0  0  0  0  0
   14.0116    7.0508    1.2528 C   0  0  0  0  0  0  0  0  0  0  0  0
   14.7027    8.8918    2.7697 N   0  0  0  0  0  4  0  0  0  0  0  0
   11.8490    9.7807    3.1221 C   0  0  0  0  0  0  0  0  0  0  0  0
   10.3844   10.0198    3.4822 C   0  0  0  0  0  0  0  0  0  0  0  0
    7.2594   12.2967    4.9190 H   0  0  0  0  0  0  0  0  0  0  0  0
    5.5569   12.3697    5.5263 H   0  0  0  0  0  0  0  0  0  0  0  0
    6.1519   13.5941    4.3412 H   0  0  0  0  0  0  0  0  0  0  0  0
    6.4447   11.8349    2.6207 H   0  0  0  0  0  0  0  0  0  0  0  0
    3.8513   11.8005    3.8192 H   0  0  0  0  0  0  0  0  0  0  0  0
    5.3439    9.9870    4.8501 H   0  0  0  0  0  0  0  0  0  0  0  0
    5.2758    9.5353    3.1209 H   0  0  0  0  0  0  0  0  0  0  0  0
    7.6600    9.4551    4.8526 H   0  0  0  0  0  0  0  0  0  0  0  0
    9.7227    9.5597    1.6116 H   0  0  0  0  0  0  0  0  0  0  0  0
    9.0553    7.2345    1.8218 H   0  0  0  0  0  0  0  0  0  0  0  0
    9.5627    7.2709    3.5425 H   0  0  0  0  0  0  0  0  0  0  0  0
   11.2138    7.5913    1.0337 H   0  0  0  0  0  0  0  0  0  0  0  0
   11.4070    6.3666    2.3237 H   0  0  0  0  0  0  0  0  0  0  0  0
   12.4690    7.8404    3.7470 H   0  0  0  0  0  0  0  0  0  0  0  0
   13.4366    9.0289    1.1411 H   0  0  0  0  0  0  0  0  0  0  0  0
   14.9834    7.1931    0.7338 H   0  0  0  0  0  0  0  0  0  0  0  0
   14.1169    6.2178    1.9792 H   0  0  0  0  0  0  0  0  0  0  0  0
   13.2679    6.7650    0.4809 H   0  0  0  0  0  0  0  0  0  0  0  0
   14.8391    8.3407    3.6478 H   0  0  0  0  0  0  0  0  0  0  0  0
   14.5198    9.8920    3.0090 H   0  0  0  0  0  0  0  0  0  0  0  0
   15.5918    8.8686    2.2192 H   0  0  0  0  0  0  0  0  0  0  0  0
   12.4693   10.1517    3.9669 H   0  0  0  0  0  0  0  0  0  0  0  0
   12.0657   10.4410    2.2534 H   0  0  0  0  0  0  0  0  0  0  0  0
   10.2293    9.7359    4.5458 H   0  0  0  0  0  0  0  0  0  0  0  0
   10.1463   11.1028    3.3851 H   0  0  0  0  0  0  0  0  0  0  0  0
  1  2  1  0
  2  3  1  0
  2  4  1  0
  4  5  1  0
  5  6  1  0
  6  7  2  0
  6  8  1  0
  8  9  1  0
  9 10  1  0
 10 11  1  0
 11 12  1  0
 12 13  1  0
 12 14  1  0
 11 15  1  0
 15 16  1  0
 16  8  1  0
  1 17  1  0
  1 18  1  0
  1 19  1  0
  2 20  1  0
  3 21  1  0
  4 22  1  0
  4 23  1  0
  5 24  1  0
  8 25  1  0
  9 26  1  0
  9 27  1  0
 10 28  1  0
 10 29  1  0
 11 30  1  0
 12 31  1  0
 13 32  1  0
 13 33  1  0
 13 34  1  0
 14 35  1  0
 14 36  1  0
 14 37  1  0
 15 38  1  0
 15 39  1  0
 16 40  1  0
 16 41  1  0
M  CHG  1  14   1
M  END
>  <EmbedRMS>  (40) 
0.3113970459893027

$$$$

     RDKit          3D

 38 38  0  0  0  0  0  0  0  0999 V2000
   13.9837    7.0986    1.1854 C   0  0  0  0  0  0  0  0  0  0  0  0
   13.5807    8.3571    1.9537 C   0  0  0  0  0  0  0  0  0  0  0  0
   14.7115    8.8837    2.7302 N   0  0  0  0  0  4  0  0  0  0  0  0
   12.2759    8.3214    2.7737 C   0  0  0  0  0  0  0  0  0  0  0  0
   11.1586    7.3121    2.3966 C   0  0  0  0  0  0  0  0  0  0  0  0
    9.7998    7.9222    2.0838 C   0  0  0  0  0  0  0  0  0  0  0  0
    9.4153    8.9896    3.1068 C   0  0  0  0  0  0  0  0  0  0  0  0
    8.0110    9.4733    2.8591 C   0  0  0  0  0  0  0  0  0  0  0  0
    7.6300    9.6942    1.6779 O   0  0  0  0  0  0  0  0  0  0  0  0
    7.1380    9.6956    3.9783 N   0  0  0  0  0  0  0  0  0  0  0  0
    5.7774   10.1588    3.9341 C   0  0  0  0  0  0  0  0  0  0  0  0
    5.1419   10.2569    5.0170 O   0  0  0  0  0  0  0  0  0  0  0  0
    5.0873   10.6085    2.6751 C   0  0  0  0  0  0  0  0  0  0  0  0
    5.3866   12.0092    2.3942 N   0  0  0  0  0  0  0  0  0  0  0  0
   10.3980   10.1514    3.0075 C   0  0  0  0  0  0  0  0  0  0  0  0
   11.8323    9.7189    3.3051 C   0  0  0  0  0  0  0  0  0  0  0  0
   13.2922    6.9109    0.3374 H   0  0  0  0  0  0  0  0  0  0  0  0
   13.9872    6.2216    1.8667 H   0  0  0  0  0  0  0  0  0  0  0  0
   14.9999    7.2119    0.7514 H   0  0  0  0  0  0  0  0  0  0  0  0
   13.3805    9.1011    1.1486 H   0  0  0  0  0  0  0  0  0  0  0  0
   15.5290    9.0531    2.0997 H   0  0  0  0  0  0  0  0  0  0  0  0
   14.4926    9.7899    3.1974 H   0  0  0  0  0  0  0  0  0  0  0  0
   14.9948    8.1897    3.4599 H   0  0  0  0  0  0  0  0  0  0  0  0
   12.6586    7.8394    3.7045 H   0  0  0  0  0  0  0  0  0  0  0  0
   11.4422    6.6815    1.5339 H   0  0  0  0  0  0  0  0  0  0  0  0
   11.0035    6.5976    3.2386 H   0  0  0  0  0  0  0  0  0  0  0  0
    9.8315    8.3610    1.0610 H   0  0  0  0  0  0  0  0  0  0  0  0
    9.0362    7.1125    2.0786 H   0  0  0  0  0  0  0  0  0  0  0  0
    9.4746    8.5456    4.1262 H   0  0  0  0  0  0  0  0  0  0  0  0
    7.5218    9.4925    4.9291 H   0  0  0  0  0  0  0  0  0  0  0  0
    3.9887   10.5076    2.8149 H   0  0  0  0  0  0  0  0  0  0  0  0
    5.3250    9.9715    1.8030 H   0  0  0  0  0  0  0  0  0  0  0  0
    6.4208   12.1180    2.2815 H   0  0  0  0  0  0  0  0  0  0  0  0
    5.0945   12.5898    3.2143 H   0  0  0  0  0  0  0  0  0  0  0  0
   10.1056   10.9536    3.7212 H   0  0  0  0  0  0  0  0  0  0  0  0
   10.3572   10.5875    1.9836 H   0  0  0  0  0  0  0  0  0  0  0  0
   12.4776   10.5258    2.8997 H   0  0  0  0  0  0  0  0  0  0  0  0
   11.9654    9.7488    4.4110 H   0  0  0  0  0  0  0  0  0  0  0  0
  1  2  1  0
  2  3  1  0
  2  4  1  0
  4  5  1  0
  5  6  1  0
  6  7  1  0
  7  8  1  0
  8  9  2  0
  8 10  1  0
 10 11  1  0
 11 12  2  0
 11 13  1  0
 13 14  1  0
  7 15  1  0
 15 16  1  0
 16  4  1  0
  1 17  1  0
  1 18  1  0
  1 19  1  0
  2 20  1  0
  3 21  1  0
  3 22  1  0
  3 23  1  0
  4 24  1  0
  5 25  1  0
  5 26  1  0
  6 27  1  0
  6 28  1  0
  7 29  1  0
 10 30  1  0
 13 31  1  0
 13 32  1  0
 14 33  1  0
 14 34  1  0
 15 35  1  0
 15 36  1  0
 16 37  1  0
 16 38  1  0
M  CHG  1   3   1
M  END
>  <EmbedRMS>  (41) 
0.21516401282296155

$$$$

     RDKit          3D

 38 38  0  0  0  0  0  0  0  0999 V2000
   14.0281    7.0397    1.2343 C   0  0  0  0  0  0  0  0  0  0  0  0
   13.6693    8.3364    1.9396 C   0  0  0  0  0  0  0  0  0  0  0  0
   14.6134    8.7687    2.9623 N   0  0  0  0  0  4  0  0  0  0  0  0
   12.1578    8.5899    2.2120 C   0  0  0  0  0  0  0  0  0  0  0  0
   11.2405    7.3772    2.4519 C   0  0  0  0  0  0  0  0  0  0  0  0
    9.7885    7.8243    2.2114 C   0  0  0  0  0  0  0  0  0  0  0  0
    9.4114    8.9838    3.1519 C   0  0  0  0  0  0  0  0  0  0  0  0
    8.0137    9.4644    2.8764 C   0  0  0  0  0  0  0  0  0  0  0  0
    7.6236    9.6755    1.6931 O   0  0  0  0  0  0  0  0  0  0  0  0
    7.1388    9.7055    3.9791 N   0  0  0  0  0  0  0  0  0  0  0  0
    5.7610   10.1385    3.7918 C   0  0  0  0  0  0  0  0  0  0  0  0
    5.0964   10.2807    5.1228 C   0  0  0  0  0  0  0  0  0  0  0  0
    5.2137   11.4974    5.8582 N   0  0  0  0  0  0  0  0  0  0  0  0
    4.4940    9.2972    5.6288 O   0  0  0  0  0  0  0  0  0  0  0  0
   10.4061   10.1586    3.0871 C   0  0  0  0  0  0  0  0  0  0  0  0
   11.8556    9.6808    3.2542 C   0  0  0  0  0  0  0  0  0  0  0  0
   13.3771    6.8823    0.3473 H   0  0  0  0  0  0  0  0  0  0  0  0
   13.9078    6.1867    1.9346 H   0  0  0  0  0  0  0  0  0  0  0  0
   15.0832    7.0603    0.8857 H   0  0  0  0  0  0  0  0  0  0  0  0
   13.8831    9.0582    1.1114 H   0  0  0  0  0  0  0  0  0  0  0  0
   15.5896    8.5022    2.6974 H   0  0  0  0  0  0  0  0  0  0  0  0
   14.3777    8.3021    3.8677 H   0  0  0  0  0  0  0  0  0  0  0  0
   14.5961    9.8060    3.0881 H   0  0  0  0  0  0  0  0  0  0  0  0
   11.8027    9.0089    1.2373 H   0  0  0  0  0  0  0  0  0  0  0  0
   11.3695    6.9868    3.4852 H   0  0  0  0  0  0  0  0  0  0  0  0
   11.4632    6.5568    1.7395 H   0  0  0  0  0  0  0  0  0  0  0  0
    9.6589    8.1233    1.1472 H   0  0  0  0  0  0  0  0  0  0  0  0
    9.1130    6.9617    2.4019 H   0  0  0  0  0  0  0  0  0  0  0  0
    9.4464    8.5784    4.1883 H   0  0  0  0  0  0  0  0  0  0  0  0
    7.5087    9.5678    4.9482 H   0  0  0  0  0  0  0  0  0  0  0  0
    5.7440   11.1125    3.2573 H   0  0  0  0  0  0  0  0  0  0  0  0
    5.2145    9.3890    3.1791 H   0  0  0  0  0  0  0  0  0  0  0  0
    5.7459   12.3067    5.4681 H   0  0  0  0  0  0  0  0  0  0  0  0
    4.7721   11.5883    6.8000 H   0  0  0  0  0  0  0  0  0  0  0  0
   10.1715   10.8883    3.8929 H   0  0  0  0  0  0  0  0  0  0  0  0
   10.3032   10.6869    2.1126 H   0  0  0  0  0  0  0  0  0  0  0  0
   12.5086   10.5642    3.0949 H   0  0  0  0  0  0  0  0  0  0  0  0
   12.0204    9.2949    4.2840 H   0  0  0  0  0  0  0  0  0  0  0  0
  1  2  1  0
  2  3  1  0
  2  4  1  0
  4  5  1  0
  5  6  1  0
  6  7  1  0
  7  8  1  0
  8  9  2  0
  8 10  1  0
 10 11  1  0
 11 12  1  0
 12 13  1  0
 12 14  2  0
  7 15  1  0
 15 16  1  0
 16  4  1  0
  1 17  1  0
  1 18  1  0
  1 19  1  0
  2 20  1  0
  3 21  1  0
  3 22  1  0
  3 23  1  0
  4 24  1  0
  5 25  1  0
  5 26  1  0
  6 27  1  0
  6 28  1  0
  7 29  1  0
 10 30  1  0
 11 31  1  0
 11 32  1  0
 13 33  1  0
 13 34  1  0
 15 35  1  0
 15 36  1  0
 16 37  1  0
 16 38  1  0
M  CHG  1   3   1
M  END
>  <EmbedRMS>  (42) 
0.1933160619529778

$$$$

     RDKit          3D

 35 35  0  0  0  0  0  0  0  0999 V2000
   14.0105    7.0510    1.2527 C   0  0  0  0  0  0  0  0  0  0  0  0
   13.5999    8.3245    1.9901 C   0  0  0  0  0  0  0  0  0  0  0  0
   14.7024    8.8920    2.7692 N   0  0  0  0  0  4  0  0  0  0  0  0
   12.2613    8.3268    2.7688 C   0  0  0  0  0  0  0  0  0  0  0  0
   11.1788    7.4392    2.1371 C   0  0  0  0  0  0  0  0  0  0  0  0
    9.7439    7.7246    2.5496 C   0  0  0  0  0  0  0  0  0  0  0  0
    9.4498    9.2000    2.6478 C   0  0  0  0  0  0  0  0  0  0  0  0
    7.9869    9.5311    2.7175 C   0  0  0  0  0  0  0  0  0  0  0  0
    7.4522    9.7012    1.5983 O   0  0  0  0  0  0  0  0  0  0  0  0
    7.1968    9.6646    3.9188 N   0  0  0  0  0  0  0  0  0  0  0  0
    5.8181   10.1174    3.9117 C   0  0  0  0  0  0  0  0  0  0  0  0
    5.1140   10.4008    2.6965 N   0  0  0  0  0  0  0  0  0  0  0  0
    5.2091   10.2790    5.0025 O   0  0  0  0  0  0  0  0  0  0  0  0
   10.3857   10.0191    3.4908 C   0  0  0  0  0  0  0  0  0  0  0  0
   11.8494    9.7801    3.1254 C   0  0  0  0  0  0  0  0  0  0  0  0
   13.2655    6.7644    0.4823 H   0  0  0  0  0  0  0  0  0  0  0  0
   14.9812    7.1940    0.7318 H   0  0  0  0  0  0  0  0  0  0  0  0
   14.1178    6.2182    1.9791 H   0  0  0  0  0  0  0  0  0  0  0  0
   13.4347    9.0289    1.1417 H   0  0  0  0  0  0  0  0  0  0  0  0
   14.8383    8.3421    3.6482 H   0  0  0  0  0  0  0  0  0  0  0  0
   15.5915    8.8671    2.2188 H   0  0  0  0  0  0  0  0  0  0  0  0
   14.5204    9.8926    3.0069 H   0  0  0  0  0  0  0  0  0  0  0  0
   12.4698    7.8393    3.7479 H   0  0  0  0  0  0  0  0  0  0  0  0
   11.2109    7.5921    1.0361 H   0  0  0  0  0  0  0  0  0  0  0  0
   11.4061    6.3664    2.3247 H   0  0  0  0  0  0  0  0  0  0  0  0
    9.0526    7.2371    1.8259 H   0  0  0  0  0  0  0  0  0  0  0  0
    9.5619    7.2662    3.5461 H   0  0  0  0  0  0  0  0  0  0  0  0
    9.7336    9.5571    1.6259 H   0  0  0  0  0  0  0  0  0  0  0  0
    7.6541    9.4690    4.8372 H   0  0  0  0  0  0  0  0  0  0  0  0
    4.2892   11.0403    2.7286 H   0  0  0  0  0  0  0  0  0  0  0  0
    5.1621    9.7571    1.8783 H   0  0  0  0  0  0  0  0  0  0  0  0
   10.1475   11.1020    3.3945 H   0  0  0  0  0  0  0  0  0  0  0  0
   10.2338    9.7349    4.5549 H   0  0  0  0  0  0  0  0  0  0  0  0
   12.0635   10.4407    2.2563 H   0  0  0  0  0  0  0  0  0  0  0  0
   12.4723   10.1509    3.9684 H   0  0  0  0  0  0  0  0  0  0  0  0
  1  2  1  0
  2  3  1  0
  2  4  1  0
  4  5  1  0
  5  6  1  0
  6  7  1  0
  7  8  1  0
  8  9  2  0
  8 10  1  0
 10 11  1  0
 11 12  1  0
 11 13  2  0
  7 14  1  0
 14 15  1  0
 15  4  1  0
  1 16  1  0
  1 17  1  0
  1 18  1  0
  2 19  1  0
  3 20  1  0
  3 21  1  0
  3 22  1  0
  4 23  1  0
  5 24  1  0
  5 25  1  0
  6 26  1  0
  6 27  1  0
  7 28  1  0
 10 29  1  0
 12 30  1  0
 12 31  1  0
 14 32  1  0
 14 33  1  0
 15 34  1  0
 15 35  1  0
M  CHG  1   3   1
M  END
>  <EmbedRMS>  (43) 
0.3207721569004263

$$$$

     RDKit          3D

 38 38  0  0  0  0  0  0  0  0999 V2000
   14.0281    7.0397    1.2343 C   0  0  0  0  0  0  0  0  0  0  0  0
   13.6693    8.3364    1.9396 C   0  0  0  0  0  0  0  0  0  0  0  0
   14.6134    8.7687    2.9623 N   0  0  0  0  0  4  0  0  0  0  0  0
   12.1578    8.5899    2.2120 C   0  0  0  0  0  0  0  0  0  0  0  0
   11.2405    7.3772    2.4519 C   0  0  0  0  0  0  0  0  0  0  0  0
    9.7885    7.8243    2.2114 C   0  0  0  0  0  0  0  0  0  0  0  0
    9.4114    8.9838    3.1519 C   0  0  0  0  0  0  0  0  0  0  0  0
    8.0137    9.4644    2.8764 C   0  0  0  0  0  0  0  0  0  0  0  0
    7.6236    9.6755    1.6931 O   0  0  0  0  0  0  0  0  0  0  0  0
    7.1388    9.7055    3.9791 N   0  0  0  0  0  0  0  0  0  0  0  0
    5.7610   10.1385    3.7918 C   0  0  0  0  0  0  0  0  0  0  0  0
    5.0964   10.2807    5.1228 C   0  0  0  0  0  0  0  0  0  0  0  0
    5.2137   11.4974    5.8582 N   0  0  0  0  0  0  0  0  0  0  0  0
    4.4940    9.2972    5.6288 O   0  0  0  0  0  0  0  0  0  0  0  0
   10.4061   10.1586    3.0871 C   0  0  0  0  0  0  0  0  0  0  0  0
   11.8556    9.6808    3.2542 C   0  0  0  0  0  0  0  0  0  0  0  0
   13.3771    6.8823    0.3473 H   0  0  0  0  0  0  0  0  0  0  0  0
   13.9078    6.1867    1.9346 H   0  0  0  0  0  0  0  0  0  0  0  0
   15.0832    7.0603    0.8857 H   0  0  0  0  0  0  0  0  0  0  0  0
   13.8831    9.0582    1.1114 H   0  0  0  0  0  0  0  0  0  0  0  0
   15.5896    8.5022    2.6974 H   0  0  0  0  0  0  0  0  0  0  0  0
   14.3777    8.3021    3.8677 H   0  0  0  0  0  0  0  0  0  0  0  0
   14.5961    9.8060    3.0881 H   0  0  0  0  0  0  0  0  0  0  0  0
   11.8027    9.0089    1.2373 H   0  0  0  0  0  0  0  0  0  0  0  0
   11.3695    6.9868    3.4852 H   0  0  0  0  0  0  0  0  0  0  0  0
   11.4632    6.5568    1.7395 H   0  0  0  0  0  0  0  0  0  0  0  0
    9.6589    8.1233    1.1472 H   0  0  0  0  0  0  0  0  0  0  0  0
    9.1130    6.9617    2.4019 H   0  0  0  0  0  0  0  0  0  0  0  0
    9.4464    8.5784    4.1883 H   0  0  0  0  0  0  0  0  0  0  0  0
    7.5087    9.5678    4.9482 H   0  0  0  0  0  0  0  0  0  0  0  0
    5.7440   11.1125    3.2573 H   0  0  0  0  0  0  0  0  0  0  0  0
    5.2145    9.3890    3.1791 H   0  0  0  0  0  0  0  0  0  0  0  0
    5.7459   12.3067    5.4681 H   0  0  0  0  0  0  0  0  0  0  0  0
    4.7721   11.5883    6.8000 H   0  0  0  0  0  0  0  0  0  0  0  0
   10.1715   10.8883    3.8929 H   0  0  0  0  0  0  0  0  0  0  0  0
   10.3032   10.6869    2.1126 H   0  0  0  0  0  0  0  0  0  0  0  0
   12.5086   10.5642    3.0949 H   0  0  0  0  0  0  0  0  0  0  0  0
   12.0204    9.2949    4.2840 H   0  0  0  0  0  0  0  0  0  0  0  0
  1  2  1  0
  2  3  1  0
  2  4  1  0
  4  5  1  0
  5  6  1  0
  6  7  1  0
  7  8  1  0
  8  9  2  0
  8 10  1  0
 10 11  1  0
 11 12  1  0
 12 13  1  0
 12 14  2  0
  7 15  1  0
 15 16  1  0
 16  4  1  0
  1 17  1  0
  1 18  1  0
  1 19  1  0
  2 20  1  0
  3 21  1  0
  3 22  1  0
  3 23  1  0
  4 24  1  0
  5 25  1  0
  5 26  1  0
  6 27  1  0
  6 28  1  0
  7 29  1  0
 10 30  1  0
 11 31  1  0
 11 32  1  0
 13 33  1  0
 13 34  1  0
 15 35  1  0
 15 36  1  0
 16 37  1  0
 16 38  1  0
M  CHG  1   3   1
M  END
>  <EmbedRMS>  (44) 
0.1933160619529778

$$$$

     RDKit          3D

 41 41  0  0  0  0  0  0  0  0999 V2000
    6.2087   12.5260    4.6401 C   0  0  0  0  0  0  0  0  0  0  0  0
    5.7640   11.6400    3.4758 C   0  0  0  0  0  0  0  0  0  0  0  0
    4.4679   11.9935    3.0646 O   0  0  0  0  0  0  0  0  0  0  0  0
    5.8328   10.1467    3.8641 C   0  0  0  0  0  0  0  0  0  0  0  0
    7.2282    9.6850    3.9299 N   0  0  0  0  0  0  0  0  0  0  0  0
    7.9894    9.5239    2.7207 C   0  0  0  0  0  0  0  0  0  0  0  0
    7.4161    9.6728    1.6144 O   0  0  0  0  0  0  0  0  0  0  0  0
    9.4505    9.2009    2.6353 C   0  0  0  0  0  0  0  0  0  0  0  0
    9.7454    7.7255    2.5443 C   0  0  0  0  0  0  0  0  0  0  0  0
   11.1802    7.4393    2.1347 C   0  0  0  0  0  0  0  0  0  0  0  0
   12.2615    8.3272    2.7673 C   0  0  0  0  0  0  0  0  0  0  0  0
   13.6008    8.3246    1.9898 C   0  0  0  0  0  0  0  0  0  0  0  0
   14.0116    7.0508    1.2528 C   0  0  0  0  0  0  0  0  0  0  0  0
   14.7027    8.8918    2.7697 N   0  0  0  0  0  4  0  0  0  0  0  0
   11.8490    9.7807    3.1221 C   0  0  0  0  0  0  0  0  0  0  0  0
   10.3844   10.0198    3.4822 C   0  0  0  0  0  0  0  0  0  0  0  0
    7.2594   12.2967    4.9190 H   0  0  0  0  0  0  0  0  0  0  0  0
    5.5569   12.3697    5.5263 H   0  0  0  0  0  0  0  0  0  0  0  0
    6.1519   13.5941    4.3412 H   0  0  0  0  0  0  0  0  0  0  0  0
    6.4447   11.8349    2.6207 H   0  0  0  0  0  0  0  0  0  0  0  0
    3.8513   11.8005    3.8192 H   0  0  0  0  0  0  0  0  0  0  0  0
    5.3439    9.9870    4.8501 H   0  0  0  0  0  0  0  0  0  0  0  0
    5.2758    9.5353    3.1209 H   0  0  0  0  0  0  0  0  0  0  0  0
    7.6600    9.4551    4.8526 H   0  0  0  0  0  0  0  0  0  0  0  0
    9.7227    9.5597    1.6116 H   0  0  0  0  0  0  0  0  0  0  0  0
    9.0553    7.2345    1.8218 H   0  0  0  0  0  0  0  0  0  0  0  0
    9.5627    7.2709    3.5425 H   0  0  0  0  0  0  0  0  0  0  0  0
   11.2138    7.5913    1.0337 H   0  0  0  0  0  0  0  0  0  0  0  0
   11.4070    6.3666    2.3237 H   0  0  0  0  0  0  0  0  0  0  0  0
   12.4690    7.8404    3.7470 H   0  0  0  0  0  0  0  0  0  0  0  0
   13.4366    9.0289    1.1411 H   0  0  0  0  0  0  0  0  0  0  0  0
   14.9834    7.1931    0.7338 H   0  0  0  0  0  0  0  0  0  0  0  0
   14.1169    6.2178    1.9792 H   0  0  0  0  0  0  0  0  0  0  0  0
   13.2679    6.7650    0.4809 H   0  0  0  0  0  0  0  0  0  0  0  0
   14.8391    8.3407    3.6478 H   0  0  0  0  0  0  0  0  0  0  0  0
   14.5198    9.8920    3.0090 H   0  0  0  0  0  0  0  0  0  0  0  0
   15.5918    8.8686    2.2192 H   0  0  0  0  0  0  0  0  0  0  0  0
   12.4693   10.1517    3.9669 H   0  0  0  0  0  0  0  0  0  0  0  0
   12.0657   10.4410    2.2534 H   0  0  0  0  0  0  0  0  0  0  0  0
   10.2293    9.7359    4.5458 H   0  0  0  0  0  0  0  0  0  0  0  0
   10.1463   11.1028    3.3851 H   0  0  0  0  0  0  0  0  0  0  0  0
  1  2  1  0
  2  3  1  0
  2  4  1  0
  4  5  1  0
  5  6  1  0
  6  7  2  0
  6  8  1  0
  8  9  1  0
  9 10  1  0
 10 11  1  0
 11 12  1  0
 12 13  1  0
 12 14  1  0
 11 15  1  0
 15 16  1  0
 16  8  1  0
  1 17  1  0
  1 18  1  0
  1 19  1  0
  2 20  1  0
  3 21  1  0
  4 22  1  0
  4 23  1  0
  5 24  1  0
  8 25  1  0
  9 26  1  0
  9 27  1  0
 10 28  1  0
 10 29  1  0
 11 30  1  0
 12 31  1  0
 13 32  1  0
 13 33  1  0
 13 34  1  0
 14 35  1  0
 14 36  1  0
 14 37  1  0
 15 38  1  0
 15 39  1  0
 16 40  1  0
 16 41  1  0
M  CHG  1  14   1
M  END
>  <EmbedRMS>  (45) 
0.3113970459893027

$$$$

     RDKit          3D

 38 38  0  0  0  0  0  0  0  0999 V2000
   14.0281    7.0397    1.2343 C   0  0  0  0  0  0  0  0  0  0  0  0
   13.6693    8.3364    1.9396 C   0  0  0  0  0  0  0  0  0  0  0  0
   14.6134    8.7687    2.9623 N   0  0  0  0  0  4  0  0  0  0  0  0
   12.1578    8.5899    2.2120 C   0  0  0  0  0  0  0  0  0  0  0  0
   11.2405    7.3772    2.4519 C   0  0  0  0  0  0  0  0  0  0  0  0
    9.7885    7.8243    2.2114 C   0  0  0  0  0  0  0  0  0  0  0  0
    9.4114    8.9838    3.1519 C   0  0  0  0  0  0  0  0  0  0  0  0
    8.0137    9.4644    2.8764 C   0  0  0  0  0  0  0  0  0  0  0  0
    7.6236    9.6755    1.6931 O   0  0  0  0  0  0  0  0  0  0  0  0
    7.1388    9.7055    3.9791 N   0  0  0  0  0  0  0  0  0  0  0  0
    5.7610   10.1385    3.7918 C   0  0  0  0  0  0  0  0  0  0  0  0
    5.0964   10.2807    5.1228 C   0  0  0  0  0  0  0  0  0  0  0  0
    5.2137   11.4974    5.8582 N   0  0  0  0  0  0  0  0  0  0  0  0
    4.4940    9.2972    5.6288 O   0  0  0  0  0  0  0  0  0  0  0  0
   10.4061   10.1586    3.0871 C   0  0  0  0  0  0  0  0  0  0  0  0
   11.8556    9.6808    3.2542 C   0  0  0  0  0  0  0  0  0  0  0  0
   13.3771    6.8823    0.3473 H   0  0  0  0  0  0  0  0  0  0  0  0
   13.9078    6.1867    1.9346 H   0  0  0  0  0  0  0  0  0  0  0  0
   15.0832    7.0603    0.8857 H   0  0  0  0  0  0  0  0  0  0  0  0
   13.8831    9.0582    1.1114 H   0  0  0  0  0  0  0  0  0  0  0  0
   15.5896    8.5022    2.6974 H   0  0  0  0  0  0  0  0  0  0  0  0
   14.3777    8.3021    3.8677 H   0  0  0  0  0  0  0  0  0  0  0  0
   14.5961    9.8060    3.0881 H   0  0  0  0  0  0  0  0  0  0  0  0
   11.8027    9.0089    1.2373 H   0  0  0  0  0  0  0  0  0  0  0  0
   11.3695    6.9868    3.4852 H   0  0  0  0  0  0  0  0  0  0  0  0
   11.4632    6.5568    1.7395 H   0  0  0  0  0  0  0  0  0  0  0  0
    9.6589    8.1233    1.1472 H   0  0  0  0  0  0  0  0  0  0  0  0
    9.1130    6.9617    2.4019 H   0  0  0  0  0  0  0  0  0  0  0  0
    9.4464    8.5784    4.1883 H   0  0  0  0  0  0  0  0  0  0  0  0
    7.5087    9.5678    4.9482 H   0  0  0  0  0  0  0  0  0  0  0  0
    5.7440   11.1125    3.2573 H   0  0  0  0  0  0  0  0  0  0  0  0
    5.2145    9.3890    3.1791 H   0  0  0  0  0  0  0  0  0  0  0  0
    5.7459   12.3067    5.4681 H   0  0  0  0  0  0  0  0  0  0  0  0
    4.7721   11.5883    6.8000 H   0  0  0  0  0  0  0  0  0  0  0  0
   10.1715   10.8883    3.8929 H   0  0  0  0  0  0  0  0  0  0  0  0
   10.3032   10.6869    2.1126 H   0  0  0  0  0  0  0  0  0  0  0  0
   12.5086   10.5642    3.0949 H   0  0  0  0  0  0  0  0  0  0  0  0
   12.0204    9.2949    4.2840 H   0  0  0  0  0  0  0  0  0  0  0  0
  1  2  1  0
  2  3  1  0
  2  4  1  0
  4  5  1  0
  5  6  1  0
  6  7  1  0
  7  8  1  0
  8  9  2  0
  8 10  1  0
 10 11  1  0
 11 12  1  0
 12 13  1  0
 12 14  2  0
  7 15  1  0
 15 16  1  0
 16  4  1  0
  1 17  1  0
  1 18  1  0
  1 19  1  0
  2 20  1  0
  3 21  1  0
  3 22  1  0
  3 23  1  0
  4 24  1  0
  5 25  1  0
  5 26  1  0
  6 27  1  0
  6 28  1  0
  7 29  1  0
 10 30  1  0
 11 31  1  0
 11 32  1  0
 13 33  1  0
 13 34  1  0
 15 35  1  0
 15 36  1  0
 16 37  1  0
 16 38  1  0
M  CHG  1   3   1
M  END
>  <EmbedRMS>  (46) 
0.1933160619529778

$$$$

     RDKit          3D

 38 38  0  0  0  0  0  0  0  0999 V2000
   14.0485    7.2193    1.1052 C   0  0  0  0  0  0  0  0  0  0  0  0
   13.6494    7.9557    2.3993 C   0  0  0  0  0  0  0  0  0  0  0  0
   14.6287    9.0157    2.6714 N   0  0  0  0  0  4  0  0  0  0  0  0
   12.1999    8.5121    2.2739 C   0  0  0  0  0  0  0  0  0  0  0  0
   11.1802    7.3659    2.4359 C   0  0  0  0  0  0  0  0  0  0  0  0
    9.7714    7.8716    2.1578 C   0  0  0  0  0  0  0  0  0  0  0  0
    9.4086    8.9939    3.1360 C   0  0  0  0  0  0  0  0  0  0  0  0
    8.0119    9.4795    2.8745 C   0  0  0  0  0  0  0  0  0  0  0  0
    7.6187    9.6893    1.6921 O   0  0  0  0  0  0  0  0  0  0  0  0
    7.1292    9.6965    3.9807 N   0  0  0  0  0  0  0  0  0  0  0  0
    5.7624   10.1694    3.8094 C   0  0  0  0  0  0  0  0  0  0  0  0
    5.7587   11.6573    3.4724 C   0  0  0  0  0  0  0  0  0  0  0  0
    4.4421   12.1064    3.3200 O   0  0  0  0  0  0  0  0  0  0  0  0
   10.4229   10.1485    3.0671 C   0  0  0  0  0  0  0  0  0  0  0  0
   11.8582    9.6379    3.2816 C   0  0  0  0  0  0  0  0  0  0  0  0
   15.0958    6.8574    1.1814 H   0  0  0  0  0  0  0  0  0  0  0  0
   13.9784    7.8974    0.2278 H   0  0  0  0  0  0  0  0  0  0  0  0
   13.4173    6.3269    0.9275 H   0  0  0  0  0  0  0  0  0  0  0  0
   13.6910    7.2251    3.2394 H   0  0  0  0  0  0  0  0  0  0  0  0
   14.4960    9.3935    3.6370 H   0  0  0  0  0  0  0  0  0  0  0  0
   15.6002    8.6298    2.6308 H   0  0  0  0  0  0  0  0  0  0  0  0
   14.5433    9.7863    1.9687 H   0  0  0  0  0  0  0  0  0  0  0  0
   12.0876    8.9473    1.2540 H   0  0  0  0  0  0  0  0  0  0  0  0
   11.2347    6.9393    3.4625 H   0  0  0  0  0  0  0  0  0  0  0  0
   11.3816    6.5452    1.7192 H   0  0  0  0  0  0  0  0  0  0  0  0
    9.0563    7.0278    2.2771 H   0  0  0  0  0  0  0  0  0  0  0  0
    9.7089    8.2307    1.1059 H   0  0  0  0  0  0  0  0  0  0  0  0
    9.4455    8.5679    4.1642 H   0  0  0  0  0  0  0  0  0  0  0  0
    7.4525    9.4673    4.9477 H   0  0  0  0  0  0  0  0  0  0  0  0
    5.2572    9.5890    3.0069 H   0  0  0  0  0  0  0  0  0  0  0  0
    5.2000   10.0100    4.7552 H   0  0  0  0  0  0  0  0  0  0  0  0
    6.2767   12.2336    4.2730 H   0  0  0  0  0  0  0  0  0  0  0  0
    6.3008   11.8316    2.5198 H   0  0  0  0  0  0  0  0  0  0  0  0
    4.0707   12.2170    4.2342 H   0  0  0  0  0  0  0  0  0  0  0  0
   10.3565   10.6518    2.0766 H   0  0  0  0  0  0  0  0  0  0  0  0
   10.1846   10.9008    3.8506 H   0  0  0  0  0  0  0  0  0  0  0  0
   12.5372   10.5052    3.1416 H   0  0  0  0  0  0  0  0  0  0  0  0
   11.9739    9.2660    4.3236 H   0  0  0  0  0  0  0  0  0  0  0  0
  1  2  1  0
  2  3  1  0
  2  4  1  0
  4  5  1  0
  5  6  1  0
  6  7  1  0
  7  8  1  0
  8  9  2  0
  8 10  1  0
 10 11  1  0
 11 12  1  0
 12 13  1  0
  7 14  1  0
 14 15  1  0
 15  4  1  0
  1 16  1  0
  1 17  1  0
  1 18  1  0
  2 19  1  0
  3 20  1  0
  3 21  1  0
  3 22  1  0
  4 23  1  0
  5 24  1  0
  5 25  1  0
  6 26  1  0
  6 27  1  0
  7 28  1  0
 10 29  1  0
 11 30  1  0
 11 31  1  0
 12 32  1  0
 12 33  1  0
 13 34  1  0
 14 35  1  0
 14 36  1  0
 15 37  1  0
 15 38  1  0
M  CHG  1   3   1
M  END
>  <EmbedRMS>  (47) 
0.031392693704421666

$$$$

     RDKit          3D

 38 38  0  0  0  0  0  0  0  0999 V2000
    5.2767   11.7508    3.8655 C   0  0  0  0  0  0  0  0  0  0  0  0
    5.8526   10.3826    3.7897 C   0  0  0  0  0  0  0  0  0  0  0  0
    4.9856    9.4480    4.0852 N   0  0  0  0  0  0  0  0  0  0  0  0
    5.0270    8.0988    4.3329 O   0  0  0  0  0  0  0  0  0  0  0  0
    7.2290   10.3043    3.3242 N   0  0  0  0  0  0  0  0  0  0  0  0
    7.9669    9.1170    3.0910 C   0  0  0  0  0  0  0  0  0  0  0  0
    7.3750    8.0241    3.1531 O   0  0  0  0  0  0  0  0  0  0  0  0
    9.4467    9.0377    2.8719 C   0  0  0  0  0  0  0  0  0  0  0  0
    9.8015    8.2962    1.5879 C   0  0  0  0  0  0  0  0  0  0  0  0
   11.2762    8.3693    1.2177 C   0  0  0  0  0  0  0  0  0  0  0  0
   12.1800    8.4320    2.4601 C   0  0  0  0  0  0  0  0  0  0  0  0
   13.6822    8.2545    2.0616 C   0  0  0  0  0  0  0  0  0  0  0  0
   13.9734    6.8202    1.5672 C   0  0  0  0  0  0  0  0  0  0  0  0
   14.5871    8.5792    3.1759 N   0  0  0  0  0  4  0  0  0  0  0  0
   11.8925    9.7573    3.2267 C   0  0  0  0  0  0  0  0  0  0  0  0
   10.3865   10.1117    3.4018 C   0  0  0  0  0  0  0  0  0  0  0  0
    4.3619   11.7810    4.4980 H   0  0  0  0  0  0  0  0  0  0  0  0
    6.0158   12.4517    4.3081 H   0  0  0  0  0  0  0  0  0  0  0  0
    5.0175   12.0982    2.8435 H   0  0  0  0  0  0  0  0  0  0  0  0
    5.8160    7.6715    4.7989 H   0  0  0  0  0  0  0  0  0  0  0  0
    7.7357   11.2037    3.1635 H   0  0  0  0  0  0  0  0  0  0  0  0
    9.6938    8.2533    3.6285 H   0  0  0  0  0  0  0  0  0  0  0  0
    9.5027    7.2257    1.6739 H   0  0  0  0  0  0  0  0  0  0  0  0
    9.2135    8.7258    0.7469 H   0  0  0  0  0  0  0  0  0  0  0  0
   11.5009    7.4879    0.5861 H   0  0  0  0  0  0  0  0  0  0  0  0
   11.4535    9.2739    0.5937 H   0  0  0  0  0  0  0  0  0  0  0  0
   11.9123    7.5878    3.1352 H   0  0  0  0  0  0  0  0  0  0  0  0
   13.9100    8.9512    1.2227 H   0  0  0  0  0  0  0  0  0  0  0  0
   15.0649    6.6770    1.4202 H   0  0  0  0  0  0  0  0  0  0  0  0
   13.5001    6.6218    0.5856 H   0  0  0  0  0  0  0  0  0  0  0  0
   13.6201    6.0707    2.3070 H   0  0  0  0  0  0  0  0  0  0  0  0
   15.5770    8.3619    2.9172 H   0  0  0  0  0  0  0  0  0  0  0  0
   14.3294    8.0283    4.0272 H   0  0  0  0  0  0  0  0  0  0  0  0
   14.5490    9.6009    3.3918 H   0  0  0  0  0  0  0  0  0  0  0  0
   12.3929   10.5986    2.6979 H   0  0  0  0  0  0  0  0  0  0  0  0
   12.3469    9.6892    4.2388 H   0  0  0  0  0  0  0  0  0  0  0  0
   10.1663   10.3178    4.4736 H   0  0  0  0  0  0  0  0  0  0  0  0
   10.1781   11.0491    2.8424 H   0  0  0  0  0  0  0  0  0  0  0  0
  1  2  1  0
  2  3  2  3
  3  4  1  0
  2  5  1  0
  5  6  1  0
  6  7  2  0
  6  8  1  0
  8  9  1  0
  9 10  1  0
 10 11  1  0
 11 12  1  0
 12 13  1  0
 12 14  1  0
 11 15  1  0
 15 16  1  0
 16  8  1  0
  1 17  1  0
  1 18  1  0
  1 19  1  0
  4 20  1  0
  5 21  1  0
  8 22  1  0
  9 23  1  0
  9 24  1  0
 10 25  1  0
 10 26  1  0
 11 27  1  0
 12 28  1  0
 13 29  1  0
 13 30  1  0
 13 31  1  0
 14 32  1  0
 14 33  1  0
 14 34  1  0
 15 35  1  0
 15 36  1  0
 16 37  1  0
 16 38  1  0
M  CHG  1  14   1
M  END
>  <EmbedRMS>  (48) 
0.2631713948660253

$$$$

     RDKit          3D

 41 41  0  0  0  0  0  0  0  0999 V2000
   14.0112    7.0502    1.2530 C   0  0  0  0  0  0  0  0  0  0  0  0
   13.6006    8.3242    1.9896 C   0  0  0  0  0  0  0  0  0  0  0  0
   14.7025    8.8915    2.7695 N   0  0  0  0  0  4  0  0  0  0  0  0
   12.2611    8.3275    2.7668 C   0  0  0  0  0  0  0  0  0  0  0  0
   11.1789    7.4405    2.1342 C   0  0  0  0  0  0  0  0  0  0  0  0
    9.7438    7.7286    2.5427 C   0  0  0  0  0  0  0  0  0  0  0  0
    9.4497    9.2048    2.6337 C   0  0  0  0  0  0  0  0  0  0  0  0
    7.9879    9.5295    2.7214 C   0  0  0  0  0  0  0  0  0  0  0  0
    7.4128    9.6770    1.6163 O   0  0  0  0  0  0  0  0  0  0  0  0
    7.2353    9.7042    3.9341 N   0  0  0  0  0  0  0  0  0  0  0  0
    5.8340   10.1508    3.8938 C   0  0  0  0  0  0  0  0  0  0  0  0
    5.7099   11.6592    4.1550 C   0  0  0  0  0  0  0  0  0  0  0  0
    6.2760   12.5224    3.0236 C   0  0  0  0  0  0  0  0  0  0  0  0
    7.6715   12.5833    3.1173 O   0  0  0  0  0  0  0  0  0  0  0  0
   10.3857   10.0213    3.4811 C   0  0  0  0  0  0  0  0  0  0  0  0
   11.8496    9.7812    3.1206 C   0  0  0  0  0  0  0  0  0  0  0  0
   14.1168    6.2176    1.9797 H   0  0  0  0  0  0  0  0  0  0  0  0
   13.2672    6.7640    0.4815 H   0  0  0  0  0  0  0  0  0  0  0  0
   14.9828    7.1924    0.7335 H   0  0  0  0  0  0  0  0  0  0  0  0
   13.4368    9.0282    1.1406 H   0  0  0  0  0  0  0  0  0  0  0  0
   14.8376    8.3417    3.6487 H   0  0  0  0  0  0  0  0  0  0  0  0
   14.5205    9.8923    3.0071 H   0  0  0  0  0  0  0  0  0  0  0  0
   15.5921    8.8665    2.2199 H   0  0  0  0  0  0  0  0  0  0  0  0
   12.4679    7.8409    3.7467 H   0  0  0  0  0  0  0  0  0  0  0  0
   11.2133    7.5919    1.0331 H   0  0  0  0  0  0  0  0  0  0  0  0
   11.4044    6.3677    2.3239 H   0  0  0  0  0  0  0  0  0  0  0  0
    9.5597    7.2741    3.5407 H   0  0  0  0  0  0  0  0  0  0  0  0
    9.0536    7.2385    1.8196 H   0  0  0  0  0  0  0  0  0  0  0  0
    9.7211    9.5640    1.6100 H   0  0  0  0  0  0  0  0  0  0  0  0
    7.7202    9.6263    4.8558 H   0  0  0  0  0  0  0  0  0  0  0  0
    5.2756    9.6127    4.6895 H   0  0  0  0  0  0  0  0  0  0  0  0
    5.3471    9.8825    2.9314 H   0  0  0  0  0  0  0  0  0  0  0  0
    6.2064   11.9192    5.1154 H   0  0  0  0  0  0  0  0  0  0  0  0
    4.6296   11.8978    4.2654 H   0  0  0  0  0  0  0  0  0  0  0  0
    5.8625   13.5509    3.1198 H   0  0  0  0  0  0  0  0  0  0  0  0
    5.9690   12.1143    2.0344 H   0  0  0  0  0  0  0  0  0  0  0  0
    7.9776   13.1131    2.3361 H   0  0  0  0  0  0  0  0  0  0  0  0
   10.2319    9.7363    4.5446 H   0  0  0  0  0  0  0  0  0  0  0  0
   10.1501   11.1047    3.3855 H   0  0  0  0  0  0  0  0  0  0  0  0
   12.0661   10.4408    2.2513 H   0  0  0  0  0  0  0  0  0  0  0  0
   12.4705   10.1525    3.9649 H   0  0  0  0  0  0  0  0  0  0  0  0
  1  2  1  0
  2  3  1  0
  2  4  1  0
  4  5  1  0
  5  6  1  0
  6  7  1  0
  7  8  1  0
  8  9  2  0
  8 10  1  0
 10 11  1  0
 11 12  1  0
 12 13  1  0
 13 14  1  0
  7 15  1  0
 15 16  1  0
 16  4  1  0
  1 17  1  0
  1 18  1  0
  1 19  1  0
  2 20  1  0
  3 21  1  0
  3 22  1  0
  3 23  1  0
  4 24  1  0
  5 25  1  0
  5 26  1  0
  6 27  1  0
  6 28  1  0
  7 29  1  0
 10 30  1  0
 11 31  1  0
 11 32  1  0
 12 33  1  0
 12 34  1  0
 13 35  1  0
 13 36  1  0
 14 37  1  0
 15 38  1  0
 15 39  1  0
 16 40  1  0
 16 41  1  0
M  CHG  1   3   1
M  END
>  <EmbedRMS>  (49) 
0.31188721664002633

$$$$

     RDKit          3D

 38 38  0  0  0  0  0  0  0  0999 V2000
   14.0281    7.0397    1.2343 C   0  0  0  0  0  0  0  0  0  0  0  0
   13.6693    8.3364    1.9396 C   0  0  0  0  0  0  0  0  0  0  0  0
   14.6134    8.7687    2.9623 N   0  0  0  0  0  4  0  0  0  0  0  0
   12.1578    8.5899    2.2120 C   0  0  0  0  0  0  0  0  0  0  0  0
   11.2405    7.3772    2.4519 C   0  0  0  0  0  0  0  0  0  0  0  0
    9.7885    7.8243    2.2114 C   0  0  0  0  0  0  0  0  0  0  0  0
    9.4114    8.9838    3.1519 C   0  0  0  0  0  0  0  0  0  0  0  0
    8.0137    9.4644    2.8764 C   0  0  0  0  0  0  0  0  0  0  0  0
    7.6236    9.6755    1.6931 O   0  0  0  0  0  0  0  0  0  0  0  0
    7.1388    9.7055    3.9791 N   0  0  0  0  0  0  0  0  0  0  0  0
    5.7610   10.1385    3.7918 C   0  0  0  0  0  0  0  0  0  0  0  0
    5.0964   10.2807    5.1228 C   0  0  0  0  0  0  0  0  0  0  0  0
    5.2137   11.4974    5.8582 N   0  0  0  0  0  0  0  0  0  0  0  0
    4.4940    9.2972    5.6288 O   0  0  0  0  0  0  0  0  0  0  0  0
   10.4061   10.1586    3.0871 C   0  0  0  0  0  0  0  0  0  0  0  0
   11.8556    9.6808    3.2542 C   0  0  0  0  0  0  0  0  0  0  0  0
   13.3771    6.8823    0.3473 H   0  0  0  0  0  0  0  0  0  0  0  0
   13.9078    6.1867    1.9346 H   0  0  0  0  0  0  0  0  0  0  0  0
   15.0832    7.0603    0.8857 H   0  0  0  0  0  0  0  0  0  0  0  0
   13.8831    9.0582    1.1114 H   0  0  0  0  0  0  0  0  0  0  0  0
   15.5896    8.5022    2.6974 H   0  0  0  0  0  0  0  0  0  0  0  0
   14.3777    8.3021    3.8677 H   0  0  0  0  0  0  0  0  0  0  0  0
   14.5961    9.8060    3.0881 H   0  0  0  0  0  0  0  0  0  0  0  0
   11.8027    9.0089    1.2373 H   0  0  0  0  0  0  0  0  0  0  0  0
   11.3695    6.9868    3.4852 H   0  0  0  0  0  0  0  0  0  0  0  0
   11.4632    6.5568    1.7395 H   0  0  0  0  0  0  0  0  0  0  0  0
    9.6589    8.1233    1.1472 H   0  0  0  0  0  0  0  0  0  0  0  0
    9.1130    6.9617    2.4019 H   0  0  0  0  0  0  0  0  0  0  0  0
    9.4464    8.5784    4.1883 H   0  0  0  0  0  0  0  0  0  0  0  0
    7.5087    9.5678    4.9482 H   0  0  0  0  0  0  0  0  0  0  0  0
    5.7440   11.1125    3.2573 H   0  0  0  0  0  0  0  0  0  0  0  0
    5.2145    9.3890    3.1791 H   0  0  0  0  0  0  0  0  0  0  0  0
    5.7459   12.3067    5.4681 H   0  0  0  0  0  0  0  0  0  0  0  0
    4.7721   11.5883    6.8000 H   0  0  0  0  0  0  0  0  0  0  0  0
   10.1715   10.8883    3.8929 H   0  0  0  0  0  0  0  0  0  0  0  0
   10.3032   10.6869    2.1126 H   0  0  0  0  0  0  0  0  0  0  0  0
   12.5086   10.5642    3.0949 H   0  0  0  0  0  0  0  0  0  0  0  0
   12.0204    9.2949    4.2840 H   0  0  0  0  0  0  0  0  0  0  0  0
  1  2  1  0
  2  3  1  0
  2  4  1  0
  4  5  1  0
  5  6  1  0
  6  7  1  0
  7  8  1  0
  8  9  2  0
  8 10  1  0
 10 11  1  0
 11 12  1  0
 12 13  1  0
 12 14  2  0
  7 15  1  0
 15 16  1  0
 16  4  1  0
  1 17  1  0
  1 18  1  0
  1 19  1  0
  2 20  1  0
  3 21  1  0
  3 22  1  0
  3 23  1  0
  4 24  1  0
  5 25  1  0
  5 26  1  0
  6 27  1  0
  6 28  1  0
  7 29  1  0
 10 30  1  0
 11 31  1  0
 11 32  1  0
 13 33  1  0
 13 34  1  0
 15 35  1  0
 15 36  1  0
 16 37  1  0
 16 38  1  0
M  CHG  1   3   1
M  END
>  <EmbedRMS>  (50) 
0.1933160619529778

$$$$

     RDKit          3D

 35 35  0  0  0  0  0  0  0  0999 V2000
   14.0105    7.0510    1.2527 C   0  0  0  0  0  0  0  0  0  0  0  0
   13.5999    8.3245    1.9901 C   0  0  0  0  0  0  0  0  0  0  0  0
   14.7024    8.8920    2.7692 N   0  0  0  0  0  4  0  0  0  0  0  0
   12.2613    8.3268    2.7688 C   0  0  0  0  0  0  0  0  0  0  0  0
   11.1788    7.4392    2.1371 C   0  0  0  0  0  0  0  0  0  0  0  0
    9.7439    7.7246    2.5496 C   0  0  0  0  0  0  0  0  0  0  0  0
    9.4498    9.2000    2.6478 C   0  0  0  0  0  0  0  0  0  0  0  0
    7.9869    9.5311    2.7175 C   0  0  0  0  0  0  0  0  0  0  0  0
    7.4522    9.7012    1.5983 O   0  0  0  0  0  0  0  0  0  0  0  0
    7.1968    9.6646    3.9188 N   0  0  0  0  0  0  0  0  0  0  0  0
    5.8181   10.1174    3.9117 C   0  0  0  0  0  0  0  0  0  0  0  0
    5.1140   10.4008    2.6965 N   0  0  0  0  0  0  0  0  0  0  0  0
    5.2091   10.2790    5.0025 O   0  0  0  0  0  0  0  0  0  0  0  0
   10.3857   10.0191    3.4908 C   0  0  0  0  0  0  0  0  0  0  0  0
   11.8494    9.7801    3.1254 C   0  0  0  0  0  0  0  0  0  0  0  0
   13.2655    6.7644    0.4823 H   0  0  0  0  0  0  0  0  0  0  0  0
   14.9812    7.1940    0.7318 H   0  0  0  0  0  0  0  0  0  0  0  0
   14.1178    6.2182    1.9791 H   0  0  0  0  0  0  0  0  0  0  0  0
   13.4347    9.0289    1.1417 H   0  0  0  0  0  0  0  0  0  0  0  0
   14.8383    8.3421    3.6482 H   0  0  0  0  0  0  0  0  0  0  0  0
   15.5915    8.8671    2.2188 H   0  0  0  0  0  0  0  0  0  0  0  0
   14.5204    9.8926    3.0069 H   0  0  0  0  0  0  0  0  0  0  0  0
   12.4698    7.8393    3.7479 H   0  0  0  0  0  0  0  0  0  0  0  0
   11.2109    7.5921    1.0361 H   0  0  0  0  0  0  0  0  0  0  0  0
   11.4061    6.3664    2.3247 H   0  0  0  0  0  0  0  0  0  0  0  0
    9.0526    7.2371    1.8259 H   0  0  0  0  0  0  0  0  0  0  0  0
    9.5619    7.2662    3.5461 H   0  0  0  0  0  0  0  0  0  0  0  0
    9.7336    9.5571    1.6259 H   0  0  0  0  0  0  0  0  0  0  0  0
    7.6541    9.4690    4.8372 H   0  0  0  0  0  0  0  0  0  0  0  0
    4.2892   11.0403    2.7286 H   0  0  0  0  0  0  0  0  0  0  0  0
    5.1621    9.7571    1.8783 H   0  0  0  0  0  0  0  0  0  0  0  0
   10.1475   11.1020    3.3945 H   0  0  0  0  0  0  0  0  0  0  0  0
   10.2338    9.7349    4.5549 H   0  0  0  0  0  0  0  0  0  0  0  0
   12.0635   10.4407    2.2563 H   0  0  0  0  0  0  0  0  0  0  0  0
   12.4723   10.1509    3.9684 H   0  0  0  0  0  0  0  0  0  0  0  0
  1  2  1  0
  2  3  1  0
  2  4  1  0
  4  5  1  0
  5  6  1  0
  6  7  1  0
  7  8  1  0
  8  9  2  0
  8 10  1  0
 10 11  1  0
 11 12  1  0
 11 13  2  0
  7 14  1  0
 14 15  1  0
 15  4  1  0
  1 16  1  0
  1 17  1  0
  1 18  1  0
  2 19  1  0
  3 20  1  0
  3 21  1  0
  3 22  1  0
  4 23  1  0
  5 24  1  0
  5 25  1  0
  6 26  1  0
  6 27  1  0
  7 28  1  0
 10 29  1  0
 12 30  1  0
 12 31  1  0
 14 32  1  0
 14 33  1  0
 15 34  1  0
 15 35  1  0
M  CHG  1   3   1
M  END
>  <EmbedRMS>  (51) 
0.3207721569004263

$$$$

     RDKit          3D

 41 41  0  0  0  0  0  0  0  0999 V2000
   14.0319    7.0406    1.2328 C   0  0  0  0  0  0  0  0  0  0  0  0
   13.6732    8.3369    1.9390 C   0  0  0  0  0  0  0  0  0  0  0  0
   14.6169    8.7682    2.9622 N   0  0  0  0  0  4  0  0  0  0  0  0
   12.1628    8.5881    2.2129 C   0  0  0  0  0  0  0  0  0  0  0  0
   11.2514    7.3725    2.4579 C   0  0  0  0  0  0  0  0  0  0  0  0
    9.8004    7.8136    2.2199 C   0  0  0  0  0  0  0  0  0  0  0  0
    9.4229    8.9736    3.1596 C   0  0  0  0  0  0  0  0  0  0  0  0
    8.0358    9.4485    2.8643 C   0  0  0  0  0  0  0  0  0  0  0  0
    7.6713    9.6279    1.6694 O   0  0  0  0  0  0  0  0  0  0  0  0
    7.1546    9.7374    3.9520 N   0  0  0  0  0  0  0  0  0  0  0  0
    5.7415   10.0944    3.7722 C   0  0  0  0  0  0  0  0  0  0  0  0
    5.4768   11.0267    2.5905 C   0  0  0  0  0  0  0  0  0  0  0  0
    4.8583    9.1458    4.5185 C   0  0  0  0  0  0  0  0  0  0  0  0
    5.3629   10.9566    4.5824 O   0  0  0  0  0  0  0  0  0  0  0  0
   10.4116   10.1530    3.0912 C   0  0  0  0  0  0  0  0  0  0  0  0
   11.8614    9.6797    3.2548 C   0  0  0  0  0  0  0  0  0  0  0  0
   15.0864    7.0625    0.8824 H   0  0  0  0  0  0  0  0  0  0  0  0
   13.9142    6.1872    1.9331 H   0  0  0  0  0  0  0  0  0  0  0  0
   13.3797    6.8827    0.3468 H   0  0  0  0  0  0  0  0  0  0  0  0
   13.8860    9.0598    1.1116 H   0  0  0  0  0  0  0  0  0  0  0  0
   14.3819    8.3000    3.8669 H   0  0  0  0  0  0  0  0  0  0  0  0
   14.5993    9.8053    3.0894 H   0  0  0  0  0  0  0  0  0  0  0  0
   15.5933    8.5027    2.6965 H   0  0  0  0  0  0  0  0  0  0  0  0
   11.8051    9.0047    1.2381 H   0  0  0  0  0  0  0  0  0  0  0  0
   11.3841    6.9852    3.4919 H   0  0  0  0  0  0  0  0  0  0  0  0
   11.4748    6.5509    1.7469 H   0  0  0  0  0  0  0  0  0  0  0  0
    9.6708    8.1070    1.1539 H   0  0  0  0  0  0  0  0  0  0  0  0
    9.1281    6.9491    2.4138 H   0  0  0  0  0  0  0  0  0  0  0  0
    9.4489    8.5726    4.1980 H   0  0  0  0  0  0  0  0  0  0  0  0
    7.5241    9.6416    4.9266 H   0  0  0  0  0  0  0  0  0  0  0  0
    4.4791   11.5366    2.6105 H   0  0  0  0  0  0  0  0  0  0  0  0
    6.2771   11.7939    2.4719 H   0  0  0  0  0  0  0  0  0  0  0  0
    5.4270   10.4206    1.6636 H   0  0  0  0  0  0  0  0  0  0  0  0
    3.7633    9.3842    4.4588 H   0  0  0  0  0  0  0  0  0  0  0  0
    5.1658    8.9410    5.5784 H   0  0  0  0  0  0  0  0  0  0  0  0
    4.9471    8.1643    4.0062 H   0  0  0  0  0  0  0  0  0  0  0  0
    6.1150   11.5195    4.9304 H   0  0  0  0  0  0  0  0  0  0  0  0
   10.3058   10.6806    2.1165 H   0  0  0  0  0  0  0  0  0  0  0  0
   10.1762   10.8823    3.8971 H   0  0  0  0  0  0  0  0  0  0  0  0
   12.0300    9.2955    4.2847 H   0  0  0  0  0  0  0  0  0  0  0  0
   12.5118   10.5645    3.0923 H   0  0  0  0  0  0  0  0  0  0  0  0
  1  2  1  0
  2  3  1  0
  2  4  1  0
  4  5  1  0
  5  6  1  0
  6  7  1  0
  7  8  1  0
  8  9  2  0
  8 10  1  0
 10 11  1  0
 11 12  1  0
 11 13  1  0
 11 14  1  0
  7 15  1  0
 15 16  1  0
 16  4  1  0
  1 17  1  0
  1 18  1  0
  1 19  1  0
  2 20  1  0
  3 21  1  0
  3 22  1  0
  3 23  1  0
  4 24  1  0
  5 25  1  0
  5 26  1  0
  6 27  1  0
  6 28  1  0
  7 29  1  0
 10 30  1  0
 12 31  1  0
 12 32  1  0
 12 33  1  0
 13 34  1  0
 13 35  1  0
 13 36  1  0
 14 37  1  0
 15 38  1  0
 15 39  1  0
 16 40  1  0
 16 41  1  0
M  CHG  1   3   1
M  END
>  <EmbedRMS>  (52) 
0.722667167693788

$$$$

     RDKit          3D

 41 41  0  0  0  0  0  0  0  0999 V2000
   14.0319    7.0406    1.2328 C   0  0  0  0  0  0  0  0  0  0  0  0
   13.6732    8.3369    1.9390 C   0  0  0  0  0  0  0  0  0  0  0  0
   14.6169    8.7682    2.9622 N   0  0  0  0  0  4  0  0  0  0  0  0
   12.1628    8.5881    2.2129 C   0  0  0  0  0  0  0  0  0  0  0  0
   11.2514    7.3725    2.4579 C   0  0  0  0  0  0  0  0  0  0  0  0
    9.8004    7.8136    2.2199 C   0  0  0  0  0  0  0  0  0  0  0  0
    9.4229    8.9736    3.1596 C   0  0  0  0  0  0  0  0  0  0  0  0
    8.0358    9.4485    2.8643 C   0  0  0  0  0  0  0  0  0  0  0  0
    7.6713    9.6279    1.6694 O   0  0  0  0  0  0  0  0  0  0  0  0
    7.1546    9.7374    3.9520 N   0  0  0  0  0  0  0  0  0  0  0  0
    5.7415   10.0944    3.7722 C   0  0  0  0  0  0  0  0  0  0  0  0
    5.4768   11.0267    2.5905 C   0  0  0  0  0  0  0  0  0  0  0  0
    4.8583    9.1458    4.5185 C   0  0  0  0  0  0  0  0  0  0  0  0
    5.3629   10.9566    4.5824 O   0  0  0  0  0  0  0  0  0  0  0  0
   10.4116   10.1530    3.0912 C   0  0  0  0  0  0  0  0  0  0  0  0
   11.8614    9.6797    3.2548 C   0  0  0  0  0  0  0  0  0  0  0  0
   15.0864    7.0625    0.8824 H   0  0  0  0  0  0  0  0  0  0  0  0
   13.9142    6.1872    1.9331 H   0  0  0  0  0  0  0  0  0  0  0  0
   13.3797    6.8827    0.3468 H   0  0  0  0  0  0  0  0  0  0  0  0
   13.8860    9.0598    1.1116 H   0  0  0  0  0  0  0  0  0  0  0  0
   14.3819    8.3000    3.8669 H   0  0  0  0  0  0  0  0  0  0  0  0
   14.5993    9.8053    3.0894 H   0  0  0  0  0  0  0  0  0  0  0  0
   15.5933    8.5027    2.6965 H   0  0  0  0  0  0  0  0  0  0  0  0
   11.8051    9.0047    1.2381 H   0  0  0  0  0  0  0  0  0  0  0  0
   11.3841    6.9852    3.4919 H   0  0  0  0  0  0  0  0  0  0  0  0
   11.4748    6.5509    1.7469 H   0  0  0  0  0  0  0  0  0  0  0  0
    9.6708    8.1070    1.1539 H   0  0  0  0  0  0  0  0  0  0  0  0
    9.1281    6.9491    2.4138 H   0  0  0  0  0  0  0  0  0  0  0  0
    9.4489    8.5726    4.1980 H   0  0  0  0  0  0  0  0  0  0  0  0
    7.5241    9.6416    4.9266 H   0  0  0  0  0  0  0  0  0  0  0  0
    4.4791   11.5366    2.6105 H   0  0  0  0  0  0  0  0  0  0  0  0
    6.2771   11.7939    2.4719 H   0  0  0  0  0  0  0  0  0  0  0  0
    5.4270   10.4206    1.6636 H   0  0  0  0  0  0  0  0  0  0  0  0
    3.7633    9.3842    4.4588 H   0  0  0  0  0  0  0  0  0  0  0  0
    5.1658    8.9410    5.5784 H   0  0  0  0  0  0  0  0  0  0  0  0
    4.9471    8.1643    4.0062 H   0  0  0  0  0  0  0  0  0  0  0  0
    6.1150   11.5195    4.9304 H   0  0  0  0  0  0  0  0  0  0  0  0
   10.3058   10.6806    2.1165 H   0  0  0  0  0  0  0  0  0  0  0  0
   10.1762   10.8823    3.8971 H   0  0  0  0  0  0  0  0  0  0  0  0
   12.0300    9.2955    4.2847 H   0  0  0  0  0  0  0  0  0  0  0  0
   12.5118   10.5645    3.0923 H   0  0  0  0  0  0  0  0  0  0  0  0
  1  2  1  0
  2  3  1  0
  2  4  1  0
  4  5  1  0
  5  6  1  0
  6  7  1  0
  7  8  1  0
  8  9  2  0
  8 10  1  0
 10 11  1  0
 11 12  1  0
 11 13  1  0
 11 14  1  0
  7 15  1  0
 15 16  1  0
 16  4  1  0
  1 17  1  0
  1 18  1  0
  1 19  1  0
  2 20  1  0
  3 21  1  0
  3 22  1  0
  3 23  1  0
  4 24  1  0
  5 25  1  0
  5 26  1  0
  6 27  1  0
  6 28  1  0
  7 29  1  0
 10 30  1  0
 12 31  1  0
 12 32  1  0
 12 33  1  0
 13 34  1  0
 13 35  1  0
 13 36  1  0
 14 37  1  0
 15 38  1  0
 15 39  1  0
 16 40  1  0
 16 41  1  0
M  CHG  1   3   1
M  END
>  <EmbedRMS>  (53) 
0.722667167693788

$$$$

     RDKit          3D

 38 38  0  0  0  0  0  0  0  0999 V2000
   13.9837    7.0986    1.1854 C   0  0  0  0  0  0  0  0  0  0  0  0
   13.5807    8.3571    1.9537 C   0  0  0  0  0  0  0  0  0  0  0  0
   14.7115    8.8837    2.7302 N   0  0  0  0  0  4  0  0  0  0  0  0
   12.2759    8.3214    2.7737 C   0  0  0  0  0  0  0  0  0  0  0  0
   11.1586    7.3121    2.3966 C   0  0  0  0  0  0  0  0  0  0  0  0
    9.7998    7.9222    2.0838 C   0  0  0  0  0  0  0  0  0  0  0  0
    9.4153    8.9896    3.1068 C   0  0  0  0  0  0  0  0  0  0  0  0
    8.0110    9.4733    2.8591 C   0  0  0  0  0  0  0  0  0  0  0  0
    7.6300    9.6942    1.6779 O   0  0  0  0  0  0  0  0  0  0  0  0
    7.1380    9.6956    3.9783 N   0  0  0  0  0  0  0  0  0  0  0  0
    5.7774   10.1588    3.9341 C   0  0  0  0  0  0  0  0  0  0  0  0
    5.1419   10.2569    5.0170 O   0  0  0  0  0  0  0  0  0  0  0  0
    5.0873   10.6085    2.6751 C   0  0  0  0  0  0  0  0  0  0  0  0
    5.3866   12.0092    2.3942 N   0  0  0  0  0  0  0  0  0  0  0  0
   10.3980   10.1514    3.0075 C   0  0  0  0  0  0  0  0  0  0  0  0
   11.8323    9.7189    3.3051 C   0  0  0  0  0  0  0  0  0  0  0  0
   13.2922    6.9109    0.3374 H   0  0  0  0  0  0  0  0  0  0  0  0
   13.9872    6.2216    1.8667 H   0  0  0  0  0  0  0  0  0  0  0  0
   14.9999    7.2119    0.7514 H   0  0  0  0  0  0  0  0  0  0  0  0
   13.3805    9.1011    1.1486 H   0  0  0  0  0  0  0  0  0  0  0  0
   15.5290    9.0531    2.0997 H   0  0  0  0  0  0  0  0  0  0  0  0
   14.4926    9.7899    3.1974 H   0  0  0  0  0  0  0  0  0  0  0  0
   14.9948    8.1897    3.4599 H   0  0  0  0  0  0  0  0  0  0  0  0
   12.6586    7.8394    3.7045 H   0  0  0  0  0  0  0  0  0  0  0  0
   11.4422    6.6815    1.5339 H   0  0  0  0  0  0  0  0  0  0  0  0
   11.0035    6.5976    3.2386 H   0  0  0  0  0  0  0  0  0  0  0  0
    9.8315    8.3610    1.0610 H   0  0  0  0  0  0  0  0  0  0  0  0
    9.0362    7.1125    2.0786 H   0  0  0  0  0  0  0  0  0  0  0  0
    9.4746    8.5456    4.1262 H   0  0  0  0  0  0  0  0  0  0  0  0
    7.5218    9.4925    4.9291 H   0  0  0  0  0  0  0  0  0  0  0  0
    3.9887   10.5076    2.8149 H   0  0  0  0  0  0  0  0  0  0  0  0
    5.3250    9.9715    1.8030 H   0  0  0  0  0  0  0  0  0  0  0  0
    6.4208   12.1180    2.2815 H   0  0  0  0  0  0  0  0  0  0  0  0
    5.0945   12.5898    3.2143 H   0  0  0  0  0  0  0  0  0  0  0  0
   10.1056   10.9536    3.7212 H   0  0  0  0  0  0  0  0  0  0  0  0
   10.3572   10.5875    1.9836 H   0  0  0  0  0  0  0  0  0  0  0  0
   12.4776   10.5258    2.8997 H   0  0  0  0  0  0  0  0  0  0  0  0
   11.9654    9.7488    4.4110 H   0  0  0  0  0  0  0  0  0  0  0  0
  1  2  1  0
  2  3  1  0
  2  4  1  0
  4  5  1  0
  5  6  1  0
  6  7  1  0
  7  8  1  0
  8  9  2  0
  8 10  1  0
 10 11  1  0
 11 12  2  0
 11 13  1  0
 13 14  1  0
  7 15  1  0
 15 16  1  0
 16  4  1  0
  1 17  1  0
  1 18  1  0
  1 19  1  0
  2 20  1  0
  3 21  1  0
  3 22  1  0
  3 23  1  0
  4 24  1  0
  5 25  1  0
  5 26  1  0
  6 27  1  0
  6 28  1  0
  7 29  1  0
 10 30  1  0
 13 31  1  0
 13 32  1  0
 14 33  1  0
 14 34  1  0
 15 35  1  0
 15 36  1  0
 16 37  1  0
 16 38  1  0
M  CHG  1   3   1
M  END
>  <EmbedRMS>  (54) 
0.21516401282296155

$$$$

     RDKit          3D

 38 38  0  0  0  0  0  0  0  0999 V2000
   14.0281    7.0397    1.2343 C   0  0  0  0  0  0  0  0  0  0  0  0
   13.6693    8.3364    1.9396 C   0  0  0  0  0  0  0  0  0  0  0  0
   14.6134    8.7687    2.9623 N   0  0  0  0  0  4  0  0  0  0  0  0
   12.1578    8.5899    2.2120 C   0  0  0  0  0  0  0  0  0  0  0  0
   11.2405    7.3772    2.4519 C   0  0  0  0  0  0  0  0  0  0  0  0
    9.7885    7.8243    2.2114 C   0  0  0  0  0  0  0  0  0  0  0  0
    9.4114    8.9838    3.1519 C   0  0  0  0  0  0  0  0  0  0  0  0
    8.0137    9.4644    2.8764 C   0  0  0  0  0  0  0  0  0  0  0  0
    7.6236    9.6755    1.6931 O   0  0  0  0  0  0  0  0  0  0  0  0
    7.1388    9.7055    3.9791 N   0  0  0  0  0  0  0  0  0  0  0  0
    5.7610   10.1385    3.7918 C   0  0  0  0  0  0  0  0  0  0  0  0
    5.0964   10.2807    5.1228 C   0  0  0  0  0  0  0  0  0  0  0  0
    5.2137   11.4974    5.8582 N   0  0  0  0  0  0  0  0  0  0  0  0
    4.4940    9.2972    5.6288 O   0  0  0  0  0  0  0  0  0  0  0  0
   10.4061   10.1586    3.0871 C   0  0  0  0  0  0  0  0  0  0  0  0
   11.8556    9.6808    3.2542 C   0  0  0  0  0  0  0  0  0  0  0  0
   13.3771    6.8823    0.3473 H   0  0  0  0  0  0  0  0  0  0  0  0
   13.9078    6.1867    1.9346 H   0  0  0  0  0  0  0  0  0  0  0  0
   15.0832    7.0603    0.8857 H   0  0  0  0  0  0  0  0  0  0  0  0
   13.8831    9.0582    1.1114 H   0  0  0  0  0  0  0  0  0  0  0  0
   15.5896    8.5022    2.6974 H   0  0  0  0  0  0  0  0  0  0  0  0
   14.3777    8.3021    3.8677 H   0  0  0  0  0  0  0  0  0  0  0  0
   14.5961    9.8060    3.0881 H   0  0  0  0  0  0  0  0  0  0  0  0
   11.8027    9.0089    1.2373 H   0  0  0  0  0  0  0  0  0  0  0  0
   11.3695    6.9868    3.4852 H   0  0  0  0  0  0  0  0  0  0  0  0
   11.4632    6.5568    1.7395 H   0  0  0  0  0  0  0  0  0  0  0  0
    9.6589    8.1233    1.1472 H   0  0  0  0  0  0  0  0  0  0  0  0
    9.1130    6.9617    2.4019 H   0  0  0  0  0  0  0  0  0  0  0  0
    9.4464    8.5784    4.1883 H   0  0  0  0  0  0  0  0  0  0  0  0
    7.5087    9.5678    4.9482 H   0  0  0  0  0  0  0  0  0  0  0  0
    5.7440   11.1125    3.2573 H   0  0  0  0  0  0  0  0  0  0  0  0
    5.2145    9.3890    3.1791 H   0  0  0  0  0  0  0  0  0  0  0  0
    5.7459   12.3067    5.4681 H   0  0  0  0  0  0  0  0  0  0  0  0
    4.7721   11.5883    6.8000 H   0  0  0  0  0  0  0  0  0  0  0  0
   10.1715   10.8883    3.8929 H   0  0  0  0  0  0  0  0  0  0  0  0
   10.3032   10.6869    2.1126 H   0  0  0  0  0  0  0  0  0  0  0  0
   12.5086   10.5642    3.0949 H   0  0  0  0  0  0  0  0  0  0  0  0
   12.0204    9.2949    4.2840 H   0  0  0  0  0  0  0  0  0  0  0  0
  1  2  1  0
  2  3  1  0
  2  4  1  0
  4  5  1  0
  5  6  1  0
  6  7  1  0
  7  8  1  0
  8  9  2  0
  8 10  1  0
 10 11  1  0
 11 12  1  0
 12 13  1  0
 12 14  2  0
  7 15  1  0
 15 16  1  0
 16  4  1  0
  1 17  1  0
  1 18  1  0
  1 19  1  0
  2 20  1  0
  3 21  1  0
  3 22  1  0
  3 23  1  0
  4 24  1  0
  5 25  1  0
  5 26  1  0
  6 27  1  0
  6 28  1  0
  7 29  1  0
 10 30  1  0
 11 31  1  0
 11 32  1  0
 13 33  1  0
 13 34  1  0
 15 35  1  0
 15 36  1  0
 16 37  1  0
 16 38  1  0
M  CHG  1   3   1
M  END
>  <EmbedRMS>  (55) 
0.1933160619529778

$$$$

     RDKit          3D

 38 38  0  0  0  0  0  0  0  0999 V2000
   14.0281    7.0397    1.2343 C   0  0  0  0  0  0  0  0  0  0  0  0
   13.6693    8.3364    1.9396 C   0  0  0  0  0  0  0  0  0  0  0  0
   14.6134    8.7687    2.9623 N   0  0  0  0  0  4  0  0  0  0  0  0
   12.1578    8.5899    2.2120 C   0  0  0  0  0  0  0  0  0  0  0  0
   11.2405    7.3772    2.4519 C   0  0  0  0  0  0  0  0  0  0  0  0
    9.7885    7.8243    2.2114 C   0  0  0  0  0  0  0  0  0  0  0  0
    9.4114    8.9838    3.1519 C   0  0  0  0  0  0  0  0  0  0  0  0
    8.0137    9.4644    2.8764 C   0  0  0  0  0  0  0  0  0  0  0  0
    7.6236    9.6755    1.6931 O   0  0  0  0  0  0  0  0  0  0  0  0
    7.1388    9.7055    3.9791 N   0  0  0  0  0  0  0  0  0  0  0  0
    5.7610   10.1385    3.7918 C   0  0  0  0  0  0  0  0  0  0  0  0
    5.0964   10.2807    5.1228 C   0  0  0  0  0  0  0  0  0  0  0  0
    5.2137   11.4974    5.8582 N   0  0  0  0  0  0  0  0  0  0  0  0
    4.4940    9.2972    5.6288 O   0  0  0  0  0  0  0  0  0  0  0  0
   10.4061   10.1586    3.0871 C   0  0  0  0  0  0  0  0  0  0  0  0
   11.8556    9.6808    3.2542 C   0  0  0  0  0  0  0  0  0  0  0  0
   13.3771    6.8823    0.3473 H   0  0  0  0  0  0  0  0  0  0  0  0
   13.9078    6.1867    1.9346 H   0  0  0  0  0  0  0  0  0  0  0  0
   15.0832    7.0603    0.8857 H   0  0  0  0  0  0  0  0  0  0  0  0
   13.8831    9.0582    1.1114 H   0  0  0  0  0  0  0  0  0  0  0  0
   15.5896    8.5022    2.6974 H   0  0  0  0  0  0  0  0  0  0  0  0
   14.3777    8.3021    3.8677 H   0  0  0  0  0  0  0  0  0  0  0  0
   14.5961    9.8060    3.0881 H   0  0  0  0  0  0  0  0  0  0  0  0
   11.8027    9.0089    1.2373 H   0  0  0  0  0  0  0  0  0  0  0  0
   11.3695    6.9868    3.4852 H   0  0  0  0  0  0  0  0  0  0  0  0
   11.4632    6.5568    1.7395 H   0  0  0  0  0  0  0  0  0  0  0  0
    9.6589    8.1233    1.1472 H   0  0  0  0  0  0  0  0  0  0  0  0
    9.1130    6.9617    2.4019 H   0  0  0  0  0  0  0  0  0  0  0  0
    9.4464    8.5784    4.1883 H   0  0  0  0  0  0  0  0  0  0  0  0
    7.5087    9.5678    4.9482 H   0  0  0  0  0  0  0  0  0  0  0  0
    5.7440   11.1125    3.2573 H   0  0  0  0  0  0  0  0  0  0  0  0
    5.2145    9.3890    3.1791 H   0  0  0  0  0  0  0  0  0  0  0  0
    5.7459   12.3067    5.4681 H   0  0  0  0  0  0  0  0  0  0  0  0
    4.7721   11.5883    6.8000 H   0  0  0  0  0  0  0  0  0  0  0  0
   10.1715   10.8883    3.8929 H   0  0  0  0  0  0  0  0  0  0  0  0
   10.3032   10.6869    2.1126 H   0  0  0  0  0  0  0  0  0  0  0  0
   12.5086   10.5642    3.0949 H   0  0  0  0  0  0  0  0  0  0  0  0
   12.0204    9.2949    4.2840 H   0  0  0  0  0  0  0  0  0  0  0  0
  1  2  1  0
  2  3  1  0
  2  4  1  0
  4  5  1  0
  5  6  1  0
  6  7  1  0
  7  8  1  0
  8  9  2  0
  8 10  1  0
 10 11  1  0
 11 12  1  0
 12 13  1  0
 12 14  2  0
  7 15  1  0
 15 16  1  0
 16  4  1  0
  1 17  1  0
  1 18  1  0
  1 19  1  0
  2 20  1  0
  3 21  1  0
  3 22  1  0
  3 23  1  0
  4 24  1  0
  5 25  1  0
  5 26  1  0
  6 27  1  0
  6 28  1  0
  7 29  1  0
 10 30  1  0
 11 31  1  0
 11 32  1  0
 13 33  1  0
 13 34  1  0
 15 35  1  0
 15 36  1  0
 16 37  1  0
 16 38  1  0
M  CHG  1   3   1
M  END
>  <EmbedRMS>  (56) 
0.1933160619529778

$$$$

     RDKit          3D

 38 38  0  0  0  0  0  0  0  0999 V2000
   14.0281    7.0397    1.2343 C   0  0  0  0  0  0  0  0  0  0  0  0
   13.6693    8.3364    1.9396 C   0  0  0  0  0  0  0  0  0  0  0  0
   14.6134    8.7687    2.9623 N   0  0  0  0  0  4  0  0  0  0  0  0
   12.1578    8.5899    2.2120 C   0  0  0  0  0  0  0  0  0  0  0  0
   11.2405    7.3772    2.4519 C   0  0  0  0  0  0  0  0  0  0  0  0
    9.7885    7.8243    2.2114 C   0  0  0  0  0  0  0  0  0  0  0  0
    9.4114    8.9838    3.1519 C   0  0  0  0  0  0  0  0  0  0  0  0
    8.0137    9.4644    2.8764 C   0  0  0  0  0  0  0  0  0  0  0  0
    7.6236    9.6755    1.6931 O   0  0  0  0  0  0  0  0  0  0  0  0
    7.1388    9.7055    3.9791 N   0  0  0  0  0  0  0  0  0  0  0  0
    5.7610   10.1385    3.7918 C   0  0  0  0  0  0  0  0  0  0  0  0
    5.0964   10.2807    5.1228 C   0  0  0  0  0  0  0  0  0  0  0  0
    5.2137   11.4974    5.8582 N   0  0  0  0  0  0  0  0  0  0  0  0
    4.4940    9.2972    5.6288 O   0  0  0  0  0  0  0  0  0  0  0  0
   10.4061   10.1586    3.0871 C   0  0  0  0  0  0  0  0  0  0  0  0
   11.8556    9.6808    3.2542 C   0  0  0  0  0  0  0  0  0  0  0  0
   13.3771    6.8823    0.3473 H   0  0  0  0  0  0  0  0  0  0  0  0
   13.9078    6.1867    1.9346 H   0  0  0  0  0  0  0  0  0  0  0  0
   15.0832    7.0603    0.8857 H   0  0  0  0  0  0  0  0  0  0  0  0
   13.8831    9.0582    1.1114 H   0  0  0  0  0  0  0  0  0  0  0  0
   15.5896    8.5022    2.6974 H   0  0  0  0  0  0  0  0  0  0  0  0
   14.3777    8.3021    3.8677 H   0  0  0  0  0  0  0  0  0  0  0  0
   14.5961    9.8060    3.0881 H   0  0  0  0  0  0  0  0  0  0  0  0
   11.8027    9.0089    1.2373 H   0  0  0  0  0  0  0  0  0  0  0  0
   11.3695    6.9868    3.4852 H   0  0  0  0  0  0  0  0  0  0  0  0
   11.4632    6.5568    1.7395 H   0  0  0  0  0  0  0  0  0  0  0  0
    9.6589    8.1233    1.1472 H   0  0  0  0  0  0  0  0  0  0  0  0
    9.1130    6.9617    2.4019 H   0  0  0  0  0  0  0  0  0  0  0  0
    9.4464    8.5784    4.1883 H   0  0  0  0  0  0  0  0  0  0  0  0
    7.5087    9.5678    4.9482 H   0  0  0  0  0  0  0  0  0  0  0  0
    5.7440   11.1125    3.2573 H   0  0  0  0  0  0  0  0  0  0  0  0
    5.2145    9.3890    3.1791 H   0  0  0  0  0  0  0  0  0  0  0  0
    5.7459   12.3067    5.4681 H   0  0  0  0  0  0  0  0  0  0  0  0
    4.7721   11.5883    6.8000 H   0  0  0  0  0  0  0  0  0  0  0  0
   10.1715   10.8883    3.8929 H   0  0  0  0  0  0  0  0  0  0  0  0
   10.3032   10.6869    2.1126 H   0  0  0  0  0  0  0  0  0  0  0  0
   12.5086   10.5642    3.0949 H   0  0  0  0  0  0  0  0  0  0  0  0
   12.0204    9.2949    4.2840 H   0  0  0  0  0  0  0  0  0  0  0  0
  1  2  1  0
  2  3  1  0
  2  4  1  0
  4  5  1  0
  5  6  1  0
  6  7  1  0
  7  8  1  0
  8  9  2  0
  8 10  1  0
 10 11  1  0
 11 12  1  0
 12 13  1  0
 12 14  2  0
  7 15  1  0
 15 16  1  0
 16  4  1  0
  1 17  1  0
  1 18  1  0
  1 19  1  0
  2 20  1  0
  3 21  1  0
  3 22  1  0
  3 23  1  0
  4 24  1  0
  5 25  1  0
  5 26  1  0
  6 27  1  0
  6 28  1  0
  7 29  1  0
 10 30  1  0
 11 31  1  0
 11 32  1  0
 13 33  1  0
 13 34  1  0
 15 35  1  0
 15 36  1  0
 16 37  1  0
 16 38  1  0
M  CHG  1   3   1
M  END
>  <EmbedRMS>  (57) 
0.1933160619529778

$$$$

     RDKit          3D

 38 38  0  0  0  0  0  0  0  0999 V2000
   13.9837    7.0986    1.1854 C   0  0  0  0  0  0  0  0  0  0  0  0
   13.5807    8.3571    1.9537 C   0  0  0  0  0  0  0  0  0  0  0  0
   14.7115    8.8837    2.7302 N   0  0  0  0  0  4  0  0  0  0  0  0
   12.2759    8.3214    2.7737 C   0  0  0  0  0  0  0  0  0  0  0  0
   11.1586    7.3121    2.3966 C   0  0  0  0  0  0  0  0  0  0  0  0
    9.7998    7.9222    2.0838 C   0  0  0  0  0  0  0  0  0  0  0  0
    9.4153    8.9896    3.1068 C   0  0  0  0  0  0  0  0  0  0  0  0
    8.0110    9.4733    2.8591 C   0  0  0  0  0  0  0  0  0  0  0  0
    7.6300    9.6942    1.6779 O   0  0  0  0  0  0  0  0  0  0  0  0
    7.1380    9.6956    3.9783 N   0  0  0  0  0  0  0  0  0  0  0  0
    5.7774   10.1588    3.9341 C   0  0  0  0  0  0  0  0  0  0  0  0
    5.1419   10.2569    5.0170 O   0  0  0  0  0  0  0  0  0  0  0  0
    5.0873   10.6085    2.6751 C   0  0  0  0  0  0  0  0  0  0  0  0
    5.3866   12.0092    2.3942 N   0  0  0  0  0  0  0  0  0  0  0  0
   10.3980   10.1514    3.0075 C   0  0  0  0  0  0  0  0  0  0  0  0
   11.8323    9.7189    3.3051 C   0  0  0  0  0  0  0  0  0  0  0  0
   13.2922    6.9109    0.3374 H   0  0  0  0  0  0  0  0  0  0  0  0
   13.9872    6.2216    1.8667 H   0  0  0  0  0  0  0  0  0  0  0  0
   14.9999    7.2119    0.7514 H   0  0  0  0  0  0  0  0  0  0  0  0
   13.3805    9.1011    1.1486 H   0  0  0  0  0  0  0  0  0  0  0  0
   15.5290    9.0531    2.0997 H   0  0  0  0  0  0  0  0  0  0  0  0
   14.4926    9.7899    3.1974 H   0  0  0  0  0  0  0  0  0  0  0  0
   14.9948    8.1897    3.4599 H   0  0  0  0  0  0  0  0  0  0  0  0
   12.6586    7.8394    3.7045 H   0  0  0  0  0  0  0  0  0  0  0  0
   11.4422    6.6815    1.5339 H   0  0  0  0  0  0  0  0  0  0  0  0
   11.0035    6.5976    3.2386 H   0  0  0  0  0  0  0  0  0  0  0  0
    9.8315    8.3610    1.0610 H   0  0  0  0  0  0  0  0  0  0  0  0
    9.0362    7.1125    2.0786 H   0  0  0  0  0  0  0  0  0  0  0  0
    9.4746    8.5456    4.1262 H   0  0  0  0  0  0  0  0  0  0  0  0
    7.5218    9.4925    4.9291 H   0  0  0  0  0  0  0  0  0  0  0  0
    3.9887   10.5076    2.8149 H   0  0  0  0  0  0  0  0  0  0  0  0
    5.3250    9.9715    1.8030 H   0  0  0  0  0  0  0  0  0  0  0  0
    6.4208   12.1180    2.2815 H   0  0  0  0  0  0  0  0  0  0  0  0
    5.0945   12.5898    3.2143 H   0  0  0  0  0  0  0  0  0  0  0  0
   10.1056   10.9536    3.7212 H   0  0  0  0  0  0  0  0  0  0  0  0
   10.3572   10.5875    1.9836 H   0  0  0  0  0  0  0  0  0  0  0  0
   12.4776   10.5258    2.8997 H   0  0  0  0  0  0  0  0  0  0  0  0
   11.9654    9.7488    4.4110 H   0  0  0  0  0  0  0  0  0  0  0  0
  1  2  1  0
  2  3  1  0
  2  4  1  0
  4  5  1  0
  5  6  1  0
  6  7  1  0
  7  8  1  0
  8  9  2  0
  8 10  1  0
 10 11  1  0
 11 12  2  0
 11 13  1  0
 13 14  1  0
  7 15  1  0
 15 16  1  0
 16  4  1  0
  1 17  1  0
  1 18  1  0
  1 19  1  0
  2 20  1  0
  3 21  1  0
  3 22  1  0
  3 23  1  0
  4 24  1  0
  5 25  1  0
  5 26  1  0
  6 27  1  0
  6 28  1  0
  7 29  1  0
 10 30  1  0
 13 31  1  0
 13 32  1  0
 14 33  1  0
 14 34  1  0
 15 35  1  0
 15 36  1  0
 16 37  1  0
 16 38  1  0
M  CHG  1   3   1
M  END
>  <EmbedRMS>  (58) 
0.21516401282296155

$$$$

     RDKit          3D

 38 38  0  0  0  0  0  0  0  0999 V2000
   14.0281    7.0397    1.2343 C   0  0  0  0  0  0  0  0  0  0  0  0
   13.6693    8.3364    1.9396 C   0  0  0  0  0  0  0  0  0  0  0  0
   14.6134    8.7687    2.9623 N   0  0  0  0  0  4  0  0  0  0  0  0
   12.1578    8.5899    2.2120 C   0  0  0  0  0  0  0  0  0  0  0  0
   11.2405    7.3772    2.4519 C   0  0  0  0  0  0  0  0  0  0  0  0
    9.7885    7.8243    2.2114 C   0  0  0  0  0  0  0  0  0  0  0  0
    9.4114    8.9838    3.1519 C   0  0  0  0  0  0  0  0  0  0  0  0
    8.0137    9.4644    2.8764 C   0  0  0  0  0  0  0  0  0  0  0  0
    7.6236    9.6755    1.6931 O   0  0  0  0  0  0  0  0  0  0  0  0
    7.1388    9.7055    3.9791 N   0  0  0  0  0  0  0  0  0  0  0  0
    5.7610   10.1385    3.7918 C   0  0  0  0  0  0  0  0  0  0  0  0
    5.0964   10.2807    5.1228 C   0  0  0  0  0  0  0  0  0  0  0  0
    5.2137   11.4974    5.8582 N   0  0  0  0  0  0  0  0  0  0  0  0
    4.4940    9.2972    5.6288 O   0  0  0  0  0  0  0  0  0  0  0  0
   10.4061   10.1586    3.0871 C   0  0  0  0  0  0  0  0  0  0  0  0
   11.8556    9.6808    3.2542 C   0  0  0  0  0  0  0  0  0  0  0  0
   13.3771    6.8823    0.3473 H   0  0  0  0  0  0  0  0  0  0  0  0
   13.9078    6.1867    1.9346 H   0  0  0  0  0  0  0  0  0  0  0  0
   15.0832    7.0603    0.8857 H   0  0  0  0  0  0  0  0  0  0  0  0
   13.8831    9.0582    1.1114 H   0  0  0  0  0  0  0  0  0  0  0  0
   15.5896    8.5022    2.6974 H   0  0  0  0  0  0  0  0  0  0  0  0
   14.3777    8.3021    3.8677 H   0  0  0  0  0  0  0  0  0  0  0  0
   14.5961    9.8060    3.0881 H   0  0  0  0  0  0  0  0  0  0  0  0
   11.8027    9.0089    1.2373 H   0  0  0  0  0  0  0  0  0  0  0  0
   11.3695    6.9868    3.4852 H   0  0  0  0  0  0  0  0  0  0  0  0
   11.4632    6.5568    1.7395 H   0  0  0  0  0  0  0  0  0  0  0  0
    9.6589    8.1233    1.1472 H   0  0  0  0  0  0  0  0  0  0  0  0
    9.1130    6.9617    2.4019 H   0  0  0  0  0  0  0  0  0  0  0  0
    9.4464    8.5784    4.1883 H   0  0  0  0  0  0  0  0  0  0  0  0
    7.5087    9.5678    4.9482 H   0  0  0  0  0  0  0  0  0  0  0  0
    5.7440   11.1125    3.2573 H   0  0  0  0  0  0  0  0  0  0  0  0
    5.2145    9.3890    3.1791 H   0  0  0  0  0  0  0  0  0  0  0  0
    5.7459   12.3067    5.4681 H   0  0  0  0  0  0  0  0  0  0  0  0
    4.7721   11.5883    6.8000 H   0  0  0  0  0  0  0  0  0  0  0  0
   10.1715   10.8883    3.8929 H   0  0  0  0  0  0  0  0  0  0  0  0
   10.3032   10.6869    2.1126 H   0  0  0  0  0  0  0  0  0  0  0  0
   12.5086   10.5642    3.0949 H   0  0  0  0  0  0  0  0  0  0  0  0
   12.0204    9.2949    4.2840 H   0  0  0  0  0  0  0  0  0  0  0  0
  1  2  1  0
  2  3  1  0
  2  4  1  0
  4  5  1  0
  5  6  1  0
  6  7  1  0
  7  8  1  0
  8  9  2  0
  8 10  1  0
 10 11  1  0
 11 12  1  0
 12 13  1  0
 12 14  2  0
  7 15  1  0
 15 16  1  0
 16  4  1  0
  1 17  1  0
  1 18  1  0
  1 19  1  0
  2 20  1  0
  3 21  1  0
  3 22  1  0
  3 23  1  0
  4 24  1  0
  5 25  1  0
  5 26  1  0
  6 27  1  0
  6 28  1  0
  7 29  1  0
 10 30  1  0
 11 31  1  0
 11 32  1  0
 13 33  1  0
 13 34  1  0
 15 35  1  0
 15 36  1  0
 16 37  1  0
 16 38  1  0
M  CHG  1   3   1
M  END
>  <EmbedRMS>  (59) 
0.1933160619529778

$$$$

     RDKit          3D

 38 38  0  0  0  0  0  0  0  0999 V2000
   14.0485    7.2193    1.1052 C   0  0  0  0  0  0  0  0  0  0  0  0
   13.6494    7.9557    2.3993 C   0  0  0  0  0  0  0  0  0  0  0  0
   14.6287    9.0157    2.6714 N   0  0  0  0  0  4  0  0  0  0  0  0
   12.1999    8.5121    2.2739 C   0  0  0  0  0  0  0  0  0  0  0  0
   11.1802    7.3659    2.4359 C   0  0  0  0  0  0  0  0  0  0  0  0
    9.7714    7.8716    2.1578 C   0  0  0  0  0  0  0  0  0  0  0  0
    9.4086    8.9939    3.1360 C   0  0  0  0  0  0  0  0  0  0  0  0
    8.0119    9.4795    2.8745 C   0  0  0  0  0  0  0  0  0  0  0  0
    7.6187    9.6893    1.6921 O   0  0  0  0  0  0  0  0  0  0  0  0
    7.1292    9.6965    3.9807 N   0  0  0  0  0  0  0  0  0  0  0  0
    5.7624   10.1694    3.8094 C   0  0  0  0  0  0  0  0  0  0  0  0
    5.7587   11.6573    3.4724 C   0  0  0  0  0  0  0  0  0  0  0  0
    4.4421   12.1064    3.3200 O   0  0  0  0  0  0  0  0  0  0  0  0
   10.4229   10.1485    3.0671 C   0  0  0  0  0  0  0  0  0  0  0  0
   11.8582    9.6379    3.2816 C   0  0  0  0  0  0  0  0  0  0  0  0
   15.0958    6.8574    1.1814 H   0  0  0  0  0  0  0  0  0  0  0  0
   13.9784    7.8974    0.2278 H   0  0  0  0  0  0  0  0  0  0  0  0
   13.4173    6.3269    0.9275 H   0  0  0  0  0  0  0  0  0  0  0  0
   13.6910    7.2251    3.2394 H   0  0  0  0  0  0  0  0  0  0  0  0
   14.4960    9.3935    3.6370 H   0  0  0  0  0  0  0  0  0  0  0  0
   15.6002    8.6298    2.6308 H   0  0  0  0  0  0  0  0  0  0  0  0
   14.5433    9.7863    1.9687 H   0  0  0  0  0  0  0  0  0  0  0  0
   12.0876    8.9473    1.2540 H   0  0  0  0  0  0  0  0  0  0  0  0
   11.2347    6.9393    3.4625 H   0  0  0  0  0  0  0  0  0  0  0  0
   11.3816    6.5452    1.7192 H   0  0  0  0  0  0  0  0  0  0  0  0
    9.0563    7.0278    2.2771 H   0  0  0  0  0  0  0  0  0  0  0  0
    9.7089    8.2307    1.1059 H   0  0  0  0  0  0  0  0  0  0  0  0
    9.4455    8.5679    4.1642 H   0  0  0  0  0  0  0  0  0  0  0  0
    7.4525    9.4673    4.9477 H   0  0  0  0  0  0  0  0  0  0  0  0
    5.2572    9.5890    3.0069 H   0  0  0  0  0  0  0  0  0  0  0  0
    5.2000   10.0100    4.7552 H   0  0  0  0  0  0  0  0  0  0  0  0
    6.2767   12.2336    4.2730 H   0  0  0  0  0  0  0  0  0  0  0  0
    6.3008   11.8316    2.5198 H   0  0  0  0  0  0  0  0  0  0  0  0
    4.0707   12.2170    4.2342 H   0  0  0  0  0  0  0  0  0  0  0  0
   10.3565   10.6518    2.0766 H   0  0  0  0  0  0  0  0  0  0  0  0
   10.1846   10.9008    3.8506 H   0  0  0  0  0  0  0  0  0  0  0  0
   12.5372   10.5052    3.1416 H   0  0  0  0  0  0  0  0  0  0  0  0
   11.9739    9.2660    4.3236 H   0  0  0  0  0  0  0  0  0  0  0  0
  1  2  1  0
  2  3  1  0
  2  4  1  0
  4  5  1  0
  5  6  1  0
  6  7  1  0
  7  8  1  0
  8  9  2  0
  8 10  1  0
 10 11  1  0
 11 12  1  0
 12 13  1  0
  7 14  1  0
 14 15  1  0
 15  4  1  0
  1 16  1  0
  1 17  1  0
  1 18  1  0
  2 19  1  0
  3 20  1  0
  3 21  1  0
  3 22  1  0
  4 23  1  0
  5 24  1  0
  5 25  1  0
  6 26  1  0
  6 27  1  0
  7 28  1  0
 10 29  1  0
 11 30  1  0
 11 31  1  0
 12 32  1  0
 12 33  1  0
 13 34  1  0
 14 35  1  0
 14 36  1  0
 15 37  1  0
 15 38  1  0
M  CHG  1   3   1
M  END
>  <EmbedRMS>  (60) 
0.031392693704421666

$$$$

     RDKit          3D

 38 38  0  0  0  0  0  0  0  0999 V2000
   14.0281    7.0397    1.2343 C   0  0  0  0  0  0  0  0  0  0  0  0
   13.6693    8.3364    1.9396 C   0  0  0  0  0  0  0  0  0  0  0  0
   14.6134    8.7687    2.9623 N   0  0  0  0  0  4  0  0  0  0  0  0
   12.1578    8.5899    2.2120 C   0  0  0  0  0  0  0  0  0  0  0  0
   11.2405    7.3772    2.4519 C   0  0  0  0  0  0  0  0  0  0  0  0
    9.7885    7.8243    2.2114 C   0  0  0  0  0  0  0  0  0  0  0  0
    9.4114    8.9838    3.1519 C   0  0  0  0  0  0  0  0  0  0  0  0
    8.0137    9.4644    2.8764 C   0  0  0  0  0  0  0  0  0  0  0  0
    7.6236    9.6755    1.6931 O   0  0  0  0  0  0  0  0  0  0  0  0
    7.1388    9.7055    3.9791 N   0  0  0  0  0  0  0  0  0  0  0  0
    5.7610   10.1385    3.7918 C   0  0  0  0  0  0  0  0  0  0  0  0
    5.0964   10.2807    5.1228 C   0  0  0  0  0  0  0  0  0  0  0  0
    5.2137   11.4974    5.8582 N   0  0  0  0  0  0  0  0  0  0  0  0
    4.4940    9.2972    5.6288 O   0  0  0  0  0  0  0  0  0  0  0  0
   10.4061   10.1586    3.0871 C   0  0  0  0  0  0  0  0  0  0  0  0
   11.8556    9.6808    3.2542 C   0  0  0  0  0  0  0  0  0  0  0  0
   13.3771    6.8823    0.3473 H   0  0  0  0  0  0  0  0  0  0  0  0
   13.9078    6.1867    1.9346 H   0  0  0  0  0  0  0  0  0  0  0  0
   15.0832    7.0603    0.8857 H   0  0  0  0  0  0  0  0  0  0  0  0
   13.8831    9.0582    1.1114 H   0  0  0  0  0  0  0  0  0  0  0  0
   15.5896    8.5022    2.6974 H   0  0  0  0  0  0  0  0  0  0  0  0
   14.3777    8.3021    3.8677 H   0  0  0  0  0  0  0  0  0  0  0  0
   14.5961    9.8060    3.0881 H   0  0  0  0  0  0  0  0  0  0  0  0
   11.8027    9.0089    1.2373 H   0  0  0  0  0  0  0  0  0  0  0  0
   11.3695    6.9868    3.4852 H   0  0  0  0  0  0  0  0  0  0  0  0
   11.4632    6.5568    1.7395 H   0  0  0  0  0  0  0  0  0  0  0  0
    9.6589    8.1233    1.1472 H   0  0  0  0  0  0  0  0  0  0  0  0
    9.1130    6.9617    2.4019 H   0  0  0  0  0  0  0  0  0  0  0  0
    9.4464    8.5784    4.1883 H   0  0  0  0  0  0  0  0  0  0  0  0
    7.5087    9.5678    4.9482 H   0  0  0  0  0  0  0  0  0  0  0  0
    5.7440   11.1125    3.2573 H   0  0  0  0  0  0  0  0  0  0  0  0
    5.2145    9.3890    3.1791 H   0  0  0  0  0  0  0  0  0  0  0  0
    5.7459   12.3067    5.4681 H   0  0  0  0  0  0  0  0  0  0  0  0
    4.7721   11.5883    6.8000 H   0  0  0  0  0  0  0  0  0  0  0  0
   10.1715   10.8883    3.8929 H   0  0  0  0  0  0  0  0  0  0  0  0
   10.3032   10.6869    2.1126 H   0  0  0  0  0  0  0  0  0  0  0  0
   12.5086   10.5642    3.0949 H   0  0  0  0  0  0  0  0  0  0  0  0
   12.0204    9.2949    4.2840 H   0  0  0  0  0  0  0  0  0  0  0  0
  1  2  1  0
  2  3  1  0
  2  4  1  0
  4  5  1  0
  5  6  1  0
  6  7  1  0
  7  8  1  0
  8  9  2  0
  8 10  1  0
 10 11  1  0
 11 12  1  0
 12 13  1  0
 12 14  2  0
  7 15  1  0
 15 16  1  0
 16  4  1  0
  1 17  1  0
  1 18  1  0
  1 19  1  0
  2 20  1  0
  3 21  1  0
  3 22  1  0
  3 23  1  0
  4 24  1  0
  5 25  1  0
  5 26  1  0
  6 27  1  0
  6 28  1  0
  7 29  1  0
 10 30  1  0
 11 31  1  0
 11 32  1  0
 13 33  1  0
 13 34  1  0
 15 35  1  0
 15 36  1  0
 16 37  1  0
 16 38  1  0
M  CHG  1   3   1
M  END
>  <EmbedRMS>  (61) 
0.1933160619529778

$$$$

     RDKit          3D

 38 38  0  0  0  0  0  0  0  0999 V2000
   14.0281    7.0397    1.2343 C   0  0  0  0  0  0  0  0  0  0  0  0
   13.6693    8.3364    1.9396 C   0  0  0  0  0  0  0  0  0  0  0  0
   14.6134    8.7687    2.9623 N   0  0  0  0  0  4  0  0  0  0  0  0
   12.1578    8.5899    2.2120 C   0  0  0  0  0  0  0  0  0  0  0  0
   11.2405    7.3772    2.4519 C   0  0  0  0  0  0  0  0  0  0  0  0
    9.7885    7.8243    2.2114 C   0  0  0  0  0  0  0  0  0  0  0  0
    9.4114    8.9838    3.1519 C   0  0  0  0  0  0  0  0  0  0  0  0
    8.0137    9.4644    2.8764 C   0  0  0  0  0  0  0  0  0  0  0  0
    7.6236    9.6755    1.6931 O   0  0  0  0  0  0  0  0  0  0  0  0
    7.1388    9.7055    3.9791 N   0  0  0  0  0  0  0  0  0  0  0  0
    5.7610   10.1385    3.7918 C   0  0  0  0  0  0  0  0  0  0  0  0
    5.0964   10.2807    5.1228 C   0  0  0  0  0  0  0  0  0  0  0  0
    5.2137   11.4974    5.8582 N   0  0  0  0  0  0  0  0  0  0  0  0
    4.4940    9.2972    5.6288 O   0  0  0  0  0  0  0  0  0  0  0  0
   10.4061   10.1586    3.0871 C   0  0  0  0  0  0  0  0  0  0  0  0
   11.8556    9.6808    3.2542 C   0  0  0  0  0  0  0  0  0  0  0  0
   13.3771    6.8823    0.3473 H   0  0  0  0  0  0  0  0  0  0  0  0
   13.9078    6.1867    1.9346 H   0  0  0  0  0  0  0  0  0  0  0  0
   15.0832    7.0603    0.8857 H   0  0  0  0  0  0  0  0  0  0  0  0
   13.8831    9.0582    1.1114 H   0  0  0  0  0  0  0  0  0  0  0  0
   15.5896    8.5022    2.6974 H   0  0  0  0  0  0  0  0  0  0  0  0
   14.3777    8.3021    3.8677 H   0  0  0  0  0  0  0  0  0  0  0  0
   14.5961    9.8060    3.0881 H   0  0  0  0  0  0  0  0  0  0  0  0
   11.8027    9.0089    1.2373 H   0  0  0  0  0  0  0  0  0  0  0  0
   11.3695    6.9868    3.4852 H   0  0  0  0  0  0  0  0  0  0  0  0
   11.4632    6.5568    1.7395 H   0  0  0  0  0  0  0  0  0  0  0  0
    9.6589    8.1233    1.1472 H   0  0  0  0  0  0  0  0  0  0  0  0
    9.1130    6.9617    2.4019 H   0  0  0  0  0  0  0  0  0  0  0  0
    9.4464    8.5784    4.1883 H   0  0  0  0  0  0  0  0  0  0  0  0
    7.5087    9.5678    4.9482 H   0  0  0  0  0  0  0  0  0  0  0  0
    5.7440   11.1125    3.2573 H   0  0  0  0  0  0  0  0  0  0  0  0
    5.2145    9.3890    3.1791 H   0  0  0  0  0  0  0  0  0  0  0  0
    5.7459   12.3067    5.4681 H   0  0  0  0  0  0  0  0  0  0  0  0
    4.7721   11.5883    6.8000 H   0  0  0  0  0  0  0  0  0  0  0  0
   10.1715   10.8883    3.8929 H   0  0  0  0  0  0  0  0  0  0  0  0
   10.3032   10.6869    2.1126 H   0  0  0  0  0  0  0  0  0  0  0  0
   12.5086   10.5642    3.0949 H   0  0  0  0  0  0  0  0  0  0  0  0
   12.0204    9.2949    4.2840 H   0  0  0  0  0  0  0  0  0  0  0  0
  1  2  1  0
  2  3  1  0
  2  4  1  0
  4  5  1  0
  5  6  1  0
  6  7  1  0
  7  8  1  0
  8  9  2  0
  8 10  1  0
 10 11  1  0
 11 12  1  0
 12 13  1  0
 12 14  2  0
  7 15  1  0
 15 16  1  0
 16  4  1  0
  1 17  1  0
  1 18  1  0
  1 19  1  0
  2 20  1  0
  3 21  1  0
  3 22  1  0
  3 23  1  0
  4 24  1  0
  5 25  1  0
  5 26  1  0
  6 27  1  0
  6 28  1  0
  7 29  1  0
 10 30  1  0
 11 31  1  0
 11 32  1  0
 13 33  1  0
 13 34  1  0
 15 35  1  0
 15 36  1  0
 16 37  1  0
 16 38  1  0
M  CHG  1   3   1
M  END
>  <EmbedRMS>  (62) 
0.1933160619529778

$$$$

     RDKit          3D

 41 41  0  0  0  0  0  0  0  0999 V2000
    6.2087   12.5260    4.6401 C   0  0  0  0  0  0  0  0  0  0  0  0
    5.7640   11.6400    3.4758 C   0  0  0  0  0  0  0  0  0  0  0  0
    4.4679   11.9935    3.0646 O   0  0  0  0  0  0  0  0  0  0  0  0
    5.8328   10.1467    3.8641 C   0  0  0  0  0  0  0  0  0  0  0  0
    7.2282    9.6850    3.9299 N   0  0  0  0  0  0  0  0  0  0  0  0
    7.9894    9.5239    2.7207 C   0  0  0  0  0  0  0  0  0  0  0  0
    7.4161    9.6728    1.6144 O   0  0  0  0  0  0  0  0  0  0  0  0
    9.4505    9.2009    2.6353 C   0  0  0  0  0  0  0  0  0  0  0  0
    9.7454    7.7255    2.5443 C   0  0  0  0  0  0  0  0  0  0  0  0
   11.1802    7.4393    2.1347 C   0  0  0  0  0  0  0  0  0  0  0  0
   12.2615    8.3272    2.7673 C   0  0  0  0  0  0  0  0  0  0  0  0
   13.6008    8.3246    1.9898 C   0  0  0  0  0  0  0  0  0  0  0  0
   14.0116    7.0508    1.2528 C   0  0  0  0  0  0  0  0  0  0  0  0
   14.7027    8.8918    2.7697 N   0  0  0  0  0  4  0  0  0  0  0  0
   11.8490    9.7807    3.1221 C   0  0  0  0  0  0  0  0  0  0  0  0
   10.3844   10.0198    3.4822 C   0  0  0  0  0  0  0  0  0  0  0  0
    7.2594   12.2967    4.9190 H   0  0  0  0  0  0  0  0  0  0  0  0
    5.5569   12.3697    5.5263 H   0  0  0  0  0  0  0  0  0  0  0  0
    6.1519   13.5941    4.3412 H   0  0  0  0  0  0  0  0  0  0  0  0
    6.4447   11.8349    2.6207 H   0  0  0  0  0  0  0  0  0  0  0  0
    3.8513   11.8005    3.8192 H   0  0  0  0  0  0  0  0  0  0  0  0
    5.3439    9.9870    4.8501 H   0  0  0  0  0  0  0  0  0  0  0  0
    5.2758    9.5353    3.1209 H   0  0  0  0  0  0  0  0  0  0  0  0
    7.6600    9.4551    4.8526 H   0  0  0  0  0  0  0  0  0  0  0  0
    9.7227    9.5597    1.6116 H   0  0  0  0  0  0  0  0  0  0  0  0
    9.0553    7.2345    1.8218 H   0  0  0  0  0  0  0  0  0  0  0  0
    9.5627    7.2709    3.5425 H   0  0  0  0  0  0  0  0  0  0  0  0
   11.2138    7.5913    1.0337 H   0  0  0  0  0  0  0  0  0  0  0  0
   11.4070    6.3666    2.3237 H   0  0  0  0  0  0  0  0  0  0  0  0
   12.4690    7.8404    3.7470 H   0  0  0  0  0  0  0  0  0  0  0  0
   13.4366    9.0289    1.1411 H   0  0  0  0  0  0  0  0  0  0  0  0
   14.9834    7.1931    0.7338 H   0  0  0  0  0  0  0  0  0  0  0  0
   14.1169    6.2178    1.9792 H   0  0  0  0  0  0  0  0  0  0  0  0
   13.2679    6.7650    0.4809 H   0  0  0  0  0  0  0  0  0  0  0  0
   14.8391    8.3407    3.6478 H   0  0  0  0  0  0  0  0  0  0  0  0
   14.5198    9.8920    3.0090 H   0  0  0  0  0  0  0  0  0  0  0  0
   15.5918    8.8686    2.2192 H   0  0  0  0  0  0  0  0  0  0  0  0
   12.4693   10.1517    3.9669 H   0  0  0  0  0  0  0  0  0  0  0  0
   12.0657   10.4410    2.2534 H   0  0  0  0  0  0  0  0  0  0  0  0
   10.2293    9.7359    4.5458 H   0  0  0  0  0  0  0  0  0  0  0  0
   10.1463   11.1028    3.3851 H   0  0  0  0  0  0  0  0  0  0  0  0
  1  2  1  0
  2  3  1  0
  2  4  1  0
  4  5  1  0
  5  6  1  0
  6  7  2  0
  6  8  1  0
  8  9  1  0
  9 10  1  0
 10 11  1  0
 11 12  1  0
 12 13  1  0
 12 14  1  0
 11 15  1  0
 15 16  1  0
 16  8  1  0
  1 17  1  0
  1 18  1  0
  1 19  1  0
  2 20  1  0
  3 21  1  0
  4 22  1  0
  4 23  1  0
  5 24  1  0
  8 25  1  0
  9 26  1  0
  9 27  1  0
 10 28  1  0
 10 29  1  0
 11 30  1  0
 12 31  1  0
 13 32  1  0
 13 33  1  0
 13 34  1  0
 14 35  1  0
 14 36  1  0
 14 37  1  0
 15 38  1  0
 15 39  1  0
 16 40  1  0
 16 41  1  0
M  CHG  1  14   1
M  END
>  <EmbedRMS>  (63) 
0.3113970459893027

$$$$

     RDKit          3D

 35 35  0  0  0  0  0  0  0  0999 V2000
   14.0105    7.0510    1.2527 C   0  0  0  0  0  0  0  0  0  0  0  0
   13.5999    8.3245    1.9901 C   0  0  0  0  0  0  0  0  0  0  0  0
   14.7024    8.8920    2.7692 N   0  0  0  0  0  4  0  0  0  0  0  0
   12.2613    8.3268    2.7688 C   0  0  0  0  0  0  0  0  0  0  0  0
   11.1788    7.4392    2.1371 C   0  0  0  0  0  0  0  0  0  0  0  0
    9.7439    7.7246    2.5496 C   0  0  0  0  0  0  0  0  0  0  0  0
    9.4498    9.2000    2.6478 C   0  0  0  0  0  0  0  0  0  0  0  0
    7.9869    9.5311    2.7175 C   0  0  0  0  0  0  0  0  0  0  0  0
    7.4522    9.7012    1.5983 O   0  0  0  0  0  0  0  0  0  0  0  0
    7.1968    9.6646    3.9188 N   0  0  0  0  0  0  0  0  0  0  0  0
    5.8181   10.1174    3.9117 C   0  0  0  0  0  0  0  0  0  0  0  0
    5.1140   10.4008    2.6965 N   0  0  0  0  0  0  0  0  0  0  0  0
    5.2091   10.2790    5.0025 O   0  0  0  0  0  0  0  0  0  0  0  0
   10.3857   10.0191    3.4908 C   0  0  0  0  0  0  0  0  0  0  0  0
   11.8494    9.7801    3.1254 C   0  0  0  0  0  0  0  0  0  0  0  0
   13.2655    6.7644    0.4823 H   0  0  0  0  0  0  0  0  0  0  0  0
   14.9812    7.1940    0.7318 H   0  0  0  0  0  0  0  0  0  0  0  0
   14.1178    6.2182    1.9791 H   0  0  0  0  0  0  0  0  0  0  0  0
   13.4347    9.0289    1.1417 H   0  0  0  0  0  0  0  0  0  0  0  0
   14.8383    8.3421    3.6482 H   0  0  0  0  0  0  0  0  0  0  0  0
   15.5915    8.8671    2.2188 H   0  0  0  0  0  0  0  0  0  0  0  0
   14.5204    9.8926    3.0069 H   0  0  0  0  0  0  0  0  0  0  0  0
   12.4698    7.8393    3.7479 H   0  0  0  0  0  0  0  0  0  0  0  0
   11.2109    7.5921    1.0361 H   0  0  0  0  0  0  0  0  0  0  0  0
   11.4061    6.3664    2.3247 H   0  0  0  0  0  0  0  0  0  0  0  0
    9.0526    7.2371    1.8259 H   0  0  0  0  0  0  0  0  0  0  0  0
    9.5619    7.2662    3.5461 H   0  0  0  0  0  0  0  0  0  0  0  0
    9.7336    9.5571    1.6259 H   0  0  0  0  0  0  0  0  0  0  0  0
    7.6541    9.4690    4.8372 H   0  0  0  0  0  0  0  0  0  0  0  0
    4.2892   11.0403    2.7286 H   0  0  0  0  0  0  0  0  0  0  0  0
    5.1621    9.7571    1.8783 H   0  0  0  0  0  0  0  0  0  0  0  0
   10.1475   11.1020    3.3945 H   0  0  0  0  0  0  0  0  0  0  0  0
   10.2338    9.7349    4.5549 H   0  0  0  0  0  0  0  0  0  0  0  0
   12.0635   10.4407    2.2563 H   0  0  0  0  0  0  0  0  0  0  0  0
   12.4723   10.1509    3.9684 H   0  0  0  0  0  0  0  0  0  0  0  0
  1  2  1  0
  2  3  1  0
  2  4  1  0
  4  5  1  0
  5  6  1  0
  6  7  1  0
  7  8  1  0
  8  9  2  0
  8 10  1  0
 10 11  1  0
 11 12  1  0
 11 13  2  0
  7 14  1  0
 14 15  1  0
 15  4  1  0
  1 16  1  0
  1 17  1  0
  1 18  1  0
  2 19  1  0
  3 20  1  0
  3 21  1  0
  3 22  1  0
  4 23  1  0
  5 24  1  0
  5 25  1  0
  6 26  1  0
  6 27  1  0
  7 28  1  0
 10 29  1  0
 12 30  1  0
 12 31  1  0
 14 32  1  0
 14 33  1  0
 15 34  1  0
 15 35  1  0
M  CHG  1   3   1
M  END
>  <EmbedRMS>  (64) 
0.3207721569004263

$$$$

     RDKit          3D

 41 41  0  0  0  0  0  0  0  0999 V2000
    6.2087   12.5260    4.6401 C   0  0  0  0  0  0  0  0  0  0  0  0
    5.7640   11.6400    3.4758 C   0  0  0  0  0  0  0  0  0  0  0  0
    4.4679   11.9935    3.0646 O   0  0  0  0  0  0  0  0  0  0  0  0
    5.8328   10.1467    3.8641 C   0  0  0  0  0  0  0  0  0  0  0  0
    7.2282    9.6850    3.9299 N   0  0  0  0  0  0  0  0  0  0  0  0
    7.9894    9.5239    2.7207 C   0  0  0  0  0  0  0  0  0  0  0  0
    7.4161    9.6728    1.6144 O   0  0  0  0  0  0  0  0  0  0  0  0
    9.4505    9.2009    2.6353 C   0  0  0  0  0  0  0  0  0  0  0  0
    9.7454    7.7255    2.5443 C   0  0  0  0  0  0  0  0  0  0  0  0
   11.1802    7.4393    2.1347 C   0  0  0  0  0  0  0  0  0  0  0  0
   12.2615    8.3272    2.7673 C   0  0  0  0  0  0  0  0  0  0  0  0
   13.6008    8.3246    1.9898 C   0  0  0  0  0  0  0  0  0  0  0  0
   14.0116    7.0508    1.2528 C   0  0  0  0  0  0  0  0  0  0  0  0
   14.7027    8.8918    2.7697 N   0  0  0  0  0  4  0  0  0  0  0  0
   11.8490    9.7807    3.1221 C   0  0  0  0  0  0  0  0  0  0  0  0
   10.3844   10.0198    3.4822 C   0  0  0  0  0  0  0  0  0  0  0  0
    7.2594   12.2967    4.9190 H   0  0  0  0  0  0  0  0  0  0  0  0
    5.5569   12.3697    5.5263 H   0  0  0  0  0  0  0  0  0  0  0  0
    6.1519   13.5941    4.3412 H   0  0  0  0  0  0  0  0  0  0  0  0
    6.4447   11.8349    2.6207 H   0  0  0  0  0  0  0  0  0  0  0  0
    3.8513   11.8005    3.8192 H   0  0  0  0  0  0  0  0  0  0  0  0
    5.3439    9.9870    4.8501 H   0  0  0  0  0  0  0  0  0  0  0  0
    5.2758    9.5353    3.1209 H   0  0  0  0  0  0  0  0  0  0  0  0
    7.6600    9.4551    4.8526 H   0  0  0  0  0  0  0  0  0  0  0  0
    9.7227    9.5597    1.6116 H   0  0  0  0  0  0  0  0  0  0  0  0
    9.0553    7.2345    1.8218 H   0  0  0  0  0  0  0  0  0  0  0  0
    9.5627    7.2709    3.5425 H   0  0  0  0  0  0  0  0  0  0  0  0
   11.2138    7.5913    1.0337 H   0  0  0  0  0  0  0  0  0  0  0  0
   11.4070    6.3666    2.3237 H   0  0  0  0  0  0  0  0  0  0  0  0
   12.4690    7.8404    3.7470 H   0  0  0  0  0  0  0  0  0  0  0  0
   13.4366    9.0289    1.1411 H   0  0  0  0  0  0  0  0  0  0  0  0
   14.9834    7.1931    0.7338 H   0  0  0  0  0  0  0  0  0  0  0  0
   14.1169    6.2178    1.9792 H   0  0  0  0  0  0  0  0  0  0  0  0
   13.2679    6.7650    0.4809 H   0  0  0  0  0  0  0  0  0  0  0  0
   14.8391    8.3407    3.6478 H   0  0  0  0  0  0  0  0  0  0  0  0
   14.5198    9.8920    3.0090 H   0  0  0  0  0  0  0  0  0  0  0  0
   15.5918    8.8686    2.2192 H   0  0  0  0  0  0  0  0  0  0  0  0
   12.4693   10.1517    3.9669 H   0  0  0  0  0  0  0  0  0  0  0  0
   12.0657   10.4410    2.2534 H   0  0  0  0  0  0  0  0  0  0  0  0
   10.2293    9.7359    4.5458 H   0  0  0  0  0  0  0  0  0  0  0  0
   10.1463   11.1028    3.3851 H   0  0  0  0  0  0  0  0  0  0  0  0
  1  2  1  0
  2  3  1  0
  2  4  1  0
  4  5  1  0
  5  6  1  0
  6  7  2  0
  6  8  1  0
  8  9  1  0
  9 10  1  0
 10 11  1  0
 11 12  1  0
 12 13  1  0
 12 14  1  0
 11 15  1  0
 15 16  1  0
 16  8  1  0
  1 17  1  0
  1 18  1  0
  1 19  1  0
  2 20  1  0
  3 21  1  0
  4 22  1  0
  4 23  1  0
  5 24  1  0
  8 25  1  0
  9 26  1  0
  9 27  1  0
 10 28  1  0
 10 29  1  0
 11 30  1  0
 12 31  1  0
 13 32  1  0
 13 33  1  0
 13 34  1  0
 14 35  1  0
 14 36  1  0
 14 37  1  0
 15 38  1  0
 15 39  1  0
 16 40  1  0
 16 41  1  0
M  CHG  1  14   1
M  END
>  <EmbedRMS>  (65) 
0.3113970459893027

$$$$

     RDKit          3D

 41 41  0  0  0  0  0  0  0  0999 V2000
   14.0112    7.0502    1.2530 C   0  0  0  0  0  0  0  0  0  0  0  0
   13.6006    8.3242    1.9896 C   0  0  0  0  0  0  0  0  0  0  0  0
   14.7025    8.8915    2.7695 N   0  0  0  0  0  4  0  0  0  0  0  0
   12.2611    8.3275    2.7668 C   0  0  0  0  0  0  0  0  0  0  0  0
   11.1789    7.4405    2.1342 C   0  0  0  0  0  0  0  0  0  0  0  0
    9.7438    7.7286    2.5427 C   0  0  0  0  0  0  0  0  0  0  0  0
    9.4497    9.2048    2.6337 C   0  0  0  0  0  0  0  0  0  0  0  0
    7.9879    9.5295    2.7214 C   0  0  0  0  0  0  0  0  0  0  0  0
    7.4128    9.6770    1.6163 O   0  0  0  0  0  0  0  0  0  0  0  0
    7.2353    9.7042    3.9341 N   0  0  0  0  0  0  0  0  0  0  0  0
    5.8340   10.1508    3.8938 C   0  0  0  0  0  0  0  0  0  0  0  0
    5.7099   11.6592    4.1550 C   0  0  0  0  0  0  0  0  0  0  0  0
    6.2760   12.5224    3.0236 C   0  0  0  0  0  0  0  0  0  0  0  0
    7.6715   12.5833    3.1173 O   0  0  0  0  0  0  0  0  0  0  0  0
   10.3857   10.0213    3.4811 C   0  0  0  0  0  0  0  0  0  0  0  0
   11.8496    9.7812    3.1206 C   0  0  0  0  0  0  0  0  0  0  0  0
   14.1168    6.2176    1.9797 H   0  0  0  0  0  0  0  0  0  0  0  0
   13.2672    6.7640    0.4815 H   0  0  0  0  0  0  0  0  0  0  0  0
   14.9828    7.1924    0.7335 H   0  0  0  0  0  0  0  0  0  0  0  0
   13.4368    9.0282    1.1406 H   0  0  0  0  0  0  0  0  0  0  0  0
   14.8376    8.3417    3.6487 H   0  0  0  0  0  0  0  0  0  0  0  0
   14.5205    9.8923    3.0071 H   0  0  0  0  0  0  0  0  0  0  0  0
   15.5921    8.8665    2.2199 H   0  0  0  0  0  0  0  0  0  0  0  0
   12.4679    7.8409    3.7467 H   0  0  0  0  0  0  0  0  0  0  0  0
   11.2133    7.5919    1.0331 H   0  0  0  0  0  0  0  0  0  0  0  0
   11.4044    6.3677    2.3239 H   0  0  0  0  0  0  0  0  0  0  0  0
    9.5597    7.2741    3.5407 H   0  0  0  0  0  0  0  0  0  0  0  0
    9.0536    7.2385    1.8196 H   0  0  0  0  0  0  0  0  0  0  0  0
    9.7211    9.5640    1.6100 H   0  0  0  0  0  0  0  0  0  0  0  0
    7.7202    9.6263    4.8558 H   0  0  0  0  0  0  0  0  0  0  0  0
    5.2756    9.6127    4.6895 H   0  0  0  0  0  0  0  0  0  0  0  0
    5.3471    9.8825    2.9314 H   0  0  0  0  0  0  0  0  0  0  0  0
    6.2064   11.9192    5.1154 H   0  0  0  0  0  0  0  0  0  0  0  0
    4.6296   11.8978    4.2654 H   0  0  0  0  0  0  0  0  0  0  0  0
    5.8625   13.5509    3.1198 H   0  0  0  0  0  0  0  0  0  0  0  0
    5.9690   12.1143    2.0344 H   0  0  0  0  0  0  0  0  0  0  0  0
    7.9776   13.1131    2.3361 H   0  0  0  0  0  0  0  0  0  0  0  0
   10.2319    9.7363    4.5446 H   0  0  0  0  0  0  0  0  0  0  0  0
   10.1501   11.1047    3.3855 H   0  0  0  0  0  0  0  0  0  0  0  0
   12.0661   10.4408    2.2513 H   0  0  0  0  0  0  0  0  0  0  0  0
   12.4705   10.1525    3.9649 H   0  0  0  0  0  0  0  0  0  0  0  0
  1  2  1  0
  2  3  1  0
  2  4  1  0
  4  5  1  0
  5  6  1  0
  6  7  1  0
  7  8  1  0
  8  9  2  0
  8 10  1  0
 10 11  1  0
 11 12  1  0
 12 13  1  0
 13 14  1  0
  7 15  1  0
 15 16  1  0
 16  4  1  0
  1 17  1  0
  1 18  1  0
  1 19  1  0
  2 20  1  0
  3 21  1  0
  3 22  1  0
  3 23  1  0
  4 24  1  0
  5 25  1  0
  5 26  1  0
  6 27  1  0
  6 28  1  0
  7 29  1  0
 10 30  1  0
 11 31  1  0
 11 32  1  0
 12 33  1  0
 12 34  1  0
 13 35  1  0
 13 36  1  0
 14 37  1  0
 15 38  1  0
 15 39  1  0
 16 40  1  0
 16 41  1  0
M  CHG  1   3   1
M  END
>  <EmbedRMS>  (66) 
0.31188721664002633

$$$$

     RDKit          3D

 41 41  0  0  0  0  0  0  0  0999 V2000
    6.2087   12.5260    4.6401 C   0  0  0  0  0  0  0  0  0  0  0  0
    5.7640   11.6400    3.4758 C   0  0  0  0  0  0  0  0  0  0  0  0
    4.4679   11.9935    3.0646 O   0  0  0  0  0  0  0  0  0  0  0  0
    5.8328   10.1467    3.8641 C   0  0  0  0  0  0  0  0  0  0  0  0
    7.2282    9.6850    3.9299 N   0  0  0  0  0  0  0  0  0  0  0  0
    7.9894    9.5239    2.7207 C   0  0  0  0  0  0  0  0  0  0  0  0
    7.4161    9.6728    1.6144 O   0  0  0  0  0  0  0  0  0  0  0  0
    9.4505    9.2009    2.6353 C   0  0  0  0  0  0  0  0  0  0  0  0
    9.7454    7.7255    2.5443 C   0  0  0  0  0  0  0  0  0  0  0  0
   11.1802    7.4393    2.1347 C   0  0  0  0  0  0  0  0  0  0  0  0
   12.2615    8.3272    2.7673 C   0  0  0  0  0  0  0  0  0  0  0  0
   13.6008    8.3246    1.9898 C   0  0  0  0  0  0  0  0  0  0  0  0
   14.0116    7.0508    1.2528 C   0  0  0  0  0  0  0  0  0  0  0  0
   14.7027    8.8918    2.7697 N   0  0  0  0  0  4  0  0  0  0  0  0
   11.8490    9.7807    3.1221 C   0  0  0  0  0  0  0  0  0  0  0  0
   10.3844   10.0198    3.4822 C   0  0  0  0  0  0  0  0  0  0  0  0
    7.2594   12.2967    4.9190 H   0  0  0  0  0  0  0  0  0  0  0  0
    5.5569   12.3697    5.5263 H   0  0  0  0  0  0  0  0  0  0  0  0
    6.1519   13.5941    4.3412 H   0  0  0  0  0  0  0  0  0  0  0  0
    6.4447   11.8349    2.6207 H   0  0  0  0  0  0  0  0  0  0  0  0
    3.8513   11.8005    3.8192 H   0  0  0  0  0  0  0  0  0  0  0  0
    5.3439    9.9870    4.8501 H   0  0  0  0  0  0  0  0  0  0  0  0
    5.2758    9.5353    3.1209 H   0  0  0  0  0  0  0  0  0  0  0  0
    7.6600    9.4551    4.8526 H   0  0  0  0  0  0  0  0  0  0  0  0
    9.7227    9.5597    1.6116 H   0  0  0  0  0  0  0  0  0  0  0  0
    9.0553    7.2345    1.8218 H   0  0  0  0  0  0  0  0  0  0  0  0
    9.5627    7.2709    3.5425 H   0  0  0  0  0  0  0  0  0  0  0  0
   11.2138    7.5913    1.0337 H   0  0  0  0  0  0  0  0  0  0  0  0
   11.4070    6.3666    2.3237 H   0  0  0  0  0  0  0  0  0  0  0  0
   12.4690    7.8404    3.7470 H   0  0  0  0  0  0  0  0  0  0  0  0
   13.4366    9.0289    1.1411 H   0  0  0  0  0  0  0  0  0  0  0  0
   14.9834    7.1931    0.7338 H   0  0  0  0  0  0  0  0  0  0  0  0
   14.1169    6.2178    1.9792 H   0  0  0  0  0  0  0  0  0  0  0  0
   13.2679    6.7650    0.4809 H   0  0  0  0  0  0  0  0  0  0  0  0
   14.8391    8.3407    3.6478 H   0  0  0  0  0  0  0  0  0  0  0  0
   14.5198    9.8920    3.0090 H   0  0  0  0  0  0  0  0  0  0  0  0
   15.5918    8.8686    2.2192 H   0  0  0  0  0  0  0  0  0  0  0  0
   12.4693   10.1517    3.9669 H   0  0  0  0  0  0  0  0  0  0  0  0
   12.0657   10.4410    2.2534 H   0  0  0  0  0  0  0  0  0  0  0  0
   10.2293    9.7359    4.5458 H   0  0  0  0  0  0  0  0  0  0  0  0
   10.1463   11.1028    3.3851 H   0  0  0  0  0  0  0  0  0  0  0  0
  1  2  1  0
  2  3  1  0
  2  4  1  0
  4  5  1  0
  5  6  1  0
  6  7  2  0
  6  8  1  0
  8  9  1  0
  9 10  1  0
 10 11  1  0
 11 12  1  0
 12 13  1  0
 12 14  1  0
 11 15  1  0
 15 16  1  0
 16  8  1  0
  1 17  1  0
  1 18  1  0
  1 19  1  0
  2 20  1  0
  3 21  1  0
  4 22  1  0
  4 23  1  0
  5 24  1  0
  8 25  1  0
  9 26  1  0
  9 27  1  0
 10 28  1  0
 10 29  1  0
 11 30  1  0
 12 31  1  0
 13 32  1  0
 13 33  1  0
 13 34  1  0
 14 35  1  0
 14 36  1  0
 14 37  1  0
 15 38  1  0
 15 39  1  0
 16 40  1  0
 16 41  1  0
M  CHG  1  14   1
M  END
>  <EmbedRMS>  (67) 
0.3113970459893027

$$$$

     RDKit          3D

 38 38  0  0  0  0  0  0  0  0999 V2000
   14.0281    7.0397    1.2343 C   0  0  0  0  0  0  0  0  0  0  0  0
   13.6693    8.3364    1.9396 C   0  0  0  0  0  0  0  0  0  0  0  0
   14.6134    8.7687    2.9623 N   0  0  0  0  0  4  0  0  0  0  0  0
   12.1578    8.5899    2.2120 C   0  0  0  0  0  0  0  0  0  0  0  0
   11.2405    7.3772    2.4519 C   0  0  0  0  0  0  0  0  0  0  0  0
    9.7885    7.8243    2.2114 C   0  0  0  0  0  0  0  0  0  0  0  0
    9.4114    8.9838    3.1519 C   0  0  0  0  0  0  0  0  0  0  0  0
    8.0137    9.4644    2.8764 C   0  0  0  0  0  0  0  0  0  0  0  0
    7.6236    9.6755    1.6931 O   0  0  0  0  0  0  0  0  0  0  0  0
    7.1388    9.7055    3.9791 N   0  0  0  0  0  0  0  0  0  0  0  0
    5.7610   10.1385    3.7918 C   0  0  0  0  0  0  0  0  0  0  0  0
    5.0964   10.2807    5.1228 C   0  0  0  0  0  0  0  0  0  0  0  0
    5.2137   11.4974    5.8582 N   0  0  0  0  0  0  0  0  0  0  0  0
    4.4940    9.2972    5.6288 O   0  0  0  0  0  0  0  0  0  0  0  0
   10.4061   10.1586    3.0871 C   0  0  0  0  0  0  0  0  0  0  0  0
   11.8556    9.6808    3.2542 C   0  0  0  0  0  0  0  0  0  0  0  0
   13.3771    6.8823    0.3473 H   0  0  0  0  0  0  0  0  0  0  0  0
   13.9078    6.1867    1.9346 H   0  0  0  0  0  0  0  0  0  0  0  0
   15.0832    7.0603    0.8857 H   0  0  0  0  0  0  0  0  0  0  0  0
   13.8831    9.0582    1.1114 H   0  0  0  0  0  0  0  0  0  0  0  0
   15.5896    8.5022    2.6974 H   0  0  0  0  0  0  0  0  0  0  0  0
   14.3777    8.3021    3.8677 H   0  0  0  0  0  0  0  0  0  0  0  0
   14.5961    9.8060    3.0881 H   0  0  0  0  0  0  0  0  0  0  0  0
   11.8027    9.0089    1.2373 H   0  0  0  0  0  0  0  0  0  0  0  0
   11.3695    6.9868    3.4852 H   0  0  0  0  0  0  0  0  0  0  0  0
   11.4632    6.5568    1.7395 H   0  0  0  0  0  0  0  0  0  0  0  0
    9.6589    8.1233    1.1472 H   0  0  0  0  0  0  0  0  0  0  0  0
    9.1130    6.9617    2.4019 H   0  0  0  0  0  0  0  0  0  0  0  0
    9.4464    8.5784    4.1883 H   0  0  0  0  0  0  0  0  0  0  0  0
    7.5087    9.5678    4.9482 H   0  0  0  0  0  0  0  0  0  0  0  0
    5.7440   11.1125    3.2573 H   0  0  0  0  0  0  0  0  0  0  0  0
    5.2145    9.3890    3.1791 H   0  0  0  0  0  0  0  0  0  0  0  0
    5.7459   12.3067    5.4681 H   0  0  0  0  0  0  0  0  0  0  0  0
    4.7721   11.5883    6.8000 H   0  0  0  0  0  0  0  0  0  0  0  0
   10.1715   10.8883    3.8929 H   0  0  0  0  0  0  0  0  0  0  0  0
   10.3032   10.6869    2.1126 H   0  0  0  0  0  0  0  0  0  0  0  0
   12.5086   10.5642    3.0949 H   0  0  0  0  0  0  0  0  0  0  0  0
   12.0204    9.2949    4.2840 H   0  0  0  0  0  0  0  0  0  0  0  0
  1  2  1  0
  2  3  1  0
  2  4  1  0
  4  5  1  0
  5  6  1  0
  6  7  1  0
  7  8  1  0
  8  9  2  0
  8 10  1  0
 10 11  1  0
 11 12  1  0
 12 13  1  0
 12 14  2  0
  7 15  1  0
 15 16  1  0
 16  4  1  0
  1 17  1  0
  1 18  1  0
  1 19  1  0
  2 20  1  0
  3 21  1  0
  3 22  1  0
  3 23  1  0
  4 24  1  0
  5 25  1  0
  5 26  1  0
  6 27  1  0
  6 28  1  0
  7 29  1  0
 10 30  1  0
 11 31  1  0
 11 32  1  0
 13 33  1  0
 13 34  1  0
 15 35  1  0
 15 36  1  0
 16 37  1  0
 16 38  1  0
M  CHG  1   3   1
M  END
>  <EmbedRMS>  (68) 
0.1933160619529778

$$$$

     RDKit          3D

 41 41  0  0  0  0  0  0  0  0999 V2000
   14.0112    7.0502    1.2530 C   0  0  0  0  0  0  0  0  0  0  0  0
   13.6006    8.3242    1.9896 C   0  0  0  0  0  0  0  0  0  0  0  0
   14.7025    8.8915    2.7695 N   0  0  0  0  0  4  0  0  0  0  0  0
   12.2611    8.3275    2.7668 C   0  0  0  0  0  0  0  0  0  0  0  0
   11.1789    7.4405    2.1342 C   0  0  0  0  0  0  0  0  0  0  0  0
    9.7438    7.7286    2.5427 C   0  0  0  0  0  0  0  0  0  0  0  0
    9.4497    9.2048    2.6337 C   0  0  0  0  0  0  0  0  0  0  0  0
    7.9879    9.5295    2.7214 C   0  0  0  0  0  0  0  0  0  0  0  0
    7.4128    9.6770    1.6163 O   0  0  0  0  0  0  0  0  0  0  0  0
    7.2353    9.7042    3.9341 N   0  0  0  0  0  0  0  0  0  0  0  0
    5.8340   10.1508    3.8938 C   0  0  0  0  0  0  0  0  0  0  0  0
    5.7099   11.6592    4.1550 C   0  0  0  0  0  0  0  0  0  0  0  0
    6.2760   12.5224    3.0236 C   0  0  0  0  0  0  0  0  0  0  0  0
    7.6715   12.5833    3.1173 O   0  0  0  0  0  0  0  0  0  0  0  0
   10.3857   10.0213    3.4811 C   0  0  0  0  0  0  0  0  0  0  0  0
   11.8496    9.7812    3.1206 C   0  0  0  0  0  0  0  0  0  0  0  0
   14.1168    6.2176    1.9797 H   0  0  0  0  0  0  0  0  0  0  0  0
   13.2672    6.7640    0.4815 H   0  0  0  0  0  0  0  0  0  0  0  0
   14.9828    7.1924    0.7335 H   0  0  0  0  0  0  0  0  0  0  0  0
   13.4368    9.0282    1.1406 H   0  0  0  0  0  0  0  0  0  0  0  0
   14.8376    8.3417    3.6487 H   0  0  0  0  0  0  0  0  0  0  0  0
   14.5205    9.8923    3.0071 H   0  0  0  0  0  0  0  0  0  0  0  0
   15.5921    8.8665    2.2199 H   0  0  0  0  0  0  0  0  0  0  0  0
   12.4679    7.8409    3.7467 H   0  0  0  0  0  0  0  0  0  0  0  0
   11.2133    7.5919    1.0331 H   0  0  0  0  0  0  0  0  0  0  0  0
   11.4044    6.3677    2.3239 H   0  0  0  0  0  0  0  0  0  0  0  0
    9.5597    7.2741    3.5407 H   0  0  0  0  0  0  0  0  0  0  0  0
    9.0536    7.2385    1.8196 H   0  0  0  0  0  0  0  0  0  0  0  0
    9.7211    9.5640    1.6100 H   0  0  0  0  0  0  0  0  0  0  0  0
    7.7202    9.6263    4.8558 H   0  0  0  0  0  0  0  0  0  0  0  0
    5.2756    9.6127    4.6895 H   0  0  0  0  0  0  0  0  0  0  0  0
    5.3471    9.8825    2.9314 H   0  0  0  0  0  0  0  0  0  0  0  0
    6.2064   11.9192    5.1154 H   0  0  0  0  0  0  0  0  0  0  0  0
    4.6296   11.8978    4.2654 H   0  0  0  0  0  0  0  0  0  0  0  0
    5.8625   13.5509    3.1198 H   0  0  0  0  0  0  0  0  0  0  0  0
    5.9690   12.1143    2.0344 H   0  0  0  0  0  0  0  0  0  0  0  0
    7.9776   13.1131    2.3361 H   0  0  0  0  0  0  0  0  0  0  0  0
   10.2319    9.7363    4.5446 H   0  0  0  0  0  0  0  0  0  0  0  0
   10.1501   11.1047    3.3855 H   0  0  0  0  0  0  0  0  0  0  0  0
   12.0661   10.4408    2.2513 H   0  0  0  0  0  0  0  0  0  0  0  0
   12.4705   10.1525    3.9649 H   0  0  0  0  0  0  0  0  0  0  0  0
  1  2  1  0
  2  3  1  0
  2  4  1  0
  4  5  1  0
  5  6  1  0
  6  7  1  0
  7  8  1  0
  8  9  2  0
  8 10  1  0
 10 11  1  0
 11 12  1  0
 12 13  1  0
 13 14  1  0
  7 15  1  0
 15 16  1  0
 16  4  1  0
  1 17  1  0
  1 18  1  0
  1 19  1  0
  2 20  1  0
  3 21  1  0
  3 22  1  0
  3 23  1  0
  4 24  1  0
  5 25  1  0
  5 26  1  0
  6 27  1  0
  6 28  1  0
  7 29  1  0
 10 30  1  0
 11 31  1  0
 11 32  1  0
 12 33  1  0
 12 34  1  0
 13 35  1  0
 13 36  1  0
 14 37  1  0
 15 38  1  0
 15 39  1  0
 16 40  1  0
 16 41  1  0
M  CHG  1   3   1
M  END
>  <EmbedRMS>  (69) 
0.31188721664002633

$$$$

     RDKit          3D

 41 41  0  0  0  0  0  0  0  0999 V2000
    6.2087   12.5260    4.6401 C   0  0  0  0  0  0  0  0  0  0  0  0
    5.7640   11.6400    3.4758 C   0  0  0  0  0  0  0  0  0  0  0  0
    4.4679   11.9935    3.0646 O   0  0  0  0  0  0  0  0  0  0  0  0
    5.8328   10.1467    3.8641 C   0  0  0  0  0  0  0  0  0  0  0  0
    7.2282    9.6850    3.9299 N   0  0  0  0  0  0  0  0  0  0  0  0
    7.9894    9.5239    2.7207 C   0  0  0  0  0  0  0  0  0  0  0  0
    7.4161    9.6728    1.6144 O   0  0  0  0  0  0  0  0  0  0  0  0
    9.4505    9.2009    2.6353 C   0  0  0  0  0  0  0  0  0  0  0  0
    9.7454    7.7255    2.5443 C   0  0  0  0  0  0  0  0  0  0  0  0
   11.1802    7.4393    2.1347 C   0  0  0  0  0  0  0  0  0  0  0  0
   12.2615    8.3272    2.7673 C   0  0  0  0  0  0  0  0  0  0  0  0
   13.6008    8.3246    1.9898 C   0  0  0  0  0  0  0  0  0  0  0  0
   14.0116    7.0508    1.2528 C   0  0  0  0  0  0  0  0  0  0  0  0
   14.7027    8.8918    2.7697 N   0  0  0  0  0  4  0  0  0  0  0  0
   11.8490    9.7807    3.1221 C   0  0  0  0  0  0  0  0  0  0  0  0
   10.3844   10.0198    3.4822 C   0  0  0  0  0  0  0  0  0  0  0  0
    7.2594   12.2967    4.9190 H   0  0  0  0  0  0  0  0  0  0  0  0
    5.5569   12.3697    5.5263 H   0  0  0  0  0  0  0  0  0  0  0  0
    6.1519   13.5941    4.3412 H   0  0  0  0  0  0  0  0  0  0  0  0
    6.4447   11.8349    2.6207 H   0  0  0  0  0  0  0  0  0  0  0  0
    3.8513   11.8005    3.8192 H   0  0  0  0  0  0  0  0  0  0  0  0
    5.3439    9.9870    4.8501 H   0  0  0  0  0  0  0  0  0  0  0  0
    5.2758    9.5353    3.1209 H   0  0  0  0  0  0  0  0  0  0  0  0
    7.6600    9.4551    4.8526 H   0  0  0  0  0  0  0  0  0  0  0  0
    9.7227    9.5597    1.6116 H   0  0  0  0  0  0  0  0  0  0  0  0
    9.0553    7.2345    1.8218 H   0  0  0  0  0  0  0  0  0  0  0  0
    9.5627    7.2709    3.5425 H   0  0  0  0  0  0  0  0  0  0  0  0
   11.2138    7.5913    1.0337 H   0  0  0  0  0  0  0  0  0  0  0  0
   11.4070    6.3666    2.3237 H   0  0  0  0  0  0  0  0  0  0  0  0
   12.4690    7.8404    3.7470 H   0  0  0  0  0  0  0  0  0  0  0  0
   13.4366    9.0289    1.1411 H   0  0  0  0  0  0  0  0  0  0  0  0
   14.9834    7.1931    0.7338 H   0  0  0  0  0  0  0  0  0  0  0  0
   14.1169    6.2178    1.9792 H   0  0  0  0  0  0  0  0  0  0  0  0
   13.2679    6.7650    0.4809 H   0  0  0  0  0  0  0  0  0  0  0  0
   14.8391    8.3407    3.6478 H   0  0  0  0  0  0  0  0  0  0  0  0
   14.5198    9.8920    3.0090 H   0  0  0  0  0  0  0  0  0  0  0  0
   15.5918    8.8686    2.2192 H   0  0  0  0  0  0  0  0  0  0  0  0
   12.4693   10.1517    3.9669 H   0  0  0  0  0  0  0  0  0  0  0  0
   12.0657   10.4410    2.2534 H   0  0  0  0  0  0  0  0  0  0  0  0
   10.2293    9.7359    4.5458 H   0  0  0  0  0  0  0  0  0  0  0  0
   10.1463   11.1028    3.3851 H   0  0  0  0  0  0  0  0  0  0  0  0
  1  2  1  0
  2  3  1  0
  2  4  1  0
  4  5  1  0
  5  6  1  0
  6  7  2  0
  6  8  1  0
  8  9  1  0
  9 10  1  0
 10 11  1  0
 11 12  1  0
 12 13  1  0
 12 14  1  0
 11 15  1  0
 15 16  1  0
 16  8  1  0
  1 17  1  0
  1 18  1  0
  1 19  1  0
  2 20  1  0
  3 21  1  0
  4 22  1  0
  4 23  1  0
  5 24  1  0
  8 25  1  0
  9 26  1  0
  9 27  1  0
 10 28  1  0
 10 29  1  0
 11 30  1  0
 12 31  1  0
 13 32  1  0
 13 33  1  0
 13 34  1  0
 14 35  1  0
 14 36  1  0
 14 37  1  0
 15 38  1  0
 15 39  1  0
 16 40  1  0
 16 41  1  0
M  CHG  1  14   1
M  END
>  <EmbedRMS>  (70) 
0.3113970459893027

$$$$

     RDKit          3D

 44 44  0  0  0  0  0  0  0  0999 V2000
    6.3620   12.3940    2.6941 C   0  0  0  0  0  0  0  0  0  0  0  0
    5.7998   11.7355    3.9626 C   0  0  0  0  0  0  0  0  0  0  0  0
    4.3698   12.2342    4.2395 C   0  0  0  0  0  0  0  0  0  0  0  0
    3.5008   11.9006    3.1892 O   0  0  0  0  0  0  0  0  0  0  0  0
    5.8521   10.1921    3.8973 C   0  0  0  0  0  0  0  0  0  0  0  0
    7.2407    9.7034    3.9333 N   0  0  0  0  0  0  0  0  0  0  0  0
    7.9901    9.5297    2.7189 C   0  0  0  0  0  0  0  0  0  0  0  0
    7.4071    9.6684    1.6167 O   0  0  0  0  0  0  0  0  0  0  0  0
    9.4514    9.2025    2.6217 C   0  0  0  0  0  0  0  0  0  0  0  0
    9.7372    7.7228    2.5346 C   0  0  0  0  0  0  0  0  0  0  0  0
   11.1755    7.4150    2.1495 C   0  0  0  0  0  0  0  0  0  0  0  0
   12.2298    8.2936    2.8210 C   0  0  0  0  0  0  0  0  0  0  0  0
   13.7080    7.9213    2.4415 C   0  0  0  0  0  0  0  0  0  0  0  0
   13.9238    7.3284    1.0388 C   0  0  0  0  0  0  0  0  0  0  0  0
   14.6425    9.0273    2.6703 N   0  0  0  0  0  4  0  0  0  0  0  0
   11.8785    9.7844    2.9957 C   0  0  0  0  0  0  0  0  0  0  0  0
   10.4230   10.0508    3.4119 C   0  0  0  0  0  0  0  0  0  0  0  0
    7.4550   12.2179    2.6197 H   0  0  0  0  0  0  0  0  0  0  0  0
    6.2094   13.4939    2.7306 H   0  0  0  0  0  0  0  0  0  0  0  0
    5.8646   11.9949    1.7846 H   0  0  0  0  0  0  0  0  0  0  0  0
    6.4294   12.0622    4.8202 H   0  0  0  0  0  0  0  0  0  0  0  0
    4.3761   13.3359    4.4126 H   0  0  0  0  0  0  0  0  0  0  0  0
    3.9900   11.7694    5.1743 H   0  0  0  0  0  0  0  0  0  0  0  0
    3.5319   12.6494    2.5383 H   0  0  0  0  0  0  0  0  0  0  0  0
    5.3205    9.7727    4.7789 H   0  0  0  0  0  0  0  0  0  0  0  0
    5.3212    9.8151    2.9959 H   0  0  0  0  0  0  0  0  0  0  0  0
    7.7200    9.5855    4.8537 H   0  0  0  0  0  0  0  0  0  0  0  0
    9.7010    9.5353    1.5834 H   0  0  0  0  0  0  0  0  0  0  0  0
    9.5332    7.2728    3.5307 H   0  0  0  0  0  0  0  0  0  0  0  0
    9.0532    7.2367    1.8030 H   0  0  0  0  0  0  0  0  0  0  0  0
   11.2487    7.5623    1.0504 H   0  0  0  0  0  0  0  0  0  0  0  0
   11.3822    6.3420    2.3591 H   0  0  0  0  0  0  0  0  0  0  0  0
   12.1628    7.9510    3.8809 H   0  0  0  0  0  0  0  0  0  0  0  0
   14.0116    7.0974    3.1303 H   0  0  0  0  0  0  0  0  0  0  0  0
   13.3798    6.3675    0.9252 H   0  0  0  0  0  0  0  0  0  0  0  0
   13.5739    8.0446    0.2655 H   0  0  0  0  0  0  0  0  0  0  0  0
   15.0010    7.1190    0.8660 H   0  0  0  0  0  0  0  0  0  0  0  0
   14.5976    9.3377    3.6676 H   0  0  0  0  0  0  0  0  0  0  0  0
   14.4338    9.8276    2.0305 H   0  0  0  0  0  0  0  0  0  0  0  0
   15.6235    8.7094    2.4935 H   0  0  0  0  0  0  0  0  0  0  0  0
   12.0583   10.2953    2.0250 H   0  0  0  0  0  0  0  0  0  0  0  0
   12.5365   10.2615    3.7525 H   0  0  0  0  0  0  0  0  0  0  0  0
   10.1902   11.1304    3.2766 H   0  0  0  0  0  0  0  0  0  0  0  0
   10.3064    9.8095    4.4906 H   0  0  0  0  0  0  0  0  0  0  0  0
  1  2  1  0
  2  3  1  0
  3  4  1  0
  2  5  1  0
  5  6  1  0
  6  7  1  0
  7  8  2  0
  7  9  1  0
  9 10  1  0
 10 11  1  0
 11 12  1  0
 12 13  1  0
 13 14  1  0
 13 15  1  0
 12 16  1  0
 16 17  1  0
 17  9  1  0
  1 18  1  0
  1 19  1  0
  1 20  1  0
  2 21  1  0
  3 22  1  0
  3 23  1  0
  4 24  1  0
  5 25  1  0
  5 26  1  0
  6 27  1  0
  9 28  1  0
 10 29  1  0
 10 30  1  0
 11 31  1  0
 11 32  1  0
 12 33  1  0
 13 34  1  0
 14 35  1  0
 14 36  1  0
 14 37  1  0
 15 38  1  0
 15 39  1  0
 15 40  1  0
 16 41  1  0
 16 42  1  0
 17 43  1  0
 17 44  1  0
M  CHG  1  15   1
M  END
>  <EmbedRMS>  (71) 
0.2703813095472554

$$$$

     RDKit          3D

 41 41  0  0  0  0  0  0  0  0999 V2000
   14.0115    7.0506    1.2528 C   0  0  0  0  0  0  0  0  0  0  0  0
   13.6007    8.3244    1.9897 C   0  0  0  0  0  0  0  0  0  0  0  0
   14.7026    8.8917    2.7697 N   0  0  0  0  0  4  0  0  0  0  0  0
   12.2613    8.3272    2.7670 C   0  0  0  0  0  0  0  0  0  0  0  0
   11.1798    7.4395    2.1343 C   0  0  0  0  0  0  0  0  0  0  0  0
    9.7449    7.7260    2.5438 C   0  0  0  0  0  0  0  0  0  0  0  0
    9.4498    9.2016    2.6348 C   0  0  0  0  0  0  0  0  0  0  0  0
    7.9883    9.5247    2.7224 C   0  0  0  0  0  0  0  0  0  0  0  0
    7.4124    9.6708    1.6173 O   0  0  0  0  0  0  0  0  0  0  0  0
    7.2314    9.6900    3.9341 N   0  0  0  0  0  0  0  0  0  0  0  0
    5.8391   10.1600    3.8802 C   0  0  0  0  0  0  0  0  0  0  0  0
    5.7848   11.6424    3.4802 C   0  0  0  0  0  0  0  0  0  0  0  0
    4.4046   12.0986    3.3235 N   0  0  0  0  0  0  0  0  0  0  0  0
    4.0979   13.4521    2.9752 C   0  0  0  0  0  0  0  0  0  0  0  0
    5.0150   14.2987    2.8019 O   0  0  0  0  0  0  0  0  0  0  0  0
   10.3846   10.0200    3.4814 C   0  0  0  0  0  0  0  0  0  0  0  0
   11.8491    9.7807    3.1212 C   0  0  0  0  0  0  0  0  0  0  0  0
   14.9833    7.1928    0.7338 H   0  0  0  0  0  0  0  0  0  0  0  0
   14.1168    6.2176    1.9793 H   0  0  0  0  0  0  0  0  0  0  0  0
   13.2678    6.7648    0.4810 H   0  0  0  0  0  0  0  0  0  0  0  0
   13.4367    9.0286    1.1409 H   0  0  0  0  0  0  0  0  0  0  0  0
   15.5920    8.8676    2.2197 H   0  0  0  0  0  0  0  0  0  0  0  0
   14.5201    9.8921    3.0081 H   0  0  0  0  0  0  0  0  0  0  0  0
   14.8383    8.3412    3.6484 H   0  0  0  0  0  0  0  0  0  0  0  0
   12.4685    7.8405    3.7468 H   0  0  0  0  0  0  0  0  0  0  0  0
   11.4064    6.3669    2.3233 H   0  0  0  0  0  0  0  0  0  0  0  0
   11.2136    7.5916    1.0333 H   0  0  0  0  0  0  0  0  0  0  0  0
    9.5620    7.2714    3.5419 H   0  0  0  0  0  0  0  0  0  0  0  0
    9.0548    7.2351    1.8212 H   0  0  0  0  0  0  0  0  0  0  0  0
    9.7207    9.5606    1.6108 H   0  0  0  0  0  0  0  0  0  0  0  0
    7.6691    9.4627    4.8547 H   0  0  0  0  0  0  0  0  0  0  0  0
    5.2621    9.5419    3.1581 H   0  0  0  0  0  0  0  0  0  0  0  0
    5.3740   10.0392    4.8825 H   0  0  0  0  0  0  0  0  0  0  0  0
    6.3234   11.8023    2.5228 H   0  0  0  0  0  0  0  0  0  0  0  0
    6.2851   12.2470    4.2676 H   0  0  0  0  0  0  0  0  0  0  0  0
    3.6094   11.4357    3.4671 H   0  0  0  0  0  0  0  0  0  0  0  0
    3.0657   13.7552    2.8606 H   0  0  0  0  0  0  0  0  0  0  0  0
   10.1471   11.1031    3.3845 H   0  0  0  0  0  0  0  0  0  0  0  0
   10.2299    9.7359    4.5451 H   0  0  0  0  0  0  0  0  0  0  0  0
   12.4695   10.1520    3.9658 H   0  0  0  0  0  0  0  0  0  0  0  0
   12.0655   10.4407    2.2522 H   0  0  0  0  0  0  0  0  0  0  0  0
  1  2  1  0
  2  3  1  0
  2  4  1  0
  4  5  1  0
  5  6  1  0
  6  7  1  0
  7  8  1  0
  8  9  2  0
  8 10  1  0
 10 11  1  0
 11 12  1  0
 12 13  1  0
 13 14  1  0
 14 15  2  0
  7 16  1  0
 16 17  1  0
 17  4  1  0
  1 18  1  0
  1 19  1  0
  1 20  1  0
  2 21  1  0
  3 22  1  0
  3 23  1  0
  3 24  1  0
  4 25  1  0
  5 26  1  0
  5 27  1  0
  6 28  1  0
  6 29  1  0
  7 30  1  0
 10 31  1  0
 11 32  1  0
 11 33  1  0
 12 34  1  0
 12 35  1  0
 13 36  1  0
 14 37  1  0
 16 38  1  0
 16 39  1  0
 17 40  1  0
 17 41  1  0
M  CHG  1   3   1
M  END
>  <EmbedRMS>  (72) 
0.30207850723488733

$$$$

     RDKit          3D

 41 41  0  0  0  0  0  0  0  0999 V2000
    4.6460   11.6759    7.1724 C   0  0  0  0  0  0  0  0  0  0  0  0
    5.2633   11.4940    5.8659 N   0  0  0  0  0  0  0  0  0  0  0  0
    5.1493   10.2629    5.1439 C   0  0  0  0  0  0  0  0  0  0  0  0
    4.5014    9.2956    5.6277 O   0  0  0  0  0  0  0  0  0  0  0  0
    5.8086   10.1135    3.8127 C   0  0  0  0  0  0  0  0  0  0  0  0
    7.2095    9.6833    3.9371 N   0  0  0  0  0  0  0  0  0  0  0  0
    7.9808    9.5180    2.7350 C   0  0  0  0  0  0  0  0  0  0  0  0
    7.4142    9.6752    1.6244 O   0  0  0  0  0  0  0  0  0  0  0  0
    9.4440    9.1935    2.6630 C   0  0  0  0  0  0  0  0  0  0  0  0
    9.7658    7.7143    2.4337 C   0  0  0  0  0  0  0  0  0  0  0  0
   11.2644    7.3644    2.5408 C   0  0  0  0  0  0  0  0  0  0  0  0
   12.1433    8.5869    2.2329 C   0  0  0  0  0  0  0  0  0  0  0  0
   13.6544    8.3400    1.9332 C   0  0  0  0  0  0  0  0  0  0  0  0
   14.0135    7.0449    1.2245 C   0  0  0  0  0  0  0  0  0  0  0  0
   14.6174    8.7741    2.9396 N   0  0  0  0  0  4  0  0  0  0  0  0
   11.8904    9.6848    3.2864 C   0  0  0  0  0  0  0  0  0  0  0  0
   10.4058   10.0816    3.4356 C   0  0  0  0  0  0  0  0  0  0  0  0
    3.5459   11.5501    7.0899 H   0  0  0  0  0  0  0  0  0  0  0  0
    4.8632   12.6960    7.5536 H   0  0  0  0  0  0  0  0  0  0  0  0
    5.0530   10.9310    7.8883 H   0  0  0  0  0  0  0  0  0  0  0  0
    5.8124   12.2820    5.4541 H   0  0  0  0  0  0  0  0  0  0  0  0
    5.2457    9.3665    3.2110 H   0  0  0  0  0  0  0  0  0  0  0  0
    5.7655   11.0860    3.2759 H   0  0  0  0  0  0  0  0  0  0  0  0
    7.6527    9.5270    4.8705 H   0  0  0  0  0  0  0  0  0  0  0  0
    9.6833    9.5857    1.6449 H   0  0  0  0  0  0  0  0  0  0  0  0
    9.2152    7.1104    3.1876 H   0  0  0  0  0  0  0  0  0  0  0  0
    9.3851    7.3989    1.4351 H   0  0  0  0  0  0  0  0  0  0  0  0
   11.4740    6.5318    1.8378 H   0  0  0  0  0  0  0  0  0  0  0  0
   11.4952    7.0010    3.5664 H   0  0  0  0  0  0  0  0  0  0  0  0
   11.7498    8.9804    1.2663 H   0  0  0  0  0  0  0  0  0  0  0  0
   13.8441    9.0654    1.1031 H   0  0  0  0  0  0  0  0  0  0  0  0
   15.0584    7.0793    0.8474 H   0  0  0  0  0  0  0  0  0  0  0  0
   13.3402    6.8740    0.3569 H   0  0  0  0  0  0  0  0  0  0  0  0
   13.9243    6.1936    1.9314 H   0  0  0  0  0  0  0  0  0  0  0  0
   15.5927    8.5554    2.6308 H   0  0  0  0  0  0  0  0  0  0  0  0
   14.5660    9.8051    3.1020 H   0  0  0  0  0  0  0  0  0  0  0  0
   14.4336    8.2664    3.8348 H   0  0  0  0  0  0  0  0  0  0  0  0
   12.2736    9.3421    4.2727 H   0  0  0  0  0  0  0  0  0  0  0  0
   12.4550   10.5998    3.0047 H   0  0  0  0  0  0  0  0  0  0  0  0
   10.1351   10.0261    4.5122 H   0  0  0  0  0  0  0  0  0  0  0  0
   10.2667   11.1445    3.1312 H   0  0  0  0  0  0  0  0  0  0  0  0
  1  2  1  0
  2  3  1  0
  3  4  2  0
  3  5  1  0
  5  6  1  0
  6  7  1  0
  7  8  2  0
  7  9  1  0
  9 10  1  0
 10 11  1  0
 11 12  1  0
 12 13  1  0
 13 14  1  0
 13 15  1  0
 12 16  1  0
 16 17  1  0
 17  9  1  0
  1 18  1  0
  1 19  1  0
  1 20  1  0
  2 21  1  0
  5 22  1  0
  5 23  1  0
  6 24  1  0
  9 25  1  0
 10 26  1  0
 10 27  1  0
 11 28  1  0
 11 29  1  0
 12 30  1  0
 13 31  1  0
 14 32  1  0
 14 33  1  0
 14 34  1  0
 15 35  1  0
 15 36  1  0
 15 37  1  0
 16 38  1  0
 16 39  1  0
 17 40  1  0
 17 41  1  0
M  CHG  1  15   1
M  END
>  <EmbedRMS>  (73) 
0.2569057114362328

$$$$

     RDKit          3D

 44 44  0  0  0  0  0  0  0  0999 V2000
    4.4368    8.5830    1.3291 C   0  0  0  0  0  0  0  0  0  0  0  0
    5.0041    7.9435    2.5953 C   0  0  0  0  0  0  0  0  0  0  0  0
    4.8218    8.8406    3.8314 C   0  0  0  0  0  0  0  0  0  0  0  0
    5.0607    8.0778    4.9850 O   0  0  0  0  0  0  0  0  0  0  0  0
    5.7382   10.0786    3.8221 C   0  0  0  0  0  0  0  0  0  0  0  0
    7.1400    9.7018    3.9851 N   0  0  0  0  0  0  0  0  0  0  0  0
    8.0161    9.4758    2.8762 C   0  0  0  0  0  0  0  0  0  0  0  0
    7.6206    9.7018    1.6971 O   0  0  0  0  0  0  0  0  0  0  0  0
    9.4217    8.9882    3.1213 C   0  0  0  0  0  0  0  0  0  0  0  0
    9.7820    7.9373    2.0770 C   0  0  0  0  0  0  0  0  0  0  0  0
   11.1456    7.3166    2.3199 C   0  0  0  0  0  0  0  0  0  0  0  0
   12.2326    8.2988    2.7958 C   0  0  0  0  0  0  0  0  0  0  0  0
   13.7098    7.9145    2.4297 C   0  0  0  0  0  0  0  0  0  0  0  0
   13.9319    7.3321    1.0257 C   0  0  0  0  0  0  0  0  0  0  0  0
   14.6485    9.0158    2.6728 N   0  0  0  0  0  4  0  0  0  0  0  0
   11.8869    9.7891    2.9963 C   0  0  0  0  0  0  0  0  0  0  0  0
   10.3956   10.1699    3.0626 C   0  0  0  0  0  0  0  0  0  0  0  0
    4.5001    7.8562    0.4920 H   0  0  0  0  0  0  0  0  0  0  0  0
    3.3701    8.8569    1.4735 H   0  0  0  0  0  0  0  0  0  0  0  0
    5.0123    9.4852    1.0408 H   0  0  0  0  0  0  0  0  0  0  0  0
    4.4494    6.9951    2.7672 H   0  0  0  0  0  0  0  0  0  0  0  0
    6.0677    7.6678    2.4459 H   0  0  0  0  0  0  0  0  0  0  0  0
    3.7631    9.1923    3.8475 H   0  0  0  0  0  0  0  0  0  0  0  0
    4.6708    8.5786    5.7490 H   0  0  0  0  0  0  0  0  0  0  0  0
    5.4504   10.7346    4.6721 H   0  0  0  0  0  0  0  0  0  0  0  0
    5.5946   10.6857    2.9045 H   0  0  0  0  0  0  0  0  0  0  0  0
    7.4935    9.5336    4.9541 H   0  0  0  0  0  0  0  0  0  0  0  0
    9.4806    8.5189    4.1289 H   0  0  0  0  0  0  0  0  0  0  0  0
    9.7829    8.4041    1.0656 H   0  0  0  0  0  0  0  0  0  0  0  0
    9.0162    7.1292    2.0723 H   0  0  0  0  0  0  0  0  0  0  0  0
   11.4280    6.8368    1.3644 H   0  0  0  0  0  0  0  0  0  0  0  0
   11.0321    6.4807    3.0491 H   0  0  0  0  0  0  0  0  0  0  0  0
   12.2360    8.0283    3.8802 H   0  0  0  0  0  0  0  0  0  0  0  0
   14.0067    7.0845    3.1155 H   0  0  0  0  0  0  0  0  0  0  0  0
   13.4426    7.9757    0.2642 H   0  0  0  0  0  0  0  0  0  0  0  0
   15.0163    7.2726    0.7923 H   0  0  0  0  0  0  0  0  0  0  0  0
   13.5342    6.2980    0.9557 H   0  0  0  0  0  0  0  0  0  0  0  0
   14.5097    9.7856    1.9793 H   0  0  0  0  0  0  0  0  0  0  0  0
   14.5408    9.3804    3.6465 H   0  0  0  0  0  0  0  0  0  0  0  0
   15.6316    8.6688    2.5840 H   0  0  0  0  0  0  0  0  0  0  0  0
   12.3173   10.3475    2.1381 H   0  0  0  0  0  0  0  0  0  0  0  0
   12.3926   10.1907    3.9043 H   0  0  0  0  0  0  0  0  0  0  0  0
   10.1563   10.7904    2.1685 H   0  0  0  0  0  0  0  0  0  0  0  0
   10.2223   10.8190    3.9496 H   0  0  0  0  0  0  0  0  0  0  0  0
  1  2  1  0
  2  3  1  0
  3  4  1  0
  3  5  1  0
  5  6  1  0
  6  7  1  0
  7  8  2  0
  7  9  1  0
  9 10  1  0
 10 11  1  0
 11 12  1  0
 12 13  1  0
 13 14  1  0
 13 15  1  0
 12 16  1  0
 16 17  1  0
 17  9  1  0
  1 18  1  0
  1 19  1  0
  1 20  1  0
  2 21  1  0
  2 22  1  0
  3 23  1  0
  4 24  1  0
  5 25  1  0
  5 26  1  0
  6 27  1  0
  9 28  1  0
 10 29  1  0
 10 30  1  0
 11 31  1  0
 11 32  1  0
 12 33  1  0
 13 34  1  0
 14 35  1  0
 14 36  1  0
 14 37  1  0
 15 38  1  0
 15 39  1  0
 15 40  1  0
 16 41  1  0
 16 42  1  0
 17 43  1  0
 17 44  1  0
M  CHG  1  15   1
M  END
>  <EmbedRMS>  (74) 
0.1692382603345377

$$$$

     RDKit          3D

 41 41  0  0  0  0  0  0  0  0999 V2000
    4.6460   11.6759    7.1724 C   0  0  0  0  0  0  0  0  0  0  0  0
    5.2633   11.4940    5.8659 N   0  0  0  0  0  0  0  0  0  0  0  0
    5.1493   10.2629    5.1439 C   0  0  0  0  0  0  0  0  0  0  0  0
    4.5014    9.2956    5.6277 O   0  0  0  0  0  0  0  0  0  0  0  0
    5.8086   10.1135    3.8127 C   0  0  0  0  0  0  0  0  0  0  0  0
    7.2095    9.6833    3.9371 N   0  0  0  0  0  0  0  0  0  0  0  0
    7.9808    9.5180    2.7350 C   0  0  0  0  0  0  0  0  0  0  0  0
    7.4142    9.6752    1.6244 O   0  0  0  0  0  0  0  0  0  0  0  0
    9.4440    9.1935    2.6630 C   0  0  0  0  0  0  0  0  0  0  0  0
    9.7658    7.7143    2.4337 C   0  0  0  0  0  0  0  0  0  0  0  0
   11.2644    7.3644    2.5408 C   0  0  0  0  0  0  0  0  0  0  0  0
   12.1433    8.5869    2.2329 C   0  0  0  0  0  0  0  0  0  0  0  0
   13.6544    8.3400    1.9332 C   0  0  0  0  0  0  0  0  0  0  0  0
   14.0135    7.0449    1.2245 C   0  0  0  0  0  0  0  0  0  0  0  0
   14.6174    8.7741    2.9396 N   0  0  0  0  0  4  0  0  0  0  0  0
   11.8904    9.6848    3.2864 C   0  0  0  0  0  0  0  0  0  0  0  0
   10.4058   10.0816    3.4356 C   0  0  0  0  0  0  0  0  0  0  0  0
    3.5459   11.5501    7.0899 H   0  0  0  0  0  0  0  0  0  0  0  0
    4.8632   12.6960    7.5536 H   0  0  0  0  0  0  0  0  0  0  0  0
    5.0530   10.9310    7.8883 H   0  0  0  0  0  0  0  0  0  0  0  0
    5.8124   12.2820    5.4541 H   0  0  0  0  0  0  0  0  0  0  0  0
    5.2457    9.3665    3.2110 H   0  0  0  0  0  0  0  0  0  0  0  0
    5.7655   11.0860    3.2759 H   0  0  0  0  0  0  0  0  0  0  0  0
    7.6527    9.5270    4.8705 H   0  0  0  0  0  0  0  0  0  0  0  0
    9.6833    9.5857    1.6449 H   0  0  0  0  0  0  0  0  0  0  0  0
    9.2152    7.1104    3.1876 H   0  0  0  0  0  0  0  0  0  0  0  0
    9.3851    7.3989    1.4351 H   0  0  0  0  0  0  0  0  0  0  0  0
   11.4740    6.5318    1.8378 H   0  0  0  0  0  0  0  0  0  0  0  0
   11.4952    7.0010    3.5664 H   0  0  0  0  0  0  0  0  0  0  0  0
   11.7498    8.9804    1.2663 H   0  0  0  0  0  0  0  0  0  0  0  0
   13.8441    9.0654    1.1031 H   0  0  0  0  0  0  0  0  0  0  0  0
   15.0584    7.0793    0.8474 H   0  0  0  0  0  0  0  0  0  0  0  0
   13.3402    6.8740    0.3569 H   0  0  0  0  0  0  0  0  0  0  0  0
   13.9243    6.1936    1.9314 H   0  0  0  0  0  0  0  0  0  0  0  0
   15.5927    8.5554    2.6308 H   0  0  0  0  0  0  0  0  0  0  0  0
   14.5660    9.8051    3.1020 H   0  0  0  0  0  0  0  0  0  0  0  0
   14.4336    8.2664    3.8348 H   0  0  0  0  0  0  0  0  0  0  0  0
   12.2736    9.3421    4.2727 H   0  0  0  0  0  0  0  0  0  0  0  0
   12.4550   10.5998    3.0047 H   0  0  0  0  0  0  0  0  0  0  0  0
   10.1351   10.0261    4.5122 H   0  0  0  0  0  0  0  0  0  0  0  0
   10.2667   11.1445    3.1312 H   0  0  0  0  0  0  0  0  0  0  0  0
  1  2  1  0
  2  3  1  0
  3  4  2  0
  3  5  1  0
  5  6  1  0
  6  7  1  0
  7  8  2  0
  7  9  1  0
  9 10  1  0
 10 11  1  0
 11 12  1  0
 12 13  1  0
 13 14  1  0
 13 15  1  0
 12 16  1  0
 16 17  1  0
 17  9  1  0
  1 18  1  0
  1 19  1  0
  1 20  1  0
  2 21  1  0
  5 22  1  0
  5 23  1  0
  6 24  1  0
  9 25  1  0
 10 26  1  0
 10 27  1  0
 11 28  1  0
 11 29  1  0
 12 30  1  0
 13 31  1  0
 14 32  1  0
 14 33  1  0
 14 34  1  0
 15 35  1  0
 15 36  1  0
 15 37  1  0
 16 38  1  0
 16 39  1  0
 17 40  1  0
 17 41  1  0
M  CHG  1  15   1
M  END
>  <EmbedRMS>  (75) 
0.2569057114362328

$$$$

     RDKit          3D

 41 41  0  0  0  0  0  0  0  0999 V2000
    4.6460   11.6759    7.1724 C   0  0  0  0  0  0  0  0  0  0  0  0
    5.2633   11.4940    5.8659 N   0  0  0  0  0  0  0  0  0  0  0  0
    5.1493   10.2629    5.1439 C   0  0  0  0  0  0  0  0  0  0  0  0
    4.5014    9.2956    5.6277 O   0  0  0  0  0  0  0  0  0  0  0  0
    5.8086   10.1135    3.8127 C   0  0  0  0  0  0  0  0  0  0  0  0
    7.2095    9.6833    3.9371 N   0  0  0  0  0  0  0  0  0  0  0  0
    7.9808    9.5180    2.7350 C   0  0  0  0  0  0  0  0  0  0  0  0
    7.4142    9.6752    1.6244 O   0  0  0  0  0  0  0  0  0  0  0  0
    9.4440    9.1935    2.6630 C   0  0  0  0  0  0  0  0  0  0  0  0
    9.7658    7.7143    2.4337 C   0  0  0  0  0  0  0  0  0  0  0  0
   11.2644    7.3644    2.5408 C   0  0  0  0  0  0  0  0  0  0  0  0
   12.1433    8.5869    2.2329 C   0  0  0  0  0  0  0  0  0  0  0  0
   13.6544    8.3400    1.9332 C   0  0  0  0  0  0  0  0  0  0  0  0
   14.0135    7.0449    1.2245 C   0  0  0  0  0  0  0  0  0  0  0  0
   14.6174    8.7741    2.9396 N   0  0  0  0  0  4  0  0  0  0  0  0
   11.8904    9.6848    3.2864 C   0  0  0  0  0  0  0  0  0  0  0  0
   10.4058   10.0816    3.4356 C   0  0  0  0  0  0  0  0  0  0  0  0
    3.5459   11.5501    7.0899 H   0  0  0  0  0  0  0  0  0  0  0  0
    4.8632   12.6960    7.5536 H   0  0  0  0  0  0  0  0  0  0  0  0
    5.0530   10.9310    7.8883 H   0  0  0  0  0  0  0  0  0  0  0  0
    5.8124   12.2820    5.4541 H   0  0  0  0  0  0  0  0  0  0  0  0
    5.2457    9.3665    3.2110 H   0  0  0  0  0  0  0  0  0  0  0  0
    5.7655   11.0860    3.2759 H   0  0  0  0  0  0  0  0  0  0  0  0
    7.6527    9.5270    4.8705 H   0  0  0  0  0  0  0  0  0  0  0  0
    9.6833    9.5857    1.6449 H   0  0  0  0  0  0  0  0  0  0  0  0
    9.2152    7.1104    3.1876 H   0  0  0  0  0  0  0  0  0  0  0  0
    9.3851    7.3989    1.4351 H   0  0  0  0  0  0  0  0  0  0  0  0
   11.4740    6.5318    1.8378 H   0  0  0  0  0  0  0  0  0  0  0  0
   11.4952    7.0010    3.5664 H   0  0  0  0  0  0  0  0  0  0  0  0
   11.7498    8.9804    1.2663 H   0  0  0  0  0  0  0  0  0  0  0  0
   13.8441    9.0654    1.1031 H   0  0  0  0  0  0  0  0  0  0  0  0
   15.0584    7.0793    0.8474 H   0  0  0  0  0  0  0  0  0  0  0  0
   13.3402    6.8740    0.3569 H   0  0  0  0  0  0  0  0  0  0  0  0
   13.9243    6.1936    1.9314 H   0  0  0  0  0  0  0  0  0  0  0  0
   15.5927    8.5554    2.6308 H   0  0  0  0  0  0  0  0  0  0  0  0
   14.5660    9.8051    3.1020 H   0  0  0  0  0  0  0  0  0  0  0  0
   14.4336    8.2664    3.8348 H   0  0  0  0  0  0  0  0  0  0  0  0
   12.2736    9.3421    4.2727 H   0  0  0  0  0  0  0  0  0  0  0  0
   12.4550   10.5998    3.0047 H   0  0  0  0  0  0  0  0  0  0  0  0
   10.1351   10.0261    4.5122 H   0  0  0  0  0  0  0  0  0  0  0  0
   10.2667   11.1445    3.1312 H   0  0  0  0  0  0  0  0  0  0  0  0
  1  2  1  0
  2  3  1  0
  3  4  2  0
  3  5  1  0
  5  6  1  0
  6  7  1  0
  7  8  2  0
  7  9  1  0
  9 10  1  0
 10 11  1  0
 11 12  1  0
 12 13  1  0
 13 14  1  0
 13 15  1  0
 12 16  1  0
 16 17  1  0
 17  9  1  0
  1 18  1  0
  1 19  1  0
  1 20  1  0
  2 21  1  0
  5 22  1  0
  5 23  1  0
  6 24  1  0
  9 25  1  0
 10 26  1  0
 10 27  1  0
 11 28  1  0
 11 29  1  0
 12 30  1  0
 13 31  1  0
 14 32  1  0
 14 33  1  0
 14 34  1  0
 15 35  1  0
 15 36  1  0
 15 37  1  0
 16 38  1  0
 16 39  1  0
 17 40  1  0
 17 41  1  0
M  CHG  1  15   1
M  END
>  <EmbedRMS>  (76) 
0.2569057114362328

$$$$

     RDKit          3D

 41 41  0  0  0  0  0  0  0  0999 V2000
    4.6460   11.6759    7.1724 C   0  0  0  0  0  0  0  0  0  0  0  0
    5.2633   11.4940    5.8659 N   0  0  0  0  0  0  0  0  0  0  0  0
    5.1493   10.2629    5.1439 C   0  0  0  0  0  0  0  0  0  0  0  0
    4.5014    9.2956    5.6277 O   0  0  0  0  0  0  0  0  0  0  0  0
    5.8086   10.1135    3.8127 C   0  0  0  0  0  0  0  0  0  0  0  0
    7.2095    9.6833    3.9371 N   0  0  0  0  0  0  0  0  0  0  0  0
    7.9808    9.5180    2.7350 C   0  0  0  0  0  0  0  0  0  0  0  0
    7.4142    9.6752    1.6244 O   0  0  0  0  0  0  0  0  0  0  0  0
    9.4440    9.1935    2.6630 C   0  0  0  0  0  0  0  0  0  0  0  0
    9.7658    7.7143    2.4337 C   0  0  0  0  0  0  0  0  0  0  0  0
   11.2644    7.3644    2.5408 C   0  0  0  0  0  0  0  0  0  0  0  0
   12.1433    8.5869    2.2329 C   0  0  0  0  0  0  0  0  0  0  0  0
   13.6544    8.3400    1.9332 C   0  0  0  0  0  0  0  0  0  0  0  0
   14.0135    7.0449    1.2245 C   0  0  0  0  0  0  0  0  0  0  0  0
   14.6174    8.7741    2.9396 N   0  0  0  0  0  4  0  0  0  0  0  0
   11.8904    9.6848    3.2864 C   0  0  0  0  0  0  0  0  0  0  0  0
   10.4058   10.0816    3.4356 C   0  0  0  0  0  0  0  0  0  0  0  0
    3.5459   11.5501    7.0899 H   0  0  0  0  0  0  0  0  0  0  0  0
    4.8632   12.6960    7.5536 H   0  0  0  0  0  0  0  0  0  0  0  0
    5.0530   10.9310    7.8883 H   0  0  0  0  0  0  0  0  0  0  0  0
    5.8124   12.2820    5.4541 H   0  0  0  0  0  0  0  0  0  0  0  0
    5.2457    9.3665    3.2110 H   0  0  0  0  0  0  0  0  0  0  0  0
    5.7655   11.0860    3.2759 H   0  0  0  0  0  0  0  0  0  0  0  0
    7.6527    9.5270    4.8705 H   0  0  0  0  0  0  0  0  0  0  0  0
    9.6833    9.5857    1.6449 H   0  0  0  0  0  0  0  0  0  0  0  0
    9.2152    7.1104    3.1876 H   0  0  0  0  0  0  0  0  0  0  0  0
    9.3851    7.3989    1.4351 H   0  0  0  0  0  0  0  0  0  0  0  0
   11.4740    6.5318    1.8378 H   0  0  0  0  0  0  0  0  0  0  0  0
   11.4952    7.0010    3.5664 H   0  0  0  0  0  0  0  0  0  0  0  0
   11.7498    8.9804    1.2663 H   0  0  0  0  0  0  0  0  0  0  0  0
   13.8441    9.0654    1.1031 H   0  0  0  0  0  0  0  0  0  0  0  0
   15.0584    7.0793    0.8474 H   0  0  0  0  0  0  0  0  0  0  0  0
   13.3402    6.8740    0.3569 H   0  0  0  0  0  0  0  0  0  0  0  0
   13.9243    6.1936    1.9314 H   0  0  0  0  0  0  0  0  0  0  0  0
   15.5927    8.5554    2.6308 H   0  0  0  0  0  0  0  0  0  0  0  0
   14.5660    9.8051    3.1020 H   0  0  0  0  0  0  0  0  0  0  0  0
   14.4336    8.2664    3.8348 H   0  0  0  0  0  0  0  0  0  0  0  0
   12.2736    9.3421    4.2727 H   0  0  0  0  0  0  0  0  0  0  0  0
   12.4550   10.5998    3.0047 H   0  0  0  0  0  0  0  0  0  0  0  0
   10.1351   10.0261    4.5122 H   0  0  0  0  0  0  0  0  0  0  0  0
   10.2667   11.1445    3.1312 H   0  0  0  0  0  0  0  0  0  0  0  0
  1  2  1  0
  2  3  1  0
  3  4  2  0
  3  5  1  0
  5  6  1  0
  6  7  1  0
  7  8  2  0
  7  9  1  0
  9 10  1  0
 10 11  1  0
 11 12  1  0
 12 13  1  0
 13 14  1  0
 13 15  1  0
 12 16  1  0
 16 17  1  0
 17  9  1  0
  1 18  1  0
  1 19  1  0
  1 20  1  0
  2 21  1  0
  5 22  1  0
  5 23  1  0
  6 24  1  0
  9 25  1  0
 10 26  1  0
 10 27  1  0
 11 28  1  0
 11 29  1  0
 12 30  1  0
 13 31  1  0
 14 32  1  0
 14 33  1  0
 14 34  1  0
 15 35  1  0
 15 36  1  0
 15 37  1  0
 16 38  1  0
 16 39  1  0
 17 40  1  0
 17 41  1  0
M  CHG  1  15   1
M  END
>  <EmbedRMS>  (77) 
0.2569057114362328

$$$$

     RDKit          3D

 41 41  0  0  0  0  0  0  0  0999 V2000
   14.0268    7.2304    1.0861 C   0  0  0  0  0  0  0  0  0  0  0  0
   13.6450    7.9629    2.3852 C   0  0  0  0  0  0  0  0  0  0  0  0
   14.6265    9.0246    2.6472 N   0  0  0  0  0  4  0  0  0  0  0  0
   12.1808    8.5090    2.2963 C   0  0  0  0  0  0  0  0  0  0  0  0
   11.1967    7.3505    2.5412 C   0  0  0  0  0  0  0  0  0  0  0  0
    9.7332    7.7444    2.3740 C   0  0  0  0  0  0  0  0  0  0  0  0
    9.4476    9.2145    2.6427 C   0  0  0  0  0  0  0  0  0  0  0  0
    7.9829    9.5398    2.7221 C   0  0  0  0  0  0  0  0  0  0  0  0
    7.4216    9.6828    1.6091 O   0  0  0  0  0  0  0  0  0  0  0  0
    7.2087    9.6879    3.9312 N   0  0  0  0  0  0  0  0  0  0  0  0
    5.8253   10.1191    3.8968 C   0  0  0  0  0  0  0  0  0  0  0  0
    5.2602   10.3891    2.8000 O   0  0  0  0  0  0  0  0  0  0  0  0
    5.0419   10.3070    5.1607 C   0  0  0  0  0  0  0  0  0  0  0  0
    5.1161   11.7552    5.6458 C   0  0  0  0  0  0  0  0  0  0  0  0
    6.4414   12.0409    6.1859 N   0  0  0  0  0  0  0  0  0  0  0  0
   10.4169   10.0742    3.4314 C   0  0  0  0  0  0  0  0  0  0  0  0
   11.8952    9.6382    3.3192 C   0  0  0  0  0  0  0  0  0  0  0  0
   13.3794    6.3502    0.9048 H   0  0  0  0  0  0  0  0  0  0  0  0
   13.9565    7.9171    0.2156 H   0  0  0  0  0  0  0  0  0  0  0  0
   15.0701    6.8550    1.1520 H   0  0  0  0  0  0  0  0  0  0  0  0
   13.7135    7.2281    3.2202 H   0  0  0  0  0  0  0  0  0  0  0  0
   14.5256    9.7978    1.9496 H   0  0  0  0  0  0  0  0  0  0  0  0
   14.5141    9.3997    3.6161 H   0  0  0  0  0  0  0  0  0  0  0  0
   15.5982    8.6420    2.5847 H   0  0  0  0  0  0  0  0  0  0  0  0
   12.0102    8.9227    1.2767 H   0  0  0  0  0  0  0  0  0  0  0  0
   11.3968    6.5003    1.8583 H   0  0  0  0  0  0  0  0  0  0  0  0
   11.3424    6.9709    3.5778 H   0  0  0  0  0  0  0  0  0  0  0  0
    9.1268    7.1283    3.0742 H   0  0  0  0  0  0  0  0  0  0  0  0
    9.3950    7.4746    1.3465 H   0  0  0  0  0  0  0  0  0  0  0  0
    9.7099    9.6226    1.6343 H   0  0  0  0  0  0  0  0  0  0  0  0
    7.6671    9.5039    4.8512 H   0  0  0  0  0  0  0  0  0  0  0  0
    5.4203    9.6212    5.9495 H   0  0  0  0  0  0  0  0  0  0  0  0
    3.9788   10.0427    4.9709 H   0  0  0  0  0  0  0  0  0  0  0  0
    4.3611   11.8936    6.4507 H   0  0  0  0  0  0  0  0  0  0  0  0
    4.8708   12.4619    4.8208 H   0  0  0  0  0  0  0  0  0  0  0  0
    7.1057   12.1542    5.3859 H   0  0  0  0  0  0  0  0  0  0  0  0
    6.3970   12.9713    6.6612 H   0  0  0  0  0  0  0  0  0  0  0  0
   10.3141   11.1414    3.1267 H   0  0  0  0  0  0  0  0  0  0  0  0
   10.1201   10.0288    4.5017 H   0  0  0  0  0  0  0  0  0  0  0  0
   12.2351    9.3024    4.3244 H   0  0  0  0  0  0  0  0  0  0  0  0
   12.4936   10.5359    3.0524 H   0  0  0  0  0  0  0  0  0  0  0  0
  1  2  1  0
  2  3  1  0
  2  4  1  0
  4  5  1  0
  5  6  1  0
  6  7  1  0
  7  8  1  0
  8  9  2  0
  8 10  1  0
 10 11  1  0
 11 12  2  0
 11 13  1  0
 13 14  1  0
 14 15  1  0
  7 16  1  0
 16 17  1  0
 17  4  1  0
  1 18  1  0
  1 19  1  0
  1 20  1  0
  2 21  1  0
  3 22  1  0
  3 23  1  0
  3 24  1  0
  4 25  1  0
  5 26  1  0
  5 27  1  0
  6 28  1  0
  6 29  1  0
  7 30  1  0
 10 31  1  0
 13 32  1  0
 13 33  1  0
 14 34  1  0
 14 35  1  0
 15 36  1  0
 15 37  1  0
 16 38  1  0
 16 39  1  0
 17 40  1  0
 17 41  1  0
M  CHG  1   3   1
M  END
>  <EmbedRMS>  (78) 
0.18056410303190035

$$$$

     RDKit          3D

 35 35  0  0  0  0  0  0  0  0999 V2000
   14.0105    7.0510    1.2527 C   0  0  0  0  0  0  0  0  0  0  0  0
   13.5999    8.3245    1.9901 C   0  0  0  0  0  0  0  0  0  0  0  0
   14.7024    8.8920    2.7692 N   0  0  0  0  0  4  0  0  0  0  0  0
   12.2613    8.3268    2.7688 C   0  0  0  0  0  0  0  0  0  0  0  0
   11.1788    7.4392    2.1371 C   0  0  0  0  0  0  0  0  0  0  0  0
    9.7439    7.7246    2.5496 C   0  0  0  0  0  0  0  0  0  0  0  0
    9.4498    9.2000    2.6478 C   0  0  0  0  0  0  0  0  0  0  0  0
    7.9869    9.5311    2.7175 C   0  0  0  0  0  0  0  0  0  0  0  0
    7.4522    9.7012    1.5983 O   0  0  0  0  0  0  0  0  0  0  0  0
    7.1968    9.6646    3.9188 N   0  0  0  0  0  0  0  0  0  0  0  0
    5.8181   10.1174    3.9117 C   0  0  0  0  0  0  0  0  0  0  0  0
    5.1140   10.4008    2.6965 N   0  0  0  0  0  0  0  0  0  0  0  0
    5.2091   10.2790    5.0025 O   0  0  0  0  0  0  0  0  0  0  0  0
   10.3857   10.0191    3.4908 C   0  0  0  0  0  0  0  0  0  0  0  0
   11.8494    9.7801    3.1254 C   0  0  0  0  0  0  0  0  0  0  0  0
   13.2655    6.7644    0.4823 H   0  0  0  0  0  0  0  0  0  0  0  0
   14.9812    7.1940    0.7318 H   0  0  0  0  0  0  0  0  0  0  0  0
   14.1178    6.2182    1.9791 H   0  0  0  0  0  0  0  0  0  0  0  0
   13.4347    9.0289    1.1417 H   0  0  0  0  0  0  0  0  0  0  0  0
   14.8383    8.3421    3.6482 H   0  0  0  0  0  0  0  0  0  0  0  0
   15.5915    8.8671    2.2188 H   0  0  0  0  0  0  0  0  0  0  0  0
   14.5204    9.8926    3.0069 H   0  0  0  0  0  0  0  0  0  0  0  0
   12.4698    7.8393    3.7479 H   0  0  0  0  0  0  0  0  0  0  0  0
   11.2109    7.5921    1.0361 H   0  0  0  0  0  0  0  0  0  0  0  0
   11.4061    6.3664    2.3247 H   0  0  0  0  0  0  0  0  0  0  0  0
    9.0526    7.2371    1.8259 H   0  0  0  0  0  0  0  0  0  0  0  0
    9.5619    7.2662    3.5461 H   0  0  0  0  0  0  0  0  0  0  0  0
    9.7336    9.5571    1.6259 H   0  0  0  0  0  0  0  0  0  0  0  0
    7.6541    9.4690    4.8372 H   0  0  0  0  0  0  0  0  0  0  0  0
    4.2892   11.0403    2.7286 H   0  0  0  0  0  0  0  0  0  0  0  0
    5.1621    9.7571    1.8783 H   0  0  0  0  0  0  0  0  0  0  0  0
   10.1475   11.1020    3.3945 H   0  0  0  0  0  0  0  0  0  0  0  0
   10.2338    9.7349    4.5549 H   0  0  0  0  0  0  0  0  0  0  0  0
   12.0635   10.4407    2.2563 H   0  0  0  0  0  0  0  0  0  0  0  0
   12.4723   10.1509    3.9684 H   0  0  0  0  0  0  0  0  0  0  0  0
  1  2  1  0
  2  3  1  0
  2  4  1  0
  4  5  1  0
  5  6  1  0
  6  7  1  0
  7  8  1  0
  8  9  2  0
  8 10  1  0
 10 11  1  0
 11 12  1  0
 11 13  2  0
  7 14  1  0
 14 15  1  0
 15  4  1  0
  1 16  1  0
  1 17  1  0
  1 18  1  0
  2 19  1  0
  3 20  1  0
  3 21  1  0
  3 22  1  0
  4 23  1  0
  5 24  1  0
  5 25  1  0
  6 26  1  0
  6 27  1  0
  7 28  1  0
 10 29  1  0
 12 30  1  0
 12 31  1  0
 14 32  1  0
 14 33  1  0
 15 34  1  0
 15 35  1  0
M  CHG  1   3   1
M  END
>  <EmbedRMS>  (79) 
0.3207721569004263

$$$$

     RDKit          3D

 41 41  0  0  0  0  0  0  0  0999 V2000
    4.6460   11.6759    7.1724 C   0  0  0  0  0  0  0  0  0  0  0  0
    5.2633   11.4940    5.8659 N   0  0  0  0  0  0  0  0  0  0  0  0
    5.1493   10.2629    5.1439 C   0  0  0  0  0  0  0  0  0  0  0  0
    4.5014    9.2956    5.6277 O   0  0  0  0  0  0  0  0  0  0  0  0
    5.8086   10.1135    3.8127 C   0  0  0  0  0  0  0  0  0  0  0  0
    7.2095    9.6833    3.9371 N   0  0  0  0  0  0  0  0  0  0  0  0
    7.9808    9.5180    2.7350 C   0  0  0  0  0  0  0  0  0  0  0  0
    7.4142    9.6752    1.6244 O   0  0  0  0  0  0  0  0  0  0  0  0
    9.4440    9.1935    2.6630 C   0  0  0  0  0  0  0  0  0  0  0  0
    9.7658    7.7143    2.4337 C   0  0  0  0  0  0  0  0  0  0  0  0
   11.2644    7.3644    2.5408 C   0  0  0  0  0  0  0  0  0  0  0  0
   12.1433    8.5869    2.2329 C   0  0  0  0  0  0  0  0  0  0  0  0
   13.6544    8.3400    1.9332 C   0  0  0  0  0  0  0  0  0  0  0  0
   14.0135    7.0449    1.2245 C   0  0  0  0  0  0  0  0  0  0  0  0
   14.6174    8.7741    2.9396 N   0  0  0  0  0  4  0  0  0  0  0  0
   11.8904    9.6848    3.2864 C   0  0  0  0  0  0  0  0  0  0  0  0
   10.4058   10.0816    3.4356 C   0  0  0  0  0  0  0  0  0  0  0  0
    3.5459   11.5501    7.0899 H   0  0  0  0  0  0  0  0  0  0  0  0
    4.8632   12.6960    7.5536 H   0  0  0  0  0  0  0  0  0  0  0  0
    5.0530   10.9310    7.8883 H   0  0  0  0  0  0  0  0  0  0  0  0
    5.8124   12.2820    5.4541 H   0  0  0  0  0  0  0  0  0  0  0  0
    5.2457    9.3665    3.2110 H   0  0  0  0  0  0  0  0  0  0  0  0
    5.7655   11.0860    3.2759 H   0  0  0  0  0  0  0  0  0  0  0  0
    7.6527    9.5270    4.8705 H   0  0  0  0  0  0  0  0  0  0  0  0
    9.6833    9.5857    1.6449 H   0  0  0  0  0  0  0  0  0  0  0  0
    9.2152    7.1104    3.1876 H   0  0  0  0  0  0  0  0  0  0  0  0
    9.3851    7.3989    1.4351 H   0  0  0  0  0  0  0  0  0  0  0  0
   11.4740    6.5318    1.8378 H   0  0  0  0  0  0  0  0  0  0  0  0
   11.4952    7.0010    3.5664 H   0  0  0  0  0  0  0  0  0  0  0  0
   11.7498    8.9804    1.2663 H   0  0  0  0  0  0  0  0  0  0  0  0
   13.8441    9.0654    1.1031 H   0  0  0  0  0  0  0  0  0  0  0  0
   15.0584    7.0793    0.8474 H   0  0  0  0  0  0  0  0  0  0  0  0
   13.3402    6.8740    0.3569 H   0  0  0  0  0  0  0  0  0  0  0  0
   13.9243    6.1936    1.9314 H   0  0  0  0  0  0  0  0  0  0  0  0
   15.5927    8.5554    2.6308 H   0  0  0  0  0  0  0  0  0  0  0  0
   14.5660    9.8051    3.1020 H   0  0  0  0  0  0  0  0  0  0  0  0
   14.4336    8.2664    3.8348 H   0  0  0  0  0  0  0  0  0  0  0  0
   12.2736    9.3421    4.2727 H   0  0  0  0  0  0  0  0  0  0  0  0
   12.4550   10.5998    3.0047 H   0  0  0  0  0  0  0  0  0  0  0  0
   10.1351   10.0261    4.5122 H   0  0  0  0  0  0  0  0  0  0  0  0
   10.2667   11.1445    3.1312 H   0  0  0  0  0  0  0  0  0  0  0  0
  1  2  1  0
  2  3  1  0
  3  4  2  0
  3  5  1  0
  5  6  1  0
  6  7  1  0
  7  8  2  0
  7  9  1  0
  9 10  1  0
 10 11  1  0
 11 12  1  0
 12 13  1  0
 13 14  1  0
 13 15  1  0
 12 16  1  0
 16 17  1  0
 17  9  1  0
  1 18  1  0
  1 19  1  0
  1 20  1  0
  2 21  1  0
  5 22  1  0
  5 23  1  0
  6 24  1  0
  9 25  1  0
 10 26  1  0
 10 27  1  0
 11 28  1  0
 11 29  1  0
 12 30  1  0
 13 31  1  0
 14 32  1  0
 14 33  1  0
 14 34  1  0
 15 35  1  0
 15 36  1  0
 15 37  1  0
 16 38  1  0
 16 39  1  0
 17 40  1  0
 17 41  1  0
M  CHG  1  15   1
M  END
>  <EmbedRMS>  (80) 
0.2569057114362328

$$$$

     RDKit          3D

 44 44  0  0  0  0  0  0  0  0999 V2000
    4.4368    8.5830    1.3291 C   0  0  0  0  0  0  0  0  0  0  0  0
    5.0041    7.9435    2.5953 C   0  0  0  0  0  0  0  0  0  0  0  0
    4.8218    8.8406    3.8314 C   0  0  0  0  0  0  0  0  0  0  0  0
    5.0607    8.0778    4.9850 O   0  0  0  0  0  0  0  0  0  0  0  0
    5.7382   10.0786    3.8221 C   0  0  0  0  0  0  0  0  0  0  0  0
    7.1400    9.7018    3.9851 N   0  0  0  0  0  0  0  0  0  0  0  0
    8.0161    9.4758    2.8762 C   0  0  0  0  0  0  0  0  0  0  0  0
    7.6206    9.7018    1.6971 O   0  0  0  0  0  0  0  0  0  0  0  0
    9.4217    8.9882    3.1213 C   0  0  0  0  0  0  0  0  0  0  0  0
    9.7820    7.9373    2.0770 C   0  0  0  0  0  0  0  0  0  0  0  0
   11.1456    7.3166    2.3199 C   0  0  0  0  0  0  0  0  0  0  0  0
   12.2326    8.2988    2.7958 C   0  0  0  0  0  0  0  0  0  0  0  0
   13.7098    7.9145    2.4297 C   0  0  0  0  0  0  0  0  0  0  0  0
   13.9319    7.3321    1.0257 C   0  0  0  0  0  0  0  0  0  0  0  0
   14.6485    9.0158    2.6728 N   0  0  0  0  0  4  0  0  0  0  0  0
   11.8869    9.7891    2.9963 C   0  0  0  0  0  0  0  0  0  0  0  0
   10.3956   10.1699    3.0626 C   0  0  0  0  0  0  0  0  0  0  0  0
    4.5001    7.8562    0.4920 H   0  0  0  0  0  0  0  0  0  0  0  0
    3.3701    8.8569    1.4735 H   0  0  0  0  0  0  0  0  0  0  0  0
    5.0123    9.4852    1.0408 H   0  0  0  0  0  0  0  0  0  0  0  0
    4.4494    6.9951    2.7672 H   0  0  0  0  0  0  0  0  0  0  0  0
    6.0677    7.6678    2.4459 H   0  0  0  0  0  0  0  0  0  0  0  0
    3.7631    9.1923    3.8475 H   0  0  0  0  0  0  0  0  0  0  0  0
    4.6708    8.5786    5.7490 H   0  0  0  0  0  0  0  0  0  0  0  0
    5.4504   10.7346    4.6721 H   0  0  0  0  0  0  0  0  0  0  0  0
    5.5946   10.6857    2.9045 H   0  0  0  0  0  0  0  0  0  0  0  0
    7.4935    9.5336    4.9541 H   0  0  0  0  0  0  0  0  0  0  0  0
    9.4806    8.5189    4.1289 H   0  0  0  0  0  0  0  0  0  0  0  0
    9.7829    8.4041    1.0656 H   0  0  0  0  0  0  0  0  0  0  0  0
    9.0162    7.1292    2.0723 H   0  0  0  0  0  0  0  0  0  0  0  0
   11.4280    6.8368    1.3644 H   0  0  0  0  0  0  0  0  0  0  0  0
   11.0321    6.4807    3.0491 H   0  0  0  0  0  0  0  0  0  0  0  0
   12.2360    8.0283    3.8802 H   0  0  0  0  0  0  0  0  0  0  0  0
   14.0067    7.0845    3.1155 H   0  0  0  0  0  0  0  0  0  0  0  0
   13.4426    7.9757    0.2642 H   0  0  0  0  0  0  0  0  0  0  0  0
   15.0163    7.2726    0.7923 H   0  0  0  0  0  0  0  0  0  0  0  0
   13.5342    6.2980    0.9557 H   0  0  0  0  0  0  0  0  0  0  0  0
   14.5097    9.7856    1.9793 H   0  0  0  0  0  0  0  0  0  0  0  0
   14.5408    9.3804    3.6465 H   0  0  0  0  0  0  0  0  0  0  0  0
   15.6316    8.6688    2.5840 H   0  0  0  0  0  0  0  0  0  0  0  0
   12.3173   10.3475    2.1381 H   0  0  0  0  0  0  0  0  0  0  0  0
   12.3926   10.1907    3.9043 H   0  0  0  0  0  0  0  0  0  0  0  0
   10.1563   10.7904    2.1685 H   0  0  0  0  0  0  0  0  0  0  0  0
   10.2223   10.8190    3.9496 H   0  0  0  0  0  0  0  0  0  0  0  0
  1  2  1  0
  2  3  1  0
  3  4  1  0
  3  5  1  0
  5  6  1  0
  6  7  1  0
  7  8  2  0
  7  9  1  0
  9 10  1  0
 10 11  1  0
 11 12  1  0
 12 13  1  0
 13 14  1  0
 13 15  1  0
 12 16  1  0
 16 17  1  0
 17  9  1  0
  1 18  1  0
  1 19  1  0
  1 20  1  0
  2 21  1  0
  2 22  1  0
  3 23  1  0
  4 24  1  0
  5 25  1  0
  5 26  1  0
  6 27  1  0
  9 28  1  0
 10 29  1  0
 10 30  1  0
 11 31  1  0
 11 32  1  0
 12 33  1  0
 13 34  1  0
 14 35  1  0
 14 36  1  0
 14 37  1  0
 15 38  1  0
 15 39  1  0
 15 40  1  0
 16 41  1  0
 16 42  1  0
 17 43  1  0
 17 44  1  0
M  CHG  1  15   1
M  END
>  <EmbedRMS>  (81) 
0.1692382603345377

$$$$

     RDKit          3D

 41 41  0  0  0  0  0  0  0  0999 V2000
    4.6460   11.6759    7.1724 C   0  0  0  0  0  0  0  0  0  0  0  0
    5.2633   11.4940    5.8659 N   0  0  0  0  0  0  0  0  0  0  0  0
    5.1493   10.2629    5.1439 C   0  0  0  0  0  0  0  0  0  0  0  0
    4.5014    9.2956    5.6277 O   0  0  0  0  0  0  0  0  0  0  0  0
    5.8086   10.1135    3.8127 C   0  0  0  0  0  0  0  0  0  0  0  0
    7.2095    9.6833    3.9371 N   0  0  0  0  0  0  0  0  0  0  0  0
    7.9808    9.5180    2.7350 C   0  0  0  0  0  0  0  0  0  0  0  0
    7.4142    9.6752    1.6244 O   0  0  0  0  0  0  0  0  0  0  0  0
    9.4440    9.1935    2.6630 C   0  0  0  0  0  0  0  0  0  0  0  0
    9.7658    7.7143    2.4337 C   0  0  0  0  0  0  0  0  0  0  0  0
   11.2644    7.3644    2.5408 C   0  0  0  0  0  0  0  0  0  0  0  0
   12.1433    8.5869    2.2329 C   0  0  0  0  0  0  0  0  0  0  0  0
   13.6544    8.3400    1.9332 C   0  0  0  0  0  0  0  0  0  0  0  0
   14.0135    7.0449    1.2245 C   0  0  0  0  0  0  0  0  0  0  0  0
   14.6174    8.7741    2.9396 N   0  0  0  0  0  4  0  0  0  0  0  0
   11.8904    9.6848    3.2864 C   0  0  0  0  0  0  0  0  0  0  0  0
   10.4058   10.0816    3.4356 C   0  0  0  0  0  0  0  0  0  0  0  0
    3.5459   11.5501    7.0899 H   0  0  0  0  0  0  0  0  0  0  0  0
    4.8632   12.6960    7.5536 H   0  0  0  0  0  0  0  0  0  0  0  0
    5.0530   10.9310    7.8883 H   0  0  0  0  0  0  0  0  0  0  0  0
    5.8124   12.2820    5.4541 H   0  0  0  0  0  0  0  0  0  0  0  0
    5.2457    9.3665    3.2110 H   0  0  0  0  0  0  0  0  0  0  0  0
    5.7655   11.0860    3.2759 H   0  0  0  0  0  0  0  0  0  0  0  0
    7.6527    9.5270    4.8705 H   0  0  0  0  0  0  0  0  0  0  0  0
    9.6833    9.5857    1.6449 H   0  0  0  0  0  0  0  0  0  0  0  0
    9.2152    7.1104    3.1876 H   0  0  0  0  0  0  0  0  0  0  0  0
    9.3851    7.3989    1.4351 H   0  0  0  0  0  0  0  0  0  0  0  0
   11.4740    6.5318    1.8378 H   0  0  0  0  0  0  0  0  0  0  0  0
   11.4952    7.0010    3.5664 H   0  0  0  0  0  0  0  0  0  0  0  0
   11.7498    8.9804    1.2663 H   0  0  0  0  0  0  0  0  0  0  0  0
   13.8441    9.0654    1.1031 H   0  0  0  0  0  0  0  0  0  0  0  0
   15.0584    7.0793    0.8474 H   0  0  0  0  0  0  0  0  0  0  0  0
   13.3402    6.8740    0.3569 H   0  0  0  0  0  0  0  0  0  0  0  0
   13.9243    6.1936    1.9314 H   0  0  0  0  0  0  0  0  0  0  0  0
   15.5927    8.5554    2.6308 H   0  0  0  0  0  0  0  0  0  0  0  0
   14.5660    9.8051    3.1020 H   0  0  0  0  0  0  0  0  0  0  0  0
   14.4336    8.2664    3.8348 H   0  0  0  0  0  0  0  0  0  0  0  0
   12.2736    9.3421    4.2727 H   0  0  0  0  0  0  0  0  0  0  0  0
   12.4550   10.5998    3.0047 H   0  0  0  0  0  0  0  0  0  0  0  0
   10.1351   10.0261    4.5122 H   0  0  0  0  0  0  0  0  0  0  0  0
   10.2667   11.1445    3.1312 H   0  0  0  0  0  0  0  0  0  0  0  0
  1  2  1  0
  2  3  1  0
  3  4  2  0
  3  5  1  0
  5  6  1  0
  6  7  1  0
  7  8  2  0
  7  9  1  0
  9 10  1  0
 10 11  1  0
 11 12  1  0
 12 13  1  0
 13 14  1  0
 13 15  1  0
 12 16  1  0
 16 17  1  0
 17  9  1  0
  1 18  1  0
  1 19  1  0
  1 20  1  0
  2 21  1  0
  5 22  1  0
  5 23  1  0
  6 24  1  0
  9 25  1  0
 10 26  1  0
 10 27  1  0
 11 28  1  0
 11 29  1  0
 12 30  1  0
 13 31  1  0
 14 32  1  0
 14 33  1  0
 14 34  1  0
 15 35  1  0
 15 36  1  0
 15 37  1  0
 16 38  1  0
 16 39  1  0
 17 40  1  0
 17 41  1  0
M  CHG  1  15   1
M  END
>  <EmbedRMS>  (82) 
0.2569057114362328

$$$$

     RDKit          3D

 38 38  0  0  0  0  0  0  0  0999 V2000
   14.0485    7.2193    1.1052 C   0  0  0  0  0  0  0  0  0  0  0  0
   13.6494    7.9557    2.3993 C   0  0  0  0  0  0  0  0  0  0  0  0
   14.6287    9.0157    2.6714 N   0  0  0  0  0  4  0  0  0  0  0  0
   12.1999    8.5121    2.2739 C   0  0  0  0  0  0  0  0  0  0  0  0
   11.1802    7.3659    2.4359 C   0  0  0  0  0  0  0  0  0  0  0  0
    9.7714    7.8716    2.1578 C   0  0  0  0  0  0  0  0  0  0  0  0
    9.4086    8.9939    3.1360 C   0  0  0  0  0  0  0  0  0  0  0  0
    8.0119    9.4795    2.8745 C   0  0  0  0  0  0  0  0  0  0  0  0
    7.6187    9.6893    1.6921 O   0  0  0  0  0  0  0  0  0  0  0  0
    7.1292    9.6965    3.9807 N   0  0  0  0  0  0  0  0  0  0  0  0
    5.7624   10.1694    3.8094 C   0  0  0  0  0  0  0  0  0  0  0  0
    5.7587   11.6573    3.4724 C   0  0  0  0  0  0  0  0  0  0  0  0
    4.4421   12.1064    3.3200 O   0  0  0  0  0  0  0  0  0  0  0  0
   10.4229   10.1485    3.0671 C   0  0  0  0  0  0  0  0  0  0  0  0
   11.8582    9.6379    3.2816 C   0  0  0  0  0  0  0  0  0  0  0  0
   15.0958    6.8574    1.1814 H   0  0  0  0  0  0  0  0  0  0  0  0
   13.9784    7.8974    0.2278 H   0  0  0  0  0  0  0  0  0  0  0  0
   13.4173    6.3269    0.9275 H   0  0  0  0  0  0  0  0  0  0  0  0
   13.6910    7.2251    3.2394 H   0  0  0  0  0  0  0  0  0  0  0  0
   14.4960    9.3935    3.6370 H   0  0  0  0  0  0  0  0  0  0  0  0
   15.6002    8.6298    2.6308 H   0  0  0  0  0  0  0  0  0  0  0  0
   14.5433    9.7863    1.9687 H   0  0  0  0  0  0  0  0  0  0  0  0
   12.0876    8.9473    1.2540 H   0  0  0  0  0  0  0  0  0  0  0  0
   11.2347    6.9393    3.4625 H   0  0  0  0  0  0  0  0  0  0  0  0
   11.3816    6.5452    1.7192 H   0  0  0  0  0  0  0  0  0  0  0  0
    9.0563    7.0278    2.2771 H   0  0  0  0  0  0  0  0  0  0  0  0
    9.7089    8.2307    1.1059 H   0  0  0  0  0  0  0  0  0  0  0  0
    9.4455    8.5679    4.1642 H   0  0  0  0  0  0  0  0  0  0  0  0
    7.4525    9.4673    4.9477 H   0  0  0  0  0  0  0  0  0  0  0  0
    5.2572    9.5890    3.0069 H   0  0  0  0  0  0  0  0  0  0  0  0
    5.2000   10.0100    4.7552 H   0  0  0  0  0  0  0  0  0  0  0  0
    6.2767   12.2336    4.2730 H   0  0  0  0  0  0  0  0  0  0  0  0
    6.3008   11.8316    2.5198 H   0  0  0  0  0  0  0  0  0  0  0  0
    4.0707   12.2170    4.2342 H   0  0  0  0  0  0  0  0  0  0  0  0
   10.3565   10.6518    2.0766 H   0  0  0  0  0  0  0  0  0  0  0  0
   10.1846   10.9008    3.8506 H   0  0  0  0  0  0  0  0  0  0  0  0
   12.5372   10.5052    3.1416 H   0  0  0  0  0  0  0  0  0  0  0  0
   11.9739    9.2660    4.3236 H   0  0  0  0  0  0  0  0  0  0  0  0
  1  2  1  0
  2  3  1  0
  2  4  1  0
  4  5  1  0
  5  6  1  0
  6  7  1  0
  7  8  1  0
  8  9  2  0
  8 10  1  0
 10 11  1  0
 11 12  1  0
 12 13  1  0
  7 14  1  0
 14 15  1  0
 15  4  1  0
  1 16  1  0
  1 17  1  0
  1 18  1  0
  2 19  1  0
  3 20  1  0
  3 21  1  0
  3 22  1  0
  4 23  1  0
  5 24  1  0
  5 25  1  0
  6 26  1  0
  6 27  1  0
  7 28  1  0
 10 29  1  0
 11 30  1  0
 11 31  1  0
 12 32  1  0
 12 33  1  0
 13 34  1  0
 14 35  1  0
 14 36  1  0
 15 37  1  0
 15 38  1  0
M  CHG  1   3   1
M  END
>  <EmbedRMS>  (83) 
0.031392693704421666

$$$$

     RDKit          3D

 41 41  0  0  0  0  0  0  0  0999 V2000
    4.6460   11.6759    7.1724 C   0  0  0  0  0  0  0  0  0  0  0  0
    5.2633   11.4940    5.8659 N   0  0  0  0  0  0  0  0  0  0  0  0
    5.1493   10.2629    5.1439 C   0  0  0  0  0  0  0  0  0  0  0  0
    4.5014    9.2956    5.6277 O   0  0  0  0  0  0  0  0  0  0  0  0
    5.8086   10.1135    3.8127 C   0  0  0  0  0  0  0  0  0  0  0  0
    7.2095    9.6833    3.9371 N   0  0  0  0  0  0  0  0  0  0  0  0
    7.9808    9.5180    2.7350 C   0  0  0  0  0  0  0  0  0  0  0  0
    7.4142    9.6752    1.6244 O   0  0  0  0  0  0  0  0  0  0  0  0
    9.4440    9.1935    2.6630 C   0  0  0  0  0  0  0  0  0  0  0  0
    9.7658    7.7143    2.4337 C   0  0  0  0  0  0  0  0  0  0  0  0
   11.2644    7.3644    2.5408 C   0  0  0  0  0  0  0  0  0  0  0  0
   12.1433    8.5869    2.2329 C   0  0  0  0  0  0  0  0  0  0  0  0
   13.6544    8.3400    1.9332 C   0  0  0  0  0  0  0  0  0  0  0  0
   14.0135    7.0449    1.2245 C   0  0  0  0  0  0  0  0  0  0  0  0
   14.6174    8.7741    2.9396 N   0  0  0  0  0  4  0  0  0  0  0  0
   11.8904    9.6848    3.2864 C   0  0  0  0  0  0  0  0  0  0  0  0
   10.4058   10.0816    3.4356 C   0  0  0  0  0  0  0  0  0  0  0  0
    3.5459   11.5501    7.0899 H   0  0  0  0  0  0  0  0  0  0  0  0
    4.8632   12.6960    7.5536 H   0  0  0  0  0  0  0  0  0  0  0  0
    5.0530   10.9310    7.8883 H   0  0  0  0  0  0  0  0  0  0  0  0
    5.8124   12.2820    5.4541 H   0  0  0  0  0  0  0  0  0  0  0  0
    5.2457    9.3665    3.2110 H   0  0  0  0  0  0  0  0  0  0  0  0
    5.7655   11.0860    3.2759 H   0  0  0  0  0  0  0  0  0  0  0  0
    7.6527    9.5270    4.8705 H   0  0  0  0  0  0  0  0  0  0  0  0
    9.6833    9.5857    1.6449 H   0  0  0  0  0  0  0  0  0  0  0  0
    9.2152    7.1104    3.1876 H   0  0  0  0  0  0  0  0  0  0  0  0
    9.3851    7.3989    1.4351 H   0  0  0  0  0  0  0  0  0  0  0  0
   11.4740    6.5318    1.8378 H   0  0  0  0  0  0  0  0  0  0  0  0
   11.4952    7.0010    3.5664 H   0  0  0  0  0  0  0  0  0  0  0  0
   11.7498    8.9804    1.2663 H   0  0  0  0  0  0  0  0  0  0  0  0
   13.8441    9.0654    1.1031 H   0  0  0  0  0  0  0  0  0  0  0  0
   15.0584    7.0793    0.8474 H   0  0  0  0  0  0  0  0  0  0  0  0
   13.3402    6.8740    0.3569 H   0  0  0  0  0  0  0  0  0  0  0  0
   13.9243    6.1936    1.9314 H   0  0  0  0  0  0  0  0  0  0  0  0
   15.5927    8.5554    2.6308 H   0  0  0  0  0  0  0  0  0  0  0  0
   14.5660    9.8051    3.1020 H   0  0  0  0  0  0  0  0  0  0  0  0
   14.4336    8.2664    3.8348 H   0  0  0  0  0  0  0  0  0  0  0  0
   12.2736    9.3421    4.2727 H   0  0  0  0  0  0  0  0  0  0  0  0
   12.4550   10.5998    3.0047 H   0  0  0  0  0  0  0  0  0  0  0  0
   10.1351   10.0261    4.5122 H   0  0  0  0  0  0  0  0  0  0  0  0
   10.2667   11.1445    3.1312 H   0  0  0  0  0  0  0  0  0  0  0  0
  1  2  1  0
  2  3  1  0
  3  4  2  0
  3  5  1  0
  5  6  1  0
  6  7  1  0
  7  8  2  0
  7  9  1  0
  9 10  1  0
 10 11  1  0
 11 12  1  0
 12 13  1  0
 13 14  1  0
 13 15  1  0
 12 16  1  0
 16 17  1  0
 17  9  1  0
  1 18  1  0
  1 19  1  0
  1 20  1  0
  2 21  1  0
  5 22  1  0
  5 23  1  0
  6 24  1  0
  9 25  1  0
 10 26  1  0
 10 27  1  0
 11 28  1  0
 11 29  1  0
 12 30  1  0
 13 31  1  0
 14 32  1  0
 14 33  1  0
 14 34  1  0
 15 35  1  0
 15 36  1  0
 15 37  1  0
 16 38  1  0
 16 39  1  0
 17 40  1  0
 17 41  1  0
M  CHG  1  15   1
M  END
>  <EmbedRMS>  (84) 
0.2569057114362328

$$$$

     RDKit          3D

 41 41  0  0  0  0  0  0  0  0999 V2000
    4.6460   11.6759    7.1724 C   0  0  0  0  0  0  0  0  0  0  0  0
    5.2633   11.4940    5.8659 N   0  0  0  0  0  0  0  0  0  0  0  0
    5.1493   10.2629    5.1439 C   0  0  0  0  0  0  0  0  0  0  0  0
    4.5014    9.2956    5.6277 O   0  0  0  0  0  0  0  0  0  0  0  0
    5.8086   10.1135    3.8127 C   0  0  0  0  0  0  0  0  0  0  0  0
    7.2095    9.6833    3.9371 N   0  0  0  0  0  0  0  0  0  0  0  0
    7.9808    9.5180    2.7350 C   0  0  0  0  0  0  0  0  0  0  0  0
    7.4142    9.6752    1.6244 O   0  0  0  0  0  0  0  0  0  0  0  0
    9.4440    9.1935    2.6630 C   0  0  0  0  0  0  0  0  0  0  0  0
    9.7658    7.7143    2.4337 C   0  0  0  0  0  0  0  0  0  0  0  0
   11.2644    7.3644    2.5408 C   0  0  0  0  0  0  0  0  0  0  0  0
   12.1433    8.5869    2.2329 C   0  0  0  0  0  0  0  0  0  0  0  0
   13.6544    8.3400    1.9332 C   0  0  0  0  0  0  0  0  0  0  0  0
   14.0135    7.0449    1.2245 C   0  0  0  0  0  0  0  0  0  0  0  0
   14.6174    8.7741    2.9396 N   0  0  0  0  0  4  0  0  0  0  0  0
   11.8904    9.6848    3.2864 C   0  0  0  0  0  0  0  0  0  0  0  0
   10.4058   10.0816    3.4356 C   0  0  0  0  0  0  0  0  0  0  0  0
    3.5459   11.5501    7.0899 H   0  0  0  0  0  0  0  0  0  0  0  0
    4.8632   12.6960    7.5536 H   0  0  0  0  0  0  0  0  0  0  0  0
    5.0530   10.9310    7.8883 H   0  0  0  0  0  0  0  0  0  0  0  0
    5.8124   12.2820    5.4541 H   0  0  0  0  0  0  0  0  0  0  0  0
    5.2457    9.3665    3.2110 H   0  0  0  0  0  0  0  0  0  0  0  0
    5.7655   11.0860    3.2759 H   0  0  0  0  0  0  0  0  0  0  0  0
    7.6527    9.5270    4.8705 H   0  0  0  0  0  0  0  0  0  0  0  0
    9.6833    9.5857    1.6449 H   0  0  0  0  0  0  0  0  0  0  0  0
    9.2152    7.1104    3.1876 H   0  0  0  0  0  0  0  0  0  0  0  0
    9.3851    7.3989    1.4351 H   0  0  0  0  0  0  0  0  0  0  0  0
   11.4740    6.5318    1.8378 H   0  0  0  0  0  0  0  0  0  0  0  0
   11.4952    7.0010    3.5664 H   0  0  0  0  0  0  0  0  0  0  0  0
   11.7498    8.9804    1.2663 H   0  0  0  0  0  0  0  0  0  0  0  0
   13.8441    9.0654    1.1031 H   0  0  0  0  0  0  0  0  0  0  0  0
   15.0584    7.0793    0.8474 H   0  0  0  0  0  0  0  0  0  0  0  0
   13.3402    6.8740    0.3569 H   0  0  0  0  0  0  0  0  0  0  0  0
   13.9243    6.1936    1.9314 H   0  0  0  0  0  0  0  0  0  0  0  0
   15.5927    8.5554    2.6308 H   0  0  0  0  0  0  0  0  0  0  0  0
   14.5660    9.8051    3.1020 H   0  0  0  0  0  0  0  0  0  0  0  0
   14.4336    8.2664    3.8348 H   0  0  0  0  0  0  0  0  0  0  0  0
   12.2736    9.3421    4.2727 H   0  0  0  0  0  0  0  0  0  0  0  0
   12.4550   10.5998    3.0047 H   0  0  0  0  0  0  0  0  0  0  0  0
   10.1351   10.0261    4.5122 H   0  0  0  0  0  0  0  0  0  0  0  0
   10.2667   11.1445    3.1312 H   0  0  0  0  0  0  0  0  0  0  0  0
  1  2  1  0
  2  3  1  0
  3  4  2  0
  3  5  1  0
  5  6  1  0
  6  7  1  0
  7  8  2  0
  7  9  1  0
  9 10  1  0
 10 11  1  0
 11 12  1  0
 12 13  1  0
 13 14  1  0
 13 15  1  0
 12 16  1  0
 16 17  1  0
 17  9  1  0
  1 18  1  0
  1 19  1  0
  1 20  1  0
  2 21  1  0
  5 22  1  0
  5 23  1  0
  6 24  1  0
  9 25  1  0
 10 26  1  0
 10 27  1  0
 11 28  1  0
 11 29  1  0
 12 30  1  0
 13 31  1  0
 14 32  1  0
 14 33  1  0
 14 34  1  0
 15 35  1  0
 15 36  1  0
 15 37  1  0
 16 38  1  0
 16 39  1  0
 17 40  1  0
 17 41  1  0
M  CHG  1  15   1
M  END
>  <EmbedRMS>  (85) 
0.2569057114362328

$$$$

     RDKit          3D

 44 44  0  0  0  0  0  0  0  0999 V2000
    5.1799   12.6748    5.6886 C   0  0  0  0  0  0  0  0  0  0  0  0
    6.2510   12.5338    4.6060 C   0  0  0  0  0  0  0  0  0  0  0  0
    6.5480   13.8079    4.1003 O   0  0  0  0  0  0  0  0  0  0  0  0
    5.7617   11.6223    3.4674 C   0  0  0  0  0  0  0  0  0  0  0  0
    5.8356   10.1345    3.8548 C   0  0  0  0  0  0  0  0  0  0  0  0
    7.2317    9.6806    3.9235 N   0  0  0  0  0  0  0  0  0  0  0  0
    7.9941    9.5328    2.7147 C   0  0  0  0  0  0  0  0  0  0  0  0
    7.4180    9.6756    1.6089 O   0  0  0  0  0  0  0  0  0  0  0  0
    9.4548    9.2126    2.6312 C   0  0  0  0  0  0  0  0  0  0  0  0
    9.7377    7.7417    2.3715 C   0  0  0  0  0  0  0  0  0  0  0  0
   11.2003    7.3488    2.5408 C   0  0  0  0  0  0  0  0  0  0  0  0
   12.1837    8.5079    2.2958 C   0  0  0  0  0  0  0  0  0  0  0  0
   13.6474    7.9625    2.3852 C   0  0  0  0  0  0  0  0  0  0  0  0
   14.0292    7.2302    1.0860 C   0  0  0  0  0  0  0  0  0  0  0  0
   14.6282    9.0248    2.6471 N   0  0  0  0  0  4  0  0  0  0  0  0
   11.8969    9.6378    3.3177 C   0  0  0  0  0  0  0  0  0  0  0  0
   10.4184   10.0720    3.4268 C   0  0  0  0  0  0  0  0  0  0  0  0
    4.9891   11.7084    6.1975 H   0  0  0  0  0  0  0  0  0  0  0  0
    4.2302   13.0566    5.2564 H   0  0  0  0  0  0  0  0  0  0  0  0
    5.5260   13.3961    6.4592 H   0  0  0  0  0  0  0  0  0  0  0  0
    7.1664   12.1050    5.0776 H   0  0  0  0  0  0  0  0  0  0  0  0
    7.4290   13.7396    3.6469 H   0  0  0  0  0  0  0  0  0  0  0  0
    6.3741   11.8030    2.5589 H   0  0  0  0  0  0  0  0  0  0  0  0
    4.7137   11.8783    3.1976 H   0  0  0  0  0  0  0  0  0  0  0  0
    5.2853    9.5288    3.1024 H   0  0  0  0  0  0  0  0  0  0  0  0
    5.3389    9.9521    4.8292 H   0  0  0  0  0  0  0  0  0  0  0  0
    7.6605    9.4414    4.8453 H   0  0  0  0  0  0  0  0  0  0  0  0
    9.7150    9.6201    1.6222 H   0  0  0  0  0  0  0  0  0  0  0  0
    9.1312    7.1294    3.0751 H   0  0  0  0  0  0  0  0  0  0  0  0
    9.3995    7.4671    1.3452 H   0  0  0  0  0  0  0  0  0  0  0  0
   11.4016    6.4979    1.8592 H   0  0  0  0  0  0  0  0  0  0  0  0
   11.3452    6.9704    3.5780 H   0  0  0  0  0  0  0  0  0  0  0  0
   12.0134    8.9209    1.2759 H   0  0  0  0  0  0  0  0  0  0  0  0
   13.7162    7.2278    3.2203 H   0  0  0  0  0  0  0  0  0  0  0  0
   13.3826    6.3494    0.9047 H   0  0  0  0  0  0  0  0  0  0  0  0
   13.9584    7.9168    0.2154 H   0  0  0  0  0  0  0  0  0  0  0  0
   15.0728    6.8555    1.1517 H   0  0  0  0  0  0  0  0  0  0  0  0
   14.5154    9.4001    3.6158 H   0  0  0  0  0  0  0  0  0  0  0  0
   14.5271    9.7978    1.9493 H   0  0  0  0  0  0  0  0  0  0  0  0
   15.6000    8.6426    2.5850 H   0  0  0  0  0  0  0  0  0  0  0  0
   12.4948   10.5358    3.0505 H   0  0  0  0  0  0  0  0  0  0  0  0
   12.2358    9.3032    4.3237 H   0  0  0  0  0  0  0  0  0  0  0  0
   10.3147   11.1395    3.1239 H   0  0  0  0  0  0  0  0  0  0  0  0
   10.1178   10.0229    4.4960 H   0  0  0  0  0  0  0  0  0  0  0  0
  1  2  1  0
  2  3  1  0
  2  4  1  0
  4  5  1  0
  5  6  1  0
  6  7  1  0
  7  8  2  0
  7  9  1  0
  9 10  1  0
 10 11  1  0
 11 12  1  0
 12 13  1  0
 13 14  1  0
 13 15  1  0
 12 16  1  0
 16 17  1  0
 17  9  1  0
  1 18  1  0
  1 19  1  0
  1 20  1  0
  2 21  1  0
  3 22  1  0
  4 23  1  0
  4 24  1  0
  5 25  1  0
  5 26  1  0
  6 27  1  0
  9 28  1  0
 10 29  1  0
 10 30  1  0
 11 31  1  0
 11 32  1  0
 12 33  1  0
 13 34  1  0
 14 35  1  0
 14 36  1  0
 14 37  1  0
 15 38  1  0
 15 39  1  0
 15 40  1  0
 16 41  1  0
 16 42  1  0
 17 43  1  0
 17 44  1  0
M  CHG  1  15   1
M  END
>  <EmbedRMS>  (86) 
0.18386844037944652

$$$$

     RDKit          3D

 41 41  0  0  0  0  0  0  0  0999 V2000
   13.9330    7.3325    1.0255 C   0  0  0  0  0  0  0  0  0  0  0  0
   13.7100    7.9149    2.4294 C   0  0  0  0  0  0  0  0  0  0  0  0
   14.6481    9.0165    2.6731 N   0  0  0  0  0  4  0  0  0  0  0  0
   12.2326    8.2986    2.7947 C   0  0  0  0  0  0  0  0  0  0  0  0
   11.1465    7.3154    2.3182 C   0  0  0  0  0  0  0  0  0  0  0  0
    9.7857    7.9375    2.0647 C   0  0  0  0  0  0  0  0  0  0  0  0
    9.4210    8.9849    3.1082 C   0  0  0  0  0  0  0  0  0  0  0  0
    8.0105    9.4677    2.8685 C   0  0  0  0  0  0  0  0  0  0  0  0
    7.6043    9.6874    1.6924 O   0  0  0  0  0  0  0  0  0  0  0  0
    7.1562    9.6993    3.9924 N   0  0  0  0  0  0  0  0  0  0  0  0
    5.7878   10.1343    3.9080 C   0  0  0  0  0  0  0  0  0  0  0  0
    5.2658   10.3672    2.7819 O   0  0  0  0  0  0  0  0  0  0  0  0
    5.0050   10.3092    5.1076 N   0  0  0  0  0  0  0  0  0  0  0  0
    3.6158   10.7605    5.0048 C   0  0  0  0  0  0  0  0  0  0  0  0
    5.5864   10.0387    6.4259 C   0  0  0  0  0  0  0  0  0  0  0  0
   10.3933   10.1685    3.0584 C   0  0  0  0  0  0  0  0  0  0  0  0
   11.8853    9.7890    2.9943 C   0  0  0  0  0  0  0  0  0  0  0  0
   15.0174    7.2760    0.7914 H   0  0  0  0  0  0  0  0  0  0  0  0
   13.4415    7.9744    0.2640 H   0  0  0  0  0  0  0  0  0  0  0  0
   13.5385    6.2972    0.9560 H   0  0  0  0  0  0  0  0  0  0  0  0
   14.0070    7.0850    3.1154 H   0  0  0  0  0  0  0  0  0  0  0  0
   14.5394    9.3813    3.6466 H   0  0  0  0  0  0  0  0  0  0  0  0
   15.6314    8.6699    2.5851 H   0  0  0  0  0  0  0  0  0  0  0  0
   14.5095    9.7861    1.9793 H   0  0  0  0  0  0  0  0  0  0  0  0
   12.2357    8.0287    3.8792 H   0  0  0  0  0  0  0  0  0  0  0  0
   11.0272    6.4836    3.0513 H   0  0  0  0  0  0  0  0  0  0  0  0
   11.4326    6.8295    1.3669 H   0  0  0  0  0  0  0  0  0  0  0  0
    9.7942    8.4072    1.0547 H   0  0  0  0  0  0  0  0  0  0  0  0
    9.0198    7.1298    2.0529 H   0  0  0  0  0  0  0  0  0  0  0  0
    9.4852    8.5096    4.1128 H   0  0  0  0  0  0  0  0  0  0  0  0
    7.5806    9.5394    4.9308 H   0  0  0  0  0  0  0  0  0  0  0  0
    3.0302   10.0331    4.4039 H   0  0  0  0  0  0  0  0  0  0  0  0
    3.1332   10.8543    6.0002 H   0  0  0  0  0  0  0  0  0  0  0  0
    3.5813   11.7538    4.5094 H   0  0  0  0  0  0  0  0  0  0  0  0
    5.9132    8.9789    6.4845 H   0  0  0  0  0  0  0  0  0  0  0  0
    4.8539   10.2085    7.2425 H   0  0  0  0  0  0  0  0  0  0  0  0
    6.4495   10.7143    6.6041 H   0  0  0  0  0  0  0  0  0  0  0  0
   10.1546   10.7928    2.1669 H   0  0  0  0  0  0  0  0  0  0  0  0
   10.2167   10.8125    3.9484 H   0  0  0  0  0  0  0  0  0  0  0  0
   12.3898   10.1917    3.9024 H   0  0  0  0  0  0  0  0  0  0  0  0
   12.3160   10.3471    2.1359 H   0  0  0  0  0  0  0  0  0  0  0  0
  1  2  1  0
  2  3  1  0
  2  4  1  0
  4  5  1  0
  5  6  1  0
  6  7  1  0
  7  8  1  0
  8  9  2  0
  8 10  1  0
 10 11  1  0
 11 12  2  0
 11 13  1  0
 13 14  1  0
 13 15  1  0
  7 16  1  0
 16 17  1  0
 17  4  1  0
  1 18  1  0
  1 19  1  0
  1 20  1  0
  2 21  1  0
  3 22  1  0
  3 23  1  0
  3 24  1  0
  4 25  1  0
  5 26  1  0
  5 27  1  0
  6 28  1  0
  6 29  1  0
  7 30  1  0
 10 31  1  0
 14 32  1  0
 14 33  1  0
 14 34  1  0
 15 35  1  0
 15 36  1  0
 15 37  1  0
 16 38  1  0
 16 39  1  0
 17 40  1  0
 17 41  1  0
M  CHG  1   3   1
M  END
>  <EmbedRMS>  (87) 
0.16951277661790554

$$$$

     RDKit          3D

 41 41  0  0  0  0  0  0  0  0999 V2000
   14.0115    7.0506    1.2528 C   0  0  0  0  0  0  0  0  0  0  0  0
   13.6007    8.3244    1.9897 C   0  0  0  0  0  0  0  0  0  0  0  0
   14.7026    8.8917    2.7697 N   0  0  0  0  0  4  0  0  0  0  0  0
   12.2613    8.3272    2.7670 C   0  0  0  0  0  0  0  0  0  0  0  0
   11.1798    7.4395    2.1343 C   0  0  0  0  0  0  0  0  0  0  0  0
    9.7449    7.7260    2.5438 C   0  0  0  0  0  0  0  0  0  0  0  0
    9.4498    9.2016    2.6348 C   0  0  0  0  0  0  0  0  0  0  0  0
    7.9883    9.5247    2.7224 C   0  0  0  0  0  0  0  0  0  0  0  0
    7.4124    9.6708    1.6173 O   0  0  0  0  0  0  0  0  0  0  0  0
    7.2314    9.6900    3.9341 N   0  0  0  0  0  0  0  0  0  0  0  0
    5.8391   10.1600    3.8802 C   0  0  0  0  0  0  0  0  0  0  0  0
    5.7848   11.6424    3.4802 C   0  0  0  0  0  0  0  0  0  0  0  0
    4.4046   12.0986    3.3235 N   0  0  0  0  0  0  0  0  0  0  0  0
    4.0979   13.4521    2.9752 C   0  0  0  0  0  0  0  0  0  0  0  0
    5.0150   14.2987    2.8019 O   0  0  0  0  0  0  0  0  0  0  0  0
   10.3846   10.0200    3.4814 C   0  0  0  0  0  0  0  0  0  0  0  0
   11.8491    9.7807    3.1212 C   0  0  0  0  0  0  0  0  0  0  0  0
   14.9833    7.1928    0.7338 H   0  0  0  0  0  0  0  0  0  0  0  0
   14.1168    6.2176    1.9793 H   0  0  0  0  0  0  0  0  0  0  0  0
   13.2678    6.7648    0.4810 H   0  0  0  0  0  0  0  0  0  0  0  0
   13.4367    9.0286    1.1409 H   0  0  0  0  0  0  0  0  0  0  0  0
   15.5920    8.8676    2.2197 H   0  0  0  0  0  0  0  0  0  0  0  0
   14.5201    9.8921    3.0081 H   0  0  0  0  0  0  0  0  0  0  0  0
   14.8383    8.3412    3.6484 H   0  0  0  0  0  0  0  0  0  0  0  0
   12.4685    7.8405    3.7468 H   0  0  0  0  0  0  0  0  0  0  0  0
   11.4064    6.3669    2.3233 H   0  0  0  0  0  0  0  0  0  0  0  0
   11.2136    7.5916    1.0333 H   0  0  0  0  0  0  0  0  0  0  0  0
    9.5620    7.2714    3.5419 H   0  0  0  0  0  0  0  0  0  0  0  0
    9.0548    7.2351    1.8212 H   0  0  0  0  0  0  0  0  0  0  0  0
    9.7207    9.5606    1.6108 H   0  0  0  0  0  0  0  0  0  0  0  0
    7.6691    9.4627    4.8547 H   0  0  0  0  0  0  0  0  0  0  0  0
    5.2621    9.5419    3.1581 H   0  0  0  0  0  0  0  0  0  0  0  0
    5.3740   10.0392    4.8825 H   0  0  0  0  0  0  0  0  0  0  0  0
    6.3234   11.8023    2.5228 H   0  0  0  0  0  0  0  0  0  0  0  0
    6.2851   12.2470    4.2676 H   0  0  0  0  0  0  0  0  0  0  0  0
    3.6094   11.4357    3.4671 H   0  0  0  0  0  0  0  0  0  0  0  0
    3.0657   13.7552    2.8606 H   0  0  0  0  0  0  0  0  0  0  0  0
   10.1471   11.1031    3.3845 H   0  0  0  0  0  0  0  0  0  0  0  0
   10.2299    9.7359    4.5451 H   0  0  0  0  0  0  0  0  0  0  0  0
   12.4695   10.1520    3.9658 H   0  0  0  0  0  0  0  0  0  0  0  0
   12.0655   10.4407    2.2522 H   0  0  0  0  0  0  0  0  0  0  0  0
  1  2  1  0
  2  3  1  0
  2  4  1  0
  4  5  1  0
  5  6  1  0
  6  7  1  0
  7  8  1  0
  8  9  2  0
  8 10  1  0
 10 11  1  0
 11 12  1  0
 12 13  1  0
 13 14  1  0
 14 15  2  0
  7 16  1  0
 16 17  1  0
 17  4  1  0
  1 18  1  0
  1 19  1  0
  1 20  1  0
  2 21  1  0
  3 22  1  0
  3 23  1  0
  3 24  1  0
  4 25  1  0
  5 26  1  0
  5 27  1  0
  6 28  1  0
  6 29  1  0
  7 30  1  0
 10 31  1  0
 11 32  1  0
 11 33  1  0
 12 34  1  0
 12 35  1  0
 13 36  1  0
 14 37  1  0
 16 38  1  0
 16 39  1  0
 17 40  1  0
 17 41  1  0
M  CHG  1   3   1
M  END
>  <EmbedRMS>  (88) 
0.30207850723488733

$$$$

     RDKit          3D

 41 41  0  0  0  0  0  0  0  0999 V2000
    4.6460   11.6759    7.1724 C   0  0  0  0  0  0  0  0  0  0  0  0
    5.2633   11.4940    5.8659 N   0  0  0  0  0  0  0  0  0  0  0  0
    5.1493   10.2629    5.1439 C   0  0  0  0  0  0  0  0  0  0  0  0
    4.5014    9.2956    5.6277 O   0  0  0  0  0  0  0  0  0  0  0  0
    5.8086   10.1135    3.8127 C   0  0  0  0  0  0  0  0  0  0  0  0
    7.2095    9.6833    3.9371 N   0  0  0  0  0  0  0  0  0  0  0  0
    7.9808    9.5180    2.7350 C   0  0  0  0  0  0  0  0  0  0  0  0
    7.4142    9.6752    1.6244 O   0  0  0  0  0  0  0  0  0  0  0  0
    9.4440    9.1935    2.6630 C   0  0  0  0  0  0  0  0  0  0  0  0
    9.7658    7.7143    2.4337 C   0  0  0  0  0  0  0  0  0  0  0  0
   11.2644    7.3644    2.5408 C   0  0  0  0  0  0  0  0  0  0  0  0
   12.1433    8.5869    2.2329 C   0  0  0  0  0  0  0  0  0  0  0  0
   13.6544    8.3400    1.9332 C   0  0  0  0  0  0  0  0  0  0  0  0
   14.0135    7.0449    1.2245 C   0  0  0  0  0  0  0  0  0  0  0  0
   14.6174    8.7741    2.9396 N   0  0  0  0  0  4  0  0  0  0  0  0
   11.8904    9.6848    3.2864 C   0  0  0  0  0  0  0  0  0  0  0  0
   10.4058   10.0816    3.4356 C   0  0  0  0  0  0  0  0  0  0  0  0
    3.5459   11.5501    7.0899 H   0  0  0  0  0  0  0  0  0  0  0  0
    4.8632   12.6960    7.5536 H   0  0  0  0  0  0  0  0  0  0  0  0
    5.0530   10.9310    7.8883 H   0  0  0  0  0  0  0  0  0  0  0  0
    5.8124   12.2820    5.4541 H   0  0  0  0  0  0  0  0  0  0  0  0
    5.2457    9.3665    3.2110 H   0  0  0  0  0  0  0  0  0  0  0  0
    5.7655   11.0860    3.2759 H   0  0  0  0  0  0  0  0  0  0  0  0
    7.6527    9.5270    4.8705 H   0  0  0  0  0  0  0  0  0  0  0  0
    9.6833    9.5857    1.6449 H   0  0  0  0  0  0  0  0  0  0  0  0
    9.2152    7.1104    3.1876 H   0  0  0  0  0  0  0  0  0  0  0  0
    9.3851    7.3989    1.4351 H   0  0  0  0  0  0  0  0  0  0  0  0
   11.4740    6.5318    1.8378 H   0  0  0  0  0  0  0  0  0  0  0  0
   11.4952    7.0010    3.5664 H   0  0  0  0  0  0  0  0  0  0  0  0
   11.7498    8.9804    1.2663 H   0  0  0  0  0  0  0  0  0  0  0  0
   13.8441    9.0654    1.1031 H   0  0  0  0  0  0  0  0  0  0  0  0
   15.0584    7.0793    0.8474 H   0  0  0  0  0  0  0  0  0  0  0  0
   13.3402    6.8740    0.3569 H   0  0  0  0  0  0  0  0  0  0  0  0
   13.9243    6.1936    1.9314 H   0  0  0  0  0  0  0  0  0  0  0  0
   15.5927    8.5554    2.6308 H   0  0  0  0  0  0  0  0  0  0  0  0
   14.5660    9.8051    3.1020 H   0  0  0  0  0  0  0  0  0  0  0  0
   14.4336    8.2664    3.8348 H   0  0  0  0  0  0  0  0  0  0  0  0
   12.2736    9.3421    4.2727 H   0  0  0  0  0  0  0  0  0  0  0  0
   12.4550   10.5998    3.0047 H   0  0  0  0  0  0  0  0  0  0  0  0
   10.1351   10.0261    4.5122 H   0  0  0  0  0  0  0  0  0  0  0  0
   10.2667   11.1445    3.1312 H   0  0  0  0  0  0  0  0  0  0  0  0
  1  2  1  0
  2  3  1  0
  3  4  2  0
  3  5  1  0
  5  6  1  0
  6  7  1  0
  7  8  2  0
  7  9  1  0
  9 10  1  0
 10 11  1  0
 11 12  1  0
 12 13  1  0
 13 14  1  0
 13 15  1  0
 12 16  1  0
 16 17  1  0
 17  9  1  0
  1 18  1  0
  1 19  1  0
  1 20  1  0
  2 21  1  0
  5 22  1  0
  5 23  1  0
  6 24  1  0
  9 25  1  0
 10 26  1  0
 10 27  1  0
 11 28  1  0
 11 29  1  0
 12 30  1  0
 13 31  1  0
 14 32  1  0
 14 33  1  0
 14 34  1  0
 15 35  1  0
 15 36  1  0
 15 37  1  0
 16 38  1  0
 16 39  1  0
 17 40  1  0
 17 41  1  0
M  CHG  1  15   1
M  END
>  <EmbedRMS>  (89) 
0.2569057114362328

$$$$

     RDKit          3D

 41 41  0  0  0  0  0  0  0  0999 V2000
   13.9335    7.3325    1.0254 C   0  0  0  0  0  0  0  0  0  0  0  0
   13.7111    7.9147    2.4294 C   0  0  0  0  0  0  0  0  0  0  0  0
   14.6492    9.0164    2.6728 N   0  0  0  0  0  4  0  0  0  0  0  0
   12.2340    8.2985    2.7952 C   0  0  0  0  0  0  0  0  0  0  0  0
   11.1482    7.3150    2.3189 C   0  0  0  0  0  0  0  0  0  0  0  0
    9.7867    7.9361    2.0695 C   0  0  0  0  0  0  0  0  0  0  0  0
    9.4243    8.9840    3.1139 C   0  0  0  0  0  0  0  0  0  0  0  0
    8.0167    9.4657    2.8724 C   0  0  0  0  0  0  0  0  0  0  0  0
    7.6084    9.6870    1.6966 O   0  0  0  0  0  0  0  0  0  0  0  0
    7.1544    9.6951    3.9857 N   0  0  0  0  0  0  0  0  0  0  0  0
    5.7782   10.1397    3.8073 C   0  0  0  0  0  0  0  0  0  0  0  0
    5.0965   10.2714    5.1652 C   0  0  0  0  0  0  0  0  0  0  0  0
    3.6898   10.7359    4.9935 C   0  0  0  0  0  0  0  0  0  0  0  0
    3.3955   12.1302    4.9317 N   0  0  0  0  0  0  0  0  0  0  0  0
    2.7647    9.8917    4.8614 O   0  0  0  0  0  0  0  0  0  0  0  0
   10.3953   10.1682    3.0601 C   0  0  0  0  0  0  0  0  0  0  0  0
   11.8871    9.7888    2.9947 C   0  0  0  0  0  0  0  0  0  0  0  0
   15.0179    7.2757    0.7910 H   0  0  0  0  0  0  0  0  0  0  0  0
   13.5386    6.2973    0.9558 H   0  0  0  0  0  0  0  0  0  0  0  0
   13.4421    7.9747    0.2640 H   0  0  0  0  0  0  0  0  0  0  0  0
   14.0083    7.0848    3.1152 H   0  0  0  0  0  0  0  0  0  0  0  0
   14.5410    9.3810    3.6464 H   0  0  0  0  0  0  0  0  0  0  0  0
   14.5103    9.7860    1.9792 H   0  0  0  0  0  0  0  0  0  0  0  0
   15.6325    8.6698    2.5844 H   0  0  0  0  0  0  0  0  0  0  0  0
   12.2374    8.0286    3.8797 H   0  0  0  0  0  0  0  0  0  0  0  0
   11.0314    6.4817    3.0507 H   0  0  0  0  0  0  0  0  0  0  0  0
   11.4329    6.8314    1.3661 H   0  0  0  0  0  0  0  0  0  0  0  0
    9.7923    8.4053    1.0591 H   0  0  0  0  0  0  0  0  0  0  0  0
    9.0212    7.1279    2.0600 H   0  0  0  0  0  0  0  0  0  0  0  0
    9.4864    8.5117    4.1200 H   0  0  0  0  0  0  0  0  0  0  0  0
    7.5300    9.5345    4.9487 H   0  0  0  0  0  0  0  0  0  0  0  0
    5.7753   11.1234    3.2882 H   0  0  0  0  0  0  0  0  0  0  0  0
    5.2306    9.3985    3.1843 H   0  0  0  0  0  0  0  0  0  0  0  0
    5.1012    9.2877    5.6844 H   0  0  0  0  0  0  0  0  0  0  0  0
    5.6518   10.9981    5.7975 H   0  0  0  0  0  0  0  0  0  0  0  0
    2.4124   12.4554    4.7978 H   0  0  0  0  0  0  0  0  0  0  0  0
    4.1569   12.8403    5.0120 H   0  0  0  0  0  0  0  0  0  0  0  0
   10.2198   10.8141    3.9489 H   0  0  0  0  0  0  0  0  0  0  0  0
   10.1556   10.7905    2.1674 H   0  0  0  0  0  0  0  0  0  0  0  0
   12.3922   10.1915    3.9025 H   0  0  0  0  0  0  0  0  0  0  0  0
   12.3171   10.3470    2.1361 H   0  0  0  0  0  0  0  0  0  0  0  0
  1  2  1  0
  2  3  1  0
  2  4  1  0
  4  5  1  0
  5  6  1  0
  6  7  1  0
  7  8  1  0
  8  9  2  0
  8 10  1  0
 10 11  1  0
 11 12  1  0
 12 13  1  0
 13 14  1  0
 13 15  2  0
  7 16  1  0
 16 17  1  0
 17  4  1  0
  1 18  1  0
  1 19  1  0
  1 20  1  0
  2 21  1  0
  3 22  1  0
  3 23  1  0
  3 24  1  0
  4 25  1  0
  5 26  1  0
  5 27  1  0
  6 28  1  0
  6 29  1  0
  7 30  1  0
 10 31  1  0
 11 32  1  0
 11 33  1  0
 12 34  1  0
 12 35  1  0
 14 36  1  0
 14 37  1  0
 16 38  1  0
 16 39  1  0
 17 40  1  0
 17 41  1  0
M  CHG  1   3   1
M  END
>  <EmbedRMS>  (90) 
0.16893439910694713

$$$$

     RDKit          3D

 41 41  0  0  0  0  0  0  0  0999 V2000
    4.6460   11.6759    7.1724 C   0  0  0  0  0  0  0  0  0  0  0  0
    5.2633   11.4940    5.8659 N   0  0  0  0  0  0  0  0  0  0  0  0
    5.1493   10.2629    5.1439 C   0  0  0  0  0  0  0  0  0  0  0  0
    4.5014    9.2956    5.6277 O   0  0  0  0  0  0  0  0  0  0  0  0
    5.8086   10.1135    3.8127 C   0  0  0  0  0  0  0  0  0  0  0  0
    7.2095    9.6833    3.9371 N   0  0  0  0  0  0  0  0  0  0  0  0
    7.9808    9.5180    2.7350 C   0  0  0  0  0  0  0  0  0  0  0  0
    7.4142    9.6752    1.6244 O   0  0  0  0  0  0  0  0  0  0  0  0
    9.4440    9.1935    2.6630 C   0  0  0  0  0  0  0  0  0  0  0  0
    9.7658    7.7143    2.4337 C   0  0  0  0  0  0  0  0  0  0  0  0
   11.2644    7.3644    2.5408 C   0  0  0  0  0  0  0  0  0  0  0  0
   12.1433    8.5869    2.2329 C   0  0  0  0  0  0  0  0  0  0  0  0
   13.6544    8.3400    1.9332 C   0  0  0  0  0  0  0  0  0  0  0  0
   14.0135    7.0449    1.2245 C   0  0  0  0  0  0  0  0  0  0  0  0
   14.6174    8.7741    2.9396 N   0  0  0  0  0  4  0  0  0  0  0  0
   11.8904    9.6848    3.2864 C   0  0  0  0  0  0  0  0  0  0  0  0
   10.4058   10.0816    3.4356 C   0  0  0  0  0  0  0  0  0  0  0  0
    3.5459   11.5501    7.0899 H   0  0  0  0  0  0  0  0  0  0  0  0
    4.8632   12.6960    7.5536 H   0  0  0  0  0  0  0  0  0  0  0  0
    5.0530   10.9310    7.8883 H   0  0  0  0  0  0  0  0  0  0  0  0
    5.8124   12.2820    5.4541 H   0  0  0  0  0  0  0  0  0  0  0  0
    5.2457    9.3665    3.2110 H   0  0  0  0  0  0  0  0  0  0  0  0
    5.7655   11.0860    3.2759 H   0  0  0  0  0  0  0  0  0  0  0  0
    7.6527    9.5270    4.8705 H   0  0  0  0  0  0  0  0  0  0  0  0
    9.6833    9.5857    1.6449 H   0  0  0  0  0  0  0  0  0  0  0  0
    9.2152    7.1104    3.1876 H   0  0  0  0  0  0  0  0  0  0  0  0
    9.3851    7.3989    1.4351 H   0  0  0  0  0  0  0  0  0  0  0  0
   11.4740    6.5318    1.8378 H   0  0  0  0  0  0  0  0  0  0  0  0
   11.4952    7.0010    3.5664 H   0  0  0  0  0  0  0  0  0  0  0  0
   11.7498    8.9804    1.2663 H   0  0  0  0  0  0  0  0  0  0  0  0
   13.8441    9.0654    1.1031 H   0  0  0  0  0  0  0  0  0  0  0  0
   15.0584    7.0793    0.8474 H   0  0  0  0  0  0  0  0  0  0  0  0
   13.3402    6.8740    0.3569 H   0  0  0  0  0  0  0  0  0  0  0  0
   13.9243    6.1936    1.9314 H   0  0  0  0  0  0  0  0  0  0  0  0
   15.5927    8.5554    2.6308 H   0  0  0  0  0  0  0  0  0  0  0  0
   14.5660    9.8051    3.1020 H   0  0  0  0  0  0  0  0  0  0  0  0
   14.4336    8.2664    3.8348 H   0  0  0  0  0  0  0  0  0  0  0  0
   12.2736    9.3421    4.2727 H   0  0  0  0  0  0  0  0  0  0  0  0
   12.4550   10.5998    3.0047 H   0  0  0  0  0  0  0  0  0  0  0  0
   10.1351   10.0261    4.5122 H   0  0  0  0  0  0  0  0  0  0  0  0
   10.2667   11.1445    3.1312 H   0  0  0  0  0  0  0  0  0  0  0  0
  1  2  1  0
  2  3  1  0
  3  4  2  0
  3  5  1  0
  5  6  1  0
  6  7  1  0
  7  8  2  0
  7  9  1  0
  9 10  1  0
 10 11  1  0
 11 12  1  0
 12 13  1  0
 13 14  1  0
 13 15  1  0
 12 16  1  0
 16 17  1  0
 17  9  1  0
  1 18  1  0
  1 19  1  0
  1 20  1  0
  2 21  1  0
  5 22  1  0
  5 23  1  0
  6 24  1  0
  9 25  1  0
 10 26  1  0
 10 27  1  0
 11 28  1  0
 11 29  1  0
 12 30  1  0
 13 31  1  0
 14 32  1  0
 14 33  1  0
 14 34  1  0
 15 35  1  0
 15 36  1  0
 15 37  1  0
 16 38  1  0
 16 39  1  0
 17 40  1  0
 17 41  1  0
M  CHG  1  15   1
M  END
>  <EmbedRMS>  (91) 
0.2569057114362328

$$$$

     RDKit          3D

 41 41  0  0  0  0  0  0  0  0999 V2000
    4.6460   11.6759    7.1724 C   0  0  0  0  0  0  0  0  0  0  0  0
    5.2633   11.4940    5.8659 N   0  0  0  0  0  0  0  0  0  0  0  0
    5.1493   10.2629    5.1439 C   0  0  0  0  0  0  0  0  0  0  0  0
    4.5014    9.2956    5.6277 O   0  0  0  0  0  0  0  0  0  0  0  0
    5.8086   10.1135    3.8127 C   0  0  0  0  0  0  0  0  0  0  0  0
    7.2095    9.6833    3.9371 N   0  0  0  0  0  0  0  0  0  0  0  0
    7.9808    9.5180    2.7350 C   0  0  0  0  0  0  0  0  0  0  0  0
    7.4142    9.6752    1.6244 O   0  0  0  0  0  0  0  0  0  0  0  0
    9.4440    9.1935    2.6630 C   0  0  0  0  0  0  0  0  0  0  0  0
    9.7658    7.7143    2.4337 C   0  0  0  0  0  0  0  0  0  0  0  0
   11.2644    7.3644    2.5408 C   0  0  0  0  0  0  0  0  0  0  0  0
   12.1433    8.5869    2.2329 C   0  0  0  0  0  0  0  0  0  0  0  0
   13.6544    8.3400    1.9332 C   0  0  0  0  0  0  0  0  0  0  0  0
   14.0135    7.0449    1.2245 C   0  0  0  0  0  0  0  0  0  0  0  0
   14.6174    8.7741    2.9396 N   0  0  0  0  0  4  0  0  0  0  0  0
   11.8904    9.6848    3.2864 C   0  0  0  0  0  0  0  0  0  0  0  0
   10.4058   10.0816    3.4356 C   0  0  0  0  0  0  0  0  0  0  0  0
    3.5459   11.5501    7.0899 H   0  0  0  0  0  0  0  0  0  0  0  0
    4.8632   12.6960    7.5536 H   0  0  0  0  0  0  0  0  0  0  0  0
    5.0530   10.9310    7.8883 H   0  0  0  0  0  0  0  0  0  0  0  0
    5.8124   12.2820    5.4541 H   0  0  0  0  0  0  0  0  0  0  0  0
    5.2457    9.3665    3.2110 H   0  0  0  0  0  0  0  0  0  0  0  0
    5.7655   11.0860    3.2759 H   0  0  0  0  0  0  0  0  0  0  0  0
    7.6527    9.5270    4.8705 H   0  0  0  0  0  0  0  0  0  0  0  0
    9.6833    9.5857    1.6449 H   0  0  0  0  0  0  0  0  0  0  0  0
    9.2152    7.1104    3.1876 H   0  0  0  0  0  0  0  0  0  0  0  0
    9.3851    7.3989    1.4351 H   0  0  0  0  0  0  0  0  0  0  0  0
   11.4740    6.5318    1.8378 H   0  0  0  0  0  0  0  0  0  0  0  0
   11.4952    7.0010    3.5664 H   0  0  0  0  0  0  0  0  0  0  0  0
   11.7498    8.9804    1.2663 H   0  0  0  0  0  0  0  0  0  0  0  0
   13.8441    9.0654    1.1031 H   0  0  0  0  0  0  0  0  0  0  0  0
   15.0584    7.0793    0.8474 H   0  0  0  0  0  0  0  0  0  0  0  0
   13.3402    6.8740    0.3569 H   0  0  0  0  0  0  0  0  0  0  0  0
   13.9243    6.1936    1.9314 H   0  0  0  0  0  0  0  0  0  0  0  0
   15.5927    8.5554    2.6308 H   0  0  0  0  0  0  0  0  0  0  0  0
   14.5660    9.8051    3.1020 H   0  0  0  0  0  0  0  0  0  0  0  0
   14.4336    8.2664    3.8348 H   0  0  0  0  0  0  0  0  0  0  0  0
   12.2736    9.3421    4.2727 H   0  0  0  0  0  0  0  0  0  0  0  0
   12.4550   10.5998    3.0047 H   0  0  0  0  0  0  0  0  0  0  0  0
   10.1351   10.0261    4.5122 H   0  0  0  0  0  0  0  0  0  0  0  0
   10.2667   11.1445    3.1312 H   0  0  0  0  0  0  0  0  0  0  0  0
  1  2  1  0
  2  3  1  0
  3  4  2  0
  3  5  1  0
  5  6  1  0
  6  7  1  0
  7  8  2  0
  7  9  1  0
  9 10  1  0
 10 11  1  0
 11 12  1  0
 12 13  1  0
 13 14  1  0
 13 15  1  0
 12 16  1  0
 16 17  1  0
 17  9  1  0
  1 18  1  0
  1 19  1  0
  1 20  1  0
  2 21  1  0
  5 22  1  0
  5 23  1  0
  6 24  1  0
  9 25  1  0
 10 26  1  0
 10 27  1  0
 11 28  1  0
 11 29  1  0
 12 30  1  0
 13 31  1  0
 14 32  1  0
 14 33  1  0
 14 34  1  0
 15 35  1  0
 15 36  1  0
 15 37  1  0
 16 38  1  0
 16 39  1  0
 17 40  1  0
 17 41  1  0
M  CHG  1  15   1
M  END
>  <EmbedRMS>  (92) 
0.2569057114362328

$$$$

     RDKit          3D

 41 41  0  0  0  0  0  0  0  0999 V2000
   13.9335    7.3325    1.0254 C   0  0  0  0  0  0  0  0  0  0  0  0
   13.7111    7.9147    2.4294 C   0  0  0  0  0  0  0  0  0  0  0  0
   14.6492    9.0164    2.6728 N   0  0  0  0  0  4  0  0  0  0  0  0
   12.2340    8.2985    2.7952 C   0  0  0  0  0  0  0  0  0  0  0  0
   11.1482    7.3150    2.3189 C   0  0  0  0  0  0  0  0  0  0  0  0
    9.7867    7.9361    2.0695 C   0  0  0  0  0  0  0  0  0  0  0  0
    9.4243    8.9840    3.1139 C   0  0  0  0  0  0  0  0  0  0  0  0
    8.0167    9.4657    2.8724 C   0  0  0  0  0  0  0  0  0  0  0  0
    7.6084    9.6870    1.6966 O   0  0  0  0  0  0  0  0  0  0  0  0
    7.1544    9.6951    3.9857 N   0  0  0  0  0  0  0  0  0  0  0  0
    5.7782   10.1397    3.8073 C   0  0  0  0  0  0  0  0  0  0  0  0
    5.0965   10.2714    5.1652 C   0  0  0  0  0  0  0  0  0  0  0  0
    3.6898   10.7359    4.9935 C   0  0  0  0  0  0  0  0  0  0  0  0
    3.3955   12.1302    4.9317 N   0  0  0  0  0  0  0  0  0  0  0  0
    2.7647    9.8917    4.8614 O   0  0  0  0  0  0  0  0  0  0  0  0
   10.3953   10.1682    3.0601 C   0  0  0  0  0  0  0  0  0  0  0  0
   11.8871    9.7888    2.9947 C   0  0  0  0  0  0  0  0  0  0  0  0
   15.0179    7.2757    0.7910 H   0  0  0  0  0  0  0  0  0  0  0  0
   13.5386    6.2973    0.9558 H   0  0  0  0  0  0  0  0  0  0  0  0
   13.4421    7.9747    0.2640 H   0  0  0  0  0  0  0  0  0  0  0  0
   14.0083    7.0848    3.1152 H   0  0  0  0  0  0  0  0  0  0  0  0
   14.5410    9.3810    3.6464 H   0  0  0  0  0  0  0  0  0  0  0  0
   14.5103    9.7860    1.9792 H   0  0  0  0  0  0  0  0  0  0  0  0
   15.6325    8.6698    2.5844 H   0  0  0  0  0  0  0  0  0  0  0  0
   12.2374    8.0286    3.8797 H   0  0  0  0  0  0  0  0  0  0  0  0
   11.0314    6.4817    3.0507 H   0  0  0  0  0  0  0  0  0  0  0  0
   11.4329    6.8314    1.3661 H   0  0  0  0  0  0  0  0  0  0  0  0
    9.7923    8.4053    1.0591 H   0  0  0  0  0  0  0  0  0  0  0  0
    9.0212    7.1279    2.0600 H   0  0  0  0  0  0  0  0  0  0  0  0
    9.4864    8.5117    4.1200 H   0  0  0  0  0  0  0  0  0  0  0  0
    7.5300    9.5345    4.9487 H   0  0  0  0  0  0  0  0  0  0  0  0
    5.7753   11.1234    3.2882 H   0  0  0  0  0  0  0  0  0  0  0  0
    5.2306    9.3985    3.1843 H   0  0  0  0  0  0  0  0  0  0  0  0
    5.1012    9.2877    5.6844 H   0  0  0  0  0  0  0  0  0  0  0  0
    5.6518   10.9981    5.7975 H   0  0  0  0  0  0  0  0  0  0  0  0
    2.4124   12.4554    4.7978 H   0  0  0  0  0  0  0  0  0  0  0  0
    4.1569   12.8403    5.0120 H   0  0  0  0  0  0  0  0  0  0  0  0
   10.2198   10.8141    3.9489 H   0  0  0  0  0  0  0  0  0  0  0  0
   10.1556   10.7905    2.1674 H   0  0  0  0  0  0  0  0  0  0  0  0
   12.3922   10.1915    3.9025 H   0  0  0  0  0  0  0  0  0  0  0  0
   12.3171   10.3470    2.1361 H   0  0  0  0  0  0  0  0  0  0  0  0
  1  2  1  0
  2  3  1  0
  2  4  1  0
  4  5  1  0
  5  6  1  0
  6  7  1  0
  7  8  1  0
  8  9  2  0
  8 10  1  0
 10 11  1  0
 11 12  1  0
 12 13  1  0
 13 14  1  0
 13 15  2  0
  7 16  1  0
 16 17  1  0
 17  4  1  0
  1 18  1  0
  1 19  1  0
  1 20  1  0
  2 21  1  0
  3 22  1  0
  3 23  1  0
  3 24  1  0
  4 25  1  0
  5 26  1  0
  5 27  1  0
  6 28  1  0
  6 29  1  0
  7 30  1  0
 10 31  1  0
 11 32  1  0
 11 33  1  0
 12 34  1  0
 12 35  1  0
 14 36  1  0
 14 37  1  0
 16 38  1  0
 16 39  1  0
 17 40  1  0
 17 41  1  0
M  CHG  1   3   1
M  END
>  <EmbedRMS>  (93) 
0.16893439910694713

$$$$

     RDKit          3D

 41 41  0  0  0  0  0  0  0  0999 V2000
    4.6460   11.6759    7.1724 C   0  0  0  0  0  0  0  0  0  0  0  0
    5.2633   11.4940    5.8659 N   0  0  0  0  0  0  0  0  0  0  0  0
    5.1493   10.2629    5.1439 C   0  0  0  0  0  0  0  0  0  0  0  0
    4.5014    9.2956    5.6277 O   0  0  0  0  0  0  0  0  0  0  0  0
    5.8086   10.1135    3.8127 C   0  0  0  0  0  0  0  0  0  0  0  0
    7.2095    9.6833    3.9371 N   0  0  0  0  0  0  0  0  0  0  0  0
    7.9808    9.5180    2.7350 C   0  0  0  0  0  0  0  0  0  0  0  0
    7.4142    9.6752    1.6244 O   0  0  0  0  0  0  0  0  0  0  0  0
    9.4440    9.1935    2.6630 C   0  0  0  0  0  0  0  0  0  0  0  0
    9.7658    7.7143    2.4337 C   0  0  0  0  0  0  0  0  0  0  0  0
   11.2644    7.3644    2.5408 C   0  0  0  0  0  0  0  0  0  0  0  0
   12.1433    8.5869    2.2329 C   0  0  0  0  0  0  0  0  0  0  0  0
   13.6544    8.3400    1.9332 C   0  0  0  0  0  0  0  0  0  0  0  0
   14.0135    7.0449    1.2245 C   0  0  0  0  0  0  0  0  0  0  0  0
   14.6174    8.7741    2.9396 N   0  0  0  0  0  4  0  0  0  0  0  0
   11.8904    9.6848    3.2864 C   0  0  0  0  0  0  0  0  0  0  0  0
   10.4058   10.0816    3.4356 C   0  0  0  0  0  0  0  0  0  0  0  0
    3.5459   11.5501    7.0899 H   0  0  0  0  0  0  0  0  0  0  0  0
    4.8632   12.6960    7.5536 H   0  0  0  0  0  0  0  0  0  0  0  0
    5.0530   10.9310    7.8883 H   0  0  0  0  0  0  0  0  0  0  0  0
    5.8124   12.2820    5.4541 H   0  0  0  0  0  0  0  0  0  0  0  0
    5.2457    9.3665    3.2110 H   0  0  0  0  0  0  0  0  0  0  0  0
    5.7655   11.0860    3.2759 H   0  0  0  0  0  0  0  0  0  0  0  0
    7.6527    9.5270    4.8705 H   0  0  0  0  0  0  0  0  0  0  0  0
    9.6833    9.5857    1.6449 H   0  0  0  0  0  0  0  0  0  0  0  0
    9.2152    7.1104    3.1876 H   0  0  0  0  0  0  0  0  0  0  0  0
    9.3851    7.3989    1.4351 H   0  0  0  0  0  0  0  0  0  0  0  0
   11.4740    6.5318    1.8378 H   0  0  0  0  0  0  0  0  0  0  0  0
   11.4952    7.0010    3.5664 H   0  0  0  0  0  0  0  0  0  0  0  0
   11.7498    8.9804    1.2663 H   0  0  0  0  0  0  0  0  0  0  0  0
   13.8441    9.0654    1.1031 H   0  0  0  0  0  0  0  0  0  0  0  0
   15.0584    7.0793    0.8474 H   0  0  0  0  0  0  0  0  0  0  0  0
   13.3402    6.8740    0.3569 H   0  0  0  0  0  0  0  0  0  0  0  0
   13.9243    6.1936    1.9314 H   0  0  0  0  0  0  0  0  0  0  0  0
   15.5927    8.5554    2.6308 H   0  0  0  0  0  0  0  0  0  0  0  0
   14.5660    9.8051    3.1020 H   0  0  0  0  0  0  0  0  0  0  0  0
   14.4336    8.2664    3.8348 H   0  0  0  0  0  0  0  0  0  0  0  0
   12.2736    9.3421    4.2727 H   0  0  0  0  0  0  0  0  0  0  0  0
   12.4550   10.5998    3.0047 H   0  0  0  0  0  0  0  0  0  0  0  0
   10.1351   10.0261    4.5122 H   0  0  0  0  0  0  0  0  0  0  0  0
   10.2667   11.1445    3.1312 H   0  0  0  0  0  0  0  0  0  0  0  0
  1  2  1  0
  2  3  1  0
  3  4  2  0
  3  5  1  0
  5  6  1  0
  6  7  1  0
  7  8  2  0
  7  9  1  0
  9 10  1  0
 10 11  1  0
 11 12  1  0
 12 13  1  0
 13 14  1  0
 13 15  1  0
 12 16  1  0
 16 17  1  0
 17  9  1  0
  1 18  1  0
  1 19  1  0
  1 20  1  0
  2 21  1  0
  5 22  1  0
  5 23  1  0
  6 24  1  0
  9 25  1  0
 10 26  1  0
 10 27  1  0
 11 28  1  0
 11 29  1  0
 12 30  1  0
 13 31  1  0
 14 32  1  0
 14 33  1  0
 14 34  1  0
 15 35  1  0
 15 36  1  0
 15 37  1  0
 16 38  1  0
 16 39  1  0
 17 40  1  0
 17 41  1  0
M  CHG  1  15   1
M  END
>  <EmbedRMS>  (94) 
0.2569057114362328

$$$$

     RDKit          3D

 41 41  0  0  0  0  0  0  0  0999 V2000
    4.6460   11.6759    7.1724 C   0  0  0  0  0  0  0  0  0  0  0  0
    5.2633   11.4940    5.8659 N   0  0  0  0  0  0  0  0  0  0  0  0
    5.1493   10.2629    5.1439 C   0  0  0  0  0  0  0  0  0  0  0  0
    4.5014    9.2956    5.6277 O   0  0  0  0  0  0  0  0  0  0  0  0
    5.8086   10.1135    3.8127 C   0  0  0  0  0  0  0  0  0  0  0  0
    7.2095    9.6833    3.9371 N   0  0  0  0  0  0  0  0  0  0  0  0
    7.9808    9.5180    2.7350 C   0  0  0  0  0  0  0  0  0  0  0  0
    7.4142    9.6752    1.6244 O   0  0  0  0  0  0  0  0  0  0  0  0
    9.4440    9.1935    2.6630 C   0  0  0  0  0  0  0  0  0  0  0  0
    9.7658    7.7143    2.4337 C   0  0  0  0  0  0  0  0  0  0  0  0
   11.2644    7.3644    2.5408 C   0  0  0  0  0  0  0  0  0  0  0  0
   12.1433    8.5869    2.2329 C   0  0  0  0  0  0  0  0  0  0  0  0
   13.6544    8.3400    1.9332 C   0  0  0  0  0  0  0  0  0  0  0  0
   14.0135    7.0449    1.2245 C   0  0  0  0  0  0  0  0  0  0  0  0
   14.6174    8.7741    2.9396 N   0  0  0  0  0  4  0  0  0  0  0  0
   11.8904    9.6848    3.2864 C   0  0  0  0  0  0  0  0  0  0  0  0
   10.4058   10.0816    3.4356 C   0  0  0  0  0  0  0  0  0  0  0  0
    3.5459   11.5501    7.0899 H   0  0  0  0  0  0  0  0  0  0  0  0
    4.8632   12.6960    7.5536 H   0  0  0  0  0  0  0  0  0  0  0  0
    5.0530   10.9310    7.8883 H   0  0  0  0  0  0  0  0  0  0  0  0
    5.8124   12.2820    5.4541 H   0  0  0  0  0  0  0  0  0  0  0  0
    5.2457    9.3665    3.2110 H   0  0  0  0  0  0  0  0  0  0  0  0
    5.7655   11.0860    3.2759 H   0  0  0  0  0  0  0  0  0  0  0  0
    7.6527    9.5270    4.8705 H   0  0  0  0  0  0  0  0  0  0  0  0
    9.6833    9.5857    1.6449 H   0  0  0  0  0  0  0  0  0  0  0  0
    9.2152    7.1104    3.1876 H   0  0  0  0  0  0  0  0  0  0  0  0
    9.3851    7.3989    1.4351 H   0  0  0  0  0  0  0  0  0  0  0  0
   11.4740    6.5318    1.8378 H   0  0  0  0  0  0  0  0  0  0  0  0
   11.4952    7.0010    3.5664 H   0  0  0  0  0  0  0  0  0  0  0  0
   11.7498    8.9804    1.2663 H   0  0  0  0  0  0  0  0  0  0  0  0
   13.8441    9.0654    1.1031 H   0  0  0  0  0  0  0  0  0  0  0  0
   15.0584    7.0793    0.8474 H   0  0  0  0  0  0  0  0  0  0  0  0
   13.3402    6.8740    0.3569 H   0  0  0  0  0  0  0  0  0  0  0  0
   13.9243    6.1936    1.9314 H   0  0  0  0  0  0  0  0  0  0  0  0
   15.5927    8.5554    2.6308 H   0  0  0  0  0  0  0  0  0  0  0  0
   14.5660    9.8051    3.1020 H   0  0  0  0  0  0  0  0  0  0  0  0
   14.4336    8.2664    3.8348 H   0  0  0  0  0  0  0  0  0  0  0  0
   12.2736    9.3421    4.2727 H   0  0  0  0  0  0  0  0  0  0  0  0
   12.4550   10.5998    3.0047 H   0  0  0  0  0  0  0  0  0  0  0  0
   10.1351   10.0261    4.5122 H   0  0  0  0  0  0  0  0  0  0  0  0
   10.2667   11.1445    3.1312 H   0  0  0  0  0  0  0  0  0  0  0  0
  1  2  1  0
  2  3  1  0
  3  4  2  0
  3  5  1  0
  5  6  1  0
  6  7  1  0
  7  8  2  0
  7  9  1  0
  9 10  1  0
 10 11  1  0
 11 12  1  0
 12 13  1  0
 13 14  1  0
 13 15  1  0
 12 16  1  0
 16 17  1  0
 17  9  1  0
  1 18  1  0
  1 19  1  0
  1 20  1  0
  2 21  1  0
  5 22  1  0
  5 23  1  0
  6 24  1  0
  9 25  1  0
 10 26  1  0
 10 27  1  0
 11 28  1  0
 11 29  1  0
 12 30  1  0
 13 31  1  0
 14 32  1  0
 14 33  1  0
 14 34  1  0
 15 35  1  0
 15 36  1  0
 15 37  1  0
 16 38  1  0
 16 39  1  0
 17 40  1  0
 17 41  1  0
M  CHG  1  15   1
M  END
>  <EmbedRMS>  (95) 
0.2569057114362328

$$$$

     RDKit          3D

 41 41  0  0  0  0  0  0  0  0999 V2000
   14.0115    7.0506    1.2528 C   0  0  0  0  0  0  0  0  0  0  0  0
   13.6007    8.3244    1.9897 C   0  0  0  0  0  0  0  0  0  0  0  0
   14.7026    8.8917    2.7697 N   0  0  0  0  0  4  0  0  0  0  0  0
   12.2613    8.3272    2.7670 C   0  0  0  0  0  0  0  0  0  0  0  0
   11.1798    7.4395    2.1343 C   0  0  0  0  0  0  0  0  0  0  0  0
    9.7449    7.7260    2.5438 C   0  0  0  0  0  0  0  0  0  0  0  0
    9.4498    9.2016    2.6348 C   0  0  0  0  0  0  0  0  0  0  0  0
    7.9883    9.5247    2.7224 C   0  0  0  0  0  0  0  0  0  0  0  0
    7.4124    9.6708    1.6173 O   0  0  0  0  0  0  0  0  0  0  0  0
    7.2314    9.6900    3.9341 N   0  0  0  0  0  0  0  0  0  0  0  0
    5.8391   10.1600    3.8802 C   0  0  0  0  0  0  0  0  0  0  0  0
    5.7848   11.6424    3.4802 C   0  0  0  0  0  0  0  0  0  0  0  0
    4.4046   12.0986    3.3235 N   0  0  0  0  0  0  0  0  0  0  0  0
    4.0979   13.4521    2.9752 C   0  0  0  0  0  0  0  0  0  0  0  0
    5.0150   14.2987    2.8019 O   0  0  0  0  0  0  0  0  0  0  0  0
   10.3846   10.0200    3.4814 C   0  0  0  0  0  0  0  0  0  0  0  0
   11.8491    9.7807    3.1212 C   0  0  0  0  0  0  0  0  0  0  0  0
   14.9833    7.1928    0.7338 H   0  0  0  0  0  0  0  0  0  0  0  0
   14.1168    6.2176    1.9793 H   0  0  0  0  0  0  0  0  0  0  0  0
   13.2678    6.7648    0.4810 H   0  0  0  0  0  0  0  0  0  0  0  0
   13.4367    9.0286    1.1409 H   0  0  0  0  0  0  0  0  0  0  0  0
   15.5920    8.8676    2.2197 H   0  0  0  0  0  0  0  0  0  0  0  0
   14.5201    9.8921    3.0081 H   0  0  0  0  0  0  0  0  0  0  0  0
   14.8383    8.3412    3.6484 H   0  0  0  0  0  0  0  0  0  0  0  0
   12.4685    7.8405    3.7468 H   0  0  0  0  0  0  0  0  0  0  0  0
   11.4064    6.3669    2.3233 H   0  0  0  0  0  0  0  0  0  0  0  0
   11.2136    7.5916    1.0333 H   0  0  0  0  0  0  0  0  0  0  0  0
    9.5620    7.2714    3.5419 H   0  0  0  0  0  0  0  0  0  0  0  0
    9.0548    7.2351    1.8212 H   0  0  0  0  0  0  0  0  0  0  0  0
    9.7207    9.5606    1.6108 H   0  0  0  0  0  0  0  0  0  0  0  0
    7.6691    9.4627    4.8547 H   0  0  0  0  0  0  0  0  0  0  0  0
    5.2621    9.5419    3.1581 H   0  0  0  0  0  0  0  0  0  0  0  0
    5.3740   10.0392    4.8825 H   0  0  0  0  0  0  0  0  0  0  0  0
    6.3234   11.8023    2.5228 H   0  0  0  0  0  0  0  0  0  0  0  0
    6.2851   12.2470    4.2676 H   0  0  0  0  0  0  0  0  0  0  0  0
    3.6094   11.4357    3.4671 H   0  0  0  0  0  0  0  0  0  0  0  0
    3.0657   13.7552    2.8606 H   0  0  0  0  0  0  0  0  0  0  0  0
   10.1471   11.1031    3.3845 H   0  0  0  0  0  0  0  0  0  0  0  0
   10.2299    9.7359    4.5451 H   0  0  0  0  0  0  0  0  0  0  0  0
   12.4695   10.1520    3.9658 H   0  0  0  0  0  0  0  0  0  0  0  0
   12.0655   10.4407    2.2522 H   0  0  0  0  0  0  0  0  0  0  0  0
  1  2  1  0
  2  3  1  0
  2  4  1  0
  4  5  1  0
  5  6  1  0
  6  7  1  0
  7  8  1  0
  8  9  2  0
  8 10  1  0
 10 11  1  0
 11 12  1  0
 12 13  1  0
 13 14  1  0
 14 15  2  0
  7 16  1  0
 16 17  1  0
 17  4  1  0
  1 18  1  0
  1 19  1  0
  1 20  1  0
  2 21  1  0
  3 22  1  0
  3 23  1  0
  3 24  1  0
  4 25  1  0
  5 26  1  0
  5 27  1  0
  6 28  1  0
  6 29  1  0
  7 30  1  0
 10 31  1  0
 11 32  1  0
 11 33  1  0
 12 34  1  0
 12 35  1  0
 13 36  1  0
 14 37  1  0
 16 38  1  0
 16 39  1  0
 17 40  1  0
 17 41  1  0
M  CHG  1   3   1
M  END
>  <EmbedRMS>  (96) 
0.30207850723488733

$$$$

     RDKit          3D

 41 41  0  0  0  0  0  0  0  0999 V2000
   13.9330    7.3325    1.0255 C   0  0  0  0  0  0  0  0  0  0  0  0
   13.7100    7.9149    2.4294 C   0  0  0  0  0  0  0  0  0  0  0  0
   14.6481    9.0165    2.6731 N   0  0  0  0  0  4  0  0  0  0  0  0
   12.2326    8.2986    2.7947 C   0  0  0  0  0  0  0  0  0  0  0  0
   11.1465    7.3154    2.3182 C   0  0  0  0  0  0  0  0  0  0  0  0
    9.7857    7.9375    2.0647 C   0  0  0  0  0  0  0  0  0  0  0  0
    9.4210    8.9849    3.1082 C   0  0  0  0  0  0  0  0  0  0  0  0
    8.0105    9.4677    2.8685 C   0  0  0  0  0  0  0  0  0  0  0  0
    7.6043    9.6874    1.6924 O   0  0  0  0  0  0  0  0  0  0  0  0
    7.1562    9.6993    3.9924 N   0  0  0  0  0  0  0  0  0  0  0  0
    5.7878   10.1343    3.9080 C   0  0  0  0  0  0  0  0  0  0  0  0
    5.2658   10.3672    2.7819 O   0  0  0  0  0  0  0  0  0  0  0  0
    5.0050   10.3092    5.1076 N   0  0  0  0  0  0  0  0  0  0  0  0
    3.6158   10.7605    5.0048 C   0  0  0  0  0  0  0  0  0  0  0  0
    5.5864   10.0387    6.4259 C   0  0  0  0  0  0  0  0  0  0  0  0
   10.3933   10.1685    3.0584 C   0  0  0  0  0  0  0  0  0  0  0  0
   11.8853    9.7890    2.9943 C   0  0  0  0  0  0  0  0  0  0  0  0
   15.0174    7.2760    0.7914 H   0  0  0  0  0  0  0  0  0  0  0  0
   13.4415    7.9744    0.2640 H   0  0  0  0  0  0  0  0  0  0  0  0
   13.5385    6.2972    0.9560 H   0  0  0  0  0  0  0  0  0  0  0  0
   14.0070    7.0850    3.1154 H   0  0  0  0  0  0  0  0  0  0  0  0
   14.5394    9.3813    3.6466 H   0  0  0  0  0  0  0  0  0  0  0  0
   15.6314    8.6699    2.5851 H   0  0  0  0  0  0  0  0  0  0  0  0
   14.5095    9.7861    1.9793 H   0  0  0  0  0  0  0  0  0  0  0  0
   12.2357    8.0287    3.8792 H   0  0  0  0  0  0  0  0  0  0  0  0
   11.0272    6.4836    3.0513 H   0  0  0  0  0  0  0  0  0  0  0  0
   11.4326    6.8295    1.3669 H   0  0  0  0  0  0  0  0  0  0  0  0
    9.7942    8.4072    1.0547 H   0  0  0  0  0  0  0  0  0  0  0  0
    9.0198    7.1298    2.0529 H   0  0  0  0  0  0  0  0  0  0  0  0
    9.4852    8.5096    4.1128 H   0  0  0  0  0  0  0  0  0  0  0  0
    7.5806    9.5394    4.9308 H   0  0  0  0  0  0  0  0  0  0  0  0
    3.0302   10.0331    4.4039 H   0  0  0  0  0  0  0  0  0  0  0  0
    3.1332   10.8543    6.0002 H   0  0  0  0  0  0  0  0  0  0  0  0
    3.5813   11.7538    4.5094 H   0  0  0  0  0  0  0  0  0  0  0  0
    5.9132    8.9789    6.4845 H   0  0  0  0  0  0  0  0  0  0  0  0
    4.8539   10.2085    7.2425 H   0  0  0  0  0  0  0  0  0  0  0  0
    6.4495   10.7143    6.6041 H   0  0  0  0  0  0  0  0  0  0  0  0
   10.1546   10.7928    2.1669 H   0  0  0  0  0  0  0  0  0  0  0  0
   10.2167   10.8125    3.9484 H   0  0  0  0  0  0  0  0  0  0  0  0
   12.3898   10.1917    3.9024 H   0  0  0  0  0  0  0  0  0  0  0  0
   12.3160   10.3471    2.1359 H   0  0  0  0  0  0  0  0  0  0  0  0
  1  2  1  0
  2  3  1  0
  2  4  1  0
  4  5  1  0
  5  6  1  0
  6  7  1  0
  7  8  1  0
  8  9  2  0
  8 10  1  0
 10 11  1  0
 11 12  2  0
 11 13  1  0
 13 14  1  0
 13 15  1  0
  7 16  1  0
 16 17  1  0
 17  4  1  0
  1 18  1  0
  1 19  1  0
  1 20  1  0
  2 21  1  0
  3 22  1  0
  3 23  1  0
  3 24  1  0
  4 25  1  0
  5 26  1  0
  5 27  1  0
  6 28  1  0
  6 29  1  0
  7 30  1  0
 10 31  1  0
 14 32  1  0
 14 33  1  0
 14 34  1  0
 15 35  1  0
 15 36  1  0
 15 37  1  0
 16 38  1  0
 16 39  1  0
 17 40  1  0
 17 41  1  0
M  CHG  1   3   1
M  END
>  <EmbedRMS>  (97) 
0.16951277661790554

$$$$

     RDKit          3D

 41 41  0  0  0  0  0  0  0  0999 V2000
   14.0112    7.0502    1.2530 C   0  0  0  0  0  0  0  0  0  0  0  0
   13.6006    8.3242    1.9896 C   0  0  0  0  0  0  0  0  0  0  0  0
   14.7025    8.8915    2.7695 N   0  0  0  0  0  4  0  0  0  0  0  0
   12.2611    8.3275    2.7668 C   0  0  0  0  0  0  0  0  0  0  0  0
   11.1789    7.4405    2.1342 C   0  0  0  0  0  0  0  0  0  0  0  0
    9.7438    7.7286    2.5427 C   0  0  0  0  0  0  0  0  0  0  0  0
    9.4497    9.2048    2.6337 C   0  0  0  0  0  0  0  0  0  0  0  0
    7.9879    9.5295    2.7214 C   0  0  0  0  0  0  0  0  0  0  0  0
    7.4128    9.6770    1.6163 O   0  0  0  0  0  0  0  0  0  0  0  0
    7.2353    9.7042    3.9341 N   0  0  0  0  0  0  0  0  0  0  0  0
    5.8340   10.1508    3.8938 C   0  0  0  0  0  0  0  0  0  0  0  0
    5.7099   11.6592    4.1550 C   0  0  0  0  0  0  0  0  0  0  0  0
    6.2760   12.5224    3.0236 C   0  0  0  0  0  0  0  0  0  0  0  0
    7.6715   12.5833    3.1173 O   0  0  0  0  0  0  0  0  0  0  0  0
   10.3857   10.0213    3.4811 C   0  0  0  0  0  0  0  0  0  0  0  0
   11.8496    9.7812    3.1206 C   0  0  0  0  0  0  0  0  0  0  0  0
   14.1168    6.2176    1.9797 H   0  0  0  0  0  0  0  0  0  0  0  0
   13.2672    6.7640    0.4815 H   0  0  0  0  0  0  0  0  0  0  0  0
   14.9828    7.1924    0.7335 H   0  0  0  0  0  0  0  0  0  0  0  0
   13.4368    9.0282    1.1406 H   0  0  0  0  0  0  0  0  0  0  0  0
   14.8376    8.3417    3.6487 H   0  0  0  0  0  0  0  0  0  0  0  0
   14.5205    9.8923    3.0071 H   0  0  0  0  0  0  0  0  0  0  0  0
   15.5921    8.8665    2.2199 H   0  0  0  0  0  0  0  0  0  0  0  0
   12.4679    7.8409    3.7467 H   0  0  0  0  0  0  0  0  0  0  0  0
   11.2133    7.5919    1.0331 H   0  0  0  0  0  0  0  0  0  0  0  0
   11.4044    6.3677    2.3239 H   0  0  0  0  0  0  0  0  0  0  0  0
    9.5597    7.2741    3.5407 H   0  0  0  0  0  0  0  0  0  0  0  0
    9.0536    7.2385    1.8196 H   0  0  0  0  0  0  0  0  0  0  0  0
    9.7211    9.5640    1.6100 H   0  0  0  0  0  0  0  0  0  0  0  0
    7.7202    9.6263    4.8558 H   0  0  0  0  0  0  0  0  0  0  0  0
    5.2756    9.6127    4.6895 H   0  0  0  0  0  0  0  0  0  0  0  0
    5.3471    9.8825    2.9314 H   0  0  0  0  0  0  0  0  0  0  0  0
    6.2064   11.9192    5.1154 H   0  0  0  0  0  0  0  0  0  0  0  0
    4.6296   11.8978    4.2654 H   0  0  0  0  0  0  0  0  0  0  0  0
    5.8625   13.5509    3.1198 H   0  0  0  0  0  0  0  0  0  0  0  0
    5.9690   12.1143    2.0344 H   0  0  0  0  0  0  0  0  0  0  0  0
    7.9776   13.1131    2.3361 H   0  0  0  0  0  0  0  0  0  0  0  0
   10.2319    9.7363    4.5446 H   0  0  0  0  0  0  0  0  0  0  0  0
   10.1501   11.1047    3.3855 H   0  0  0  0  0  0  0  0  0  0  0  0
   12.0661   10.4408    2.2513 H   0  0  0  0  0  0  0  0  0  0  0  0
   12.4705   10.1525    3.9649 H   0  0  0  0  0  0  0  0  0  0  0  0
  1  2  1  0
  2  3  1  0
  2  4  1  0
  4  5  1  0
  5  6  1  0
  6  7  1  0
  7  8  1  0
  8  9  2  0
  8 10  1  0
 10 11  1  0
 11 12  1  0
 12 13  1  0
 13 14  1  0
  7 15  1  0
 15 16  1  0
 16  4  1  0
  1 17  1  0
  1 18  1  0
  1 19  1  0
  2 20  1  0
  3 21  1  0
  3 22  1  0
  3 23  1  0
  4 24  1  0
  5 25  1  0
  5 26  1  0
  6 27  1  0
  6 28  1  0
  7 29  1  0
 10 30  1  0
 11 31  1  0
 11 32  1  0
 12 33  1  0
 12 34  1  0
 13 35  1  0
 13 36  1  0
 14 37  1  0
 15 38  1  0
 15 39  1  0
 16 40  1  0
 16 41  1  0
M  CHG  1   3   1
M  END
>  <EmbedRMS>  (98) 
0.31188721664002633

$$$$

     RDKit          3D

 38 38  0  0  0  0  0  0  0  0999 V2000
   14.0281    7.0397    1.2343 C   0  0  0  0  0  0  0  0  0  0  0  0
   13.6693    8.3364    1.9396 C   0  0  0  0  0  0  0  0  0  0  0  0
   14.6134    8.7687    2.9623 N   0  0  0  0  0  4  0  0  0  0  0  0
   12.1578    8.5899    2.2120 C   0  0  0  0  0  0  0  0  0  0  0  0
   11.2405    7.3772    2.4519 C   0  0  0  0  0  0  0  0  0  0  0  0
    9.7885    7.8243    2.2114 C   0  0  0  0  0  0  0  0  0  0  0  0
    9.4114    8.9838    3.1519 C   0  0  0  0  0  0  0  0  0  0  0  0
    8.0137    9.4644    2.8764 C   0  0  0  0  0  0  0  0  0  0  0  0
    7.6236    9.6755    1.6931 O   0  0  0  0  0  0  0  0  0  0  0  0
    7.1388    9.7055    3.9791 N   0  0  0  0  0  0  0  0  0  0  0  0
    5.7610   10.1385    3.7918 C   0  0  0  0  0  0  0  0  0  0  0  0
    5.0964   10.2807    5.1228 C   0  0  0  0  0  0  0  0  0  0  0  0
    5.2137   11.4974    5.8582 N   0  0  0  0  0  0  0  0  0  0  0  0
    4.4940    9.2972    5.6288 O   0  0  0  0  0  0  0  0  0  0  0  0
   10.4061   10.1586    3.0871 C   0  0  0  0  0  0  0  0  0  0  0  0
   11.8556    9.6808    3.2542 C   0  0  0  0  0  0  0  0  0  0  0  0
   13.3771    6.8823    0.3473 H   0  0  0  0  0  0  0  0  0  0  0  0
   13.9078    6.1867    1.9346 H   0  0  0  0  0  0  0  0  0  0  0  0
   15.0832    7.0603    0.8857 H   0  0  0  0  0  0  0  0  0  0  0  0
   13.8831    9.0582    1.1114 H   0  0  0  0  0  0  0  0  0  0  0  0
   15.5896    8.5022    2.6974 H   0  0  0  0  0  0  0  0  0  0  0  0
   14.3777    8.3021    3.8677 H   0  0  0  0  0  0  0  0  0  0  0  0
   14.5961    9.8060    3.0881 H   0  0  0  0  0  0  0  0  0  0  0  0
   11.8027    9.0089    1.2373 H   0  0  0  0  0  0  0  0  0  0  0  0
   11.3695    6.9868    3.4852 H   0  0  0  0  0  0  0  0  0  0  0  0
   11.4632    6.5568    1.7395 H   0  0  0  0  0  0  0  0  0  0  0  0
    9.6589    8.1233    1.1472 H   0  0  0  0  0  0  0  0  0  0  0  0
    9.1130    6.9617    2.4019 H   0  0  0  0  0  0  0  0  0  0  0  0
    9.4464    8.5784    4.1883 H   0  0  0  0  0  0  0  0  0  0  0  0
    7.5087    9.5678    4.9482 H   0  0  0  0  0  0  0  0  0  0  0  0
    5.7440   11.1125    3.2573 H   0  0  0  0  0  0  0  0  0  0  0  0
    5.2145    9.3890    3.1791 H   0  0  0  0  0  0  0  0  0  0  0  0
    5.7459   12.3067    5.4681 H   0  0  0  0  0  0  0  0  0  0  0  0
    4.7721   11.5883    6.8000 H   0  0  0  0  0  0  0  0  0  0  0  0
   10.1715   10.8883    3.8929 H   0  0  0  0  0  0  0  0  0  0  0  0
   10.3032   10.6869    2.1126 H   0  0  0  0  0  0  0  0  0  0  0  0
   12.5086   10.5642    3.0949 H   0  0  0  0  0  0  0  0  0  0  0  0
   12.0204    9.2949    4.2840 H   0  0  0  0  0  0  0  0  0  0  0  0
  1  2  1  0
  2  3  1  0
  2  4  1  0
  4  5  1  0
  5  6  1  0
  6  7  1  0
  7  8  1  0
  8  9  2  0
  8 10  1  0
 10 11  1  0
 11 12  1  0
 12 13  1  0
 12 14  2  0
  7 15  1  0
 15 16  1  0
 16  4  1  0
  1 17  1  0
  1 18  1  0
  1 19  1  0
  2 20  1  0
  3 21  1  0
  3 22  1  0
  3 23  1  0
  4 24  1  0
  5 25  1  0
  5 26  1  0
  6 27  1  0
  6 28  1  0
  7 29  1  0
 10 30  1  0
 11 31  1  0
 11 32  1  0
 13 33  1  0
 13 34  1  0
 15 35  1  0
 15 36  1  0
 16 37  1  0
 16 38  1  0
M  CHG  1   3   1
M  END
>  <EmbedRMS>  (99) 
0.1933160619529778

$$$$

     RDKit          3D

 41 41  0  0  0  0  0  0  0  0999 V2000
    4.6460   11.6759    7.1724 C   0  0  0  0  0  0  0  0  0  0  0  0
    5.2633   11.4940    5.8659 N   0  0  0  0  0  0  0  0  0  0  0  0
    5.1493   10.2629    5.1439 C   0  0  0  0  0  0  0  0  0  0  0  0
    4.5014    9.2956    5.6277 O   0  0  0  0  0  0  0  0  0  0  0  0
    5.8086   10.1135    3.8127 C   0  0  0  0  0  0  0  0  0  0  0  0
    7.2095    9.6833    3.9371 N   0  0  0  0  0  0  0  0  0  0  0  0
    7.9808    9.5180    2.7350 C   0  0  0  0  0  0  0  0  0  0  0  0
    7.4142    9.6752    1.6244 O   0  0  0  0  0  0  0  0  0  0  0  0
    9.4440    9.1935    2.6630 C   0  0  0  0  0  0  0  0  0  0  0  0
    9.7658    7.7143    2.4337 C   0  0  0  0  0  0  0  0  0  0  0  0
   11.2644    7.3644    2.5408 C   0  0  0  0  0  0  0  0  0  0  0  0
   12.1433    8.5869    2.2329 C   0  0  0  0  0  0  0  0  0  0  0  0
   13.6544    8.3400    1.9332 C   0  0  0  0  0  0  0  0  0  0  0  0
   14.0135    7.0449    1.2245 C   0  0  0  0  0  0  0  0  0  0  0  0
   14.6174    8.7741    2.9396 N   0  0  0  0  0  4  0  0  0  0  0  0
   11.8904    9.6848    3.2864 C   0  0  0  0  0  0  0  0  0  0  0  0
   10.4058   10.0816    3.4356 C   0  0  0  0  0  0  0  0  0  0  0  0
    3.5459   11.5501    7.0899 H   0  0  0  0  0  0  0  0  0  0  0  0
    4.8632   12.6960    7.5536 H   0  0  0  0  0  0  0  0  0  0  0  0
    5.0530   10.9310    7.8883 H   0  0  0  0  0  0  0  0  0  0  0  0
    5.8124   12.2820    5.4541 H   0  0  0  0  0  0  0  0  0  0  0  0
    5.2457    9.3665    3.2110 H   0  0  0  0  0  0  0  0  0  0  0  0
    5.7655   11.0860    3.2759 H   0  0  0  0  0  0  0  0  0  0  0  0
    7.6527    9.5270    4.8705 H   0  0  0  0  0  0  0  0  0  0  0  0
    9.6833    9.5857    1.6449 H   0  0  0  0  0  0  0  0  0  0  0  0
    9.2152    7.1104    3.1876 H   0  0  0  0  0  0  0  0  0  0  0  0
    9.3851    7.3989    1.4351 H   0  0  0  0  0  0  0  0  0  0  0  0
   11.4740    6.5318    1.8378 H   0  0  0  0  0  0  0  0  0  0  0  0
   11.4952    7.0010    3.5664 H   0  0  0  0  0  0  0  0  0  0  0  0
   11.7498    8.9804    1.2663 H   0  0  0  0  0  0  0  0  0  0  0  0
   13.8441    9.0654    1.1031 H   0  0  0  0  0  0  0  0  0  0  0  0
   15.0584    7.0793    0.8474 H   0  0  0  0  0  0  0  0  0  0  0  0
   13.3402    6.8740    0.3569 H   0  0  0  0  0  0  0  0  0  0  0  0
   13.9243    6.1936    1.9314 H   0  0  0  0  0  0  0  0  0  0  0  0
   15.5927    8.5554    2.6308 H   0  0  0  0  0  0  0  0  0  0  0  0
   14.5660    9.8051    3.1020 H   0  0  0  0  0  0  0  0  0  0  0  0
   14.4336    8.2664    3.8348 H   0  0  0  0  0  0  0  0  0  0  0  0
   12.2736    9.3421    4.2727 H   0  0  0  0  0  0  0  0  0  0  0  0
   12.4550   10.5998    3.0047 H   0  0  0  0  0  0  0  0  0  0  0  0
   10.1351   10.0261    4.5122 H   0  0  0  0  0  0  0  0  0  0  0  0
   10.2667   11.1445    3.1312 H   0  0  0  0  0  0  0  0  0  0  0  0
  1  2  1  0
  2  3  1  0
  3  4  2  0
  3  5  1  0
  5  6  1  0
  6  7  1  0
  7  8  2  0
  7  9  1  0
  9 10  1  0
 10 11  1  0
 11 12  1  0
 12 13  1  0
 13 14  1  0
 13 15  1  0
 12 16  1  0
 16 17  1  0
 17  9  1  0
  1 18  1  0
  1 19  1  0
  1 20  1  0
  2 21  1  0
  5 22  1  0
  5 23  1  0
  6 24  1  0
  9 25  1  0
 10 26  1  0
 10 27  1  0
 11 28  1  0
 11 29  1  0
 12 30  1  0
 13 31  1  0
 14 32  1  0
 14 33  1  0
 14 34  1  0
 15 35  1  0
 15 36  1  0
 15 37  1  0
 16 38  1  0
 16 39  1  0
 17 40  1  0
 17 41  1  0
M  CHG  1  15   1
M  END
>  <EmbedRMS>  (100) 
0.2569057114362328

$$$$

     RDKit          3D

 41 41  0  0  0  0  0  0  0  0999 V2000
   13.9335    7.3325    1.0254 C   0  0  0  0  0  0  0  0  0  0  0  0
   13.7111    7.9147    2.4294 C   0  0  0  0  0  0  0  0  0  0  0  0
   14.6492    9.0164    2.6728 N   0  0  0  0  0  4  0  0  0  0  0  0
   12.2340    8.2985    2.7952 C   0  0  0  0  0  0  0  0  0  0  0  0
   11.1482    7.3150    2.3189 C   0  0  0  0  0  0  0  0  0  0  0  0
    9.7867    7.9361    2.0695 C   0  0  0  0  0  0  0  0  0  0  0  0
    9.4243    8.9840    3.1139 C   0  0  0  0  0  0  0  0  0  0  0  0
    8.0167    9.4657    2.8724 C   0  0  0  0  0  0  0  0  0  0  0  0
    7.6084    9.6870    1.6966 O   0  0  0  0  0  0  0  0  0  0  0  0
    7.1544    9.6951    3.9857 N   0  0  0  0  0  0  0  0  0  0  0  0
    5.7782   10.1397    3.8073 C   0  0  0  0  0  0  0  0  0  0  0  0
    5.0965   10.2714    5.1652 C   0  0  0  0  0  0  0  0  0  0  0  0
    3.6898   10.7359    4.9935 C   0  0  0  0  0  0  0  0  0  0  0  0
    3.3955   12.1302    4.9317 N   0  0  0  0  0  0  0  0  0  0  0  0
    2.7647    9.8917    4.8614 O   0  0  0  0  0  0  0  0  0  0  0  0
   10.3953   10.1682    3.0601 C   0  0  0  0  0  0  0  0  0  0  0  0
   11.8871    9.7888    2.9947 C   0  0  0  0  0  0  0  0  0  0  0  0
   15.0179    7.2757    0.7910 H   0  0  0  0  0  0  0  0  0  0  0  0
   13.5386    6.2973    0.9558 H   0  0  0  0  0  0  0  0  0  0  0  0
   13.4421    7.9747    0.2640 H   0  0  0  0  0  0  0  0  0  0  0  0
   14.0083    7.0848    3.1152 H   0  0  0  0  0  0  0  0  0  0  0  0
   14.5410    9.3810    3.6464 H   0  0  0  0  0  0  0  0  0  0  0  0
   14.5103    9.7860    1.9792 H   0  0  0  0  0  0  0  0  0  0  0  0
   15.6325    8.6698    2.5844 H   0  0  0  0  0  0  0  0  0  0  0  0
   12.2374    8.0286    3.8797 H   0  0  0  0  0  0  0  0  0  0  0  0
   11.0314    6.4817    3.0507 H   0  0  0  0  0  0  0  0  0  0  0  0
   11.4329    6.8314    1.3661 H   0  0  0  0  0  0  0  0  0  0  0  0
    9.7923    8.4053    1.0591 H   0  0  0  0  0  0  0  0  0  0  0  0
    9.0212    7.1279    2.0600 H   0  0  0  0  0  0  0  0  0  0  0  0
    9.4864    8.5117    4.1200 H   0  0  0  0  0  0  0  0  0  0  0  0
    7.5300    9.5345    4.9487 H   0  0  0  0  0  0  0  0  0  0  0  0
    5.7753   11.1234    3.2882 H   0  0  0  0  0  0  0  0  0  0  0  0
    5.2306    9.3985    3.1843 H   0  0  0  0  0  0  0  0  0  0  0  0
    5.1012    9.2877    5.6844 H   0  0  0  0  0  0  0  0  0  0  0  0
    5.6518   10.9981    5.7975 H   0  0  0  0  0  0  0  0  0  0  0  0
    2.4124   12.4554    4.7978 H   0  0  0  0  0  0  0  0  0  0  0  0
    4.1569   12.8403    5.0120 H   0  0  0  0  0  0  0  0  0  0  0  0
   10.2198   10.8141    3.9489 H   0  0  0  0  0  0  0  0  0  0  0  0
   10.1556   10.7905    2.1674 H   0  0  0  0  0  0  0  0  0  0  0  0
   12.3922   10.1915    3.9025 H   0  0  0  0  0  0  0  0  0  0  0  0
   12.3171   10.3470    2.1361 H   0  0  0  0  0  0  0  0  0  0  0  0
  1  2  1  0
  2  3  1  0
  2  4  1  0
  4  5  1  0
  5  6  1  0
  6  7  1  0
  7  8  1  0
  8  9  2  0
  8 10  1  0
 10 11  1  0
 11 12  1  0
 12 13  1  0
 13 14  1  0
 13 15  2  0
  7 16  1  0
 16 17  1  0
 17  4  1  0
  1 18  1  0
  1 19  1  0
  1 20  1  0
  2 21  1  0
  3 22  1  0
  3 23  1  0
  3 24  1  0
  4 25  1  0
  5 26  1  0
  5 27  1  0
  6 28  1  0
  6 29  1  0
  7 30  1  0
 10 31  1  0
 11 32  1  0
 11 33  1  0
 12 34  1  0
 12 35  1  0
 14 36  1  0
 14 37  1  0
 16 38  1  0
 16 39  1  0
 17 40  1  0
 17 41  1  0
M  CHG  1   3   1
M  END
>  <EmbedRMS>  (101) 
0.16893439910694713

$$$$

     RDKit          3D

 41 41  0  0  0  0  0  0  0  0999 V2000
    4.6460   11.6759    7.1724 C   0  0  0  0  0  0  0  0  0  0  0  0
    5.2633   11.4940    5.8659 N   0  0  0  0  0  0  0  0  0  0  0  0
    5.1493   10.2629    5.1439 C   0  0  0  0  0  0  0  0  0  0  0  0
    4.5014    9.2956    5.6277 O   0  0  0  0  0  0  0  0  0  0  0  0
    5.8086   10.1135    3.8127 C   0  0  0  0  0  0  0  0  0  0  0  0
    7.2095    9.6833    3.9371 N   0  0  0  0  0  0  0  0  0  0  0  0
    7.9808    9.5180    2.7350 C   0  0  0  0  0  0  0  0  0  0  0  0
    7.4142    9.6752    1.6244 O   0  0  0  0  0  0  0  0  0  0  0  0
    9.4440    9.1935    2.6630 C   0  0  0  0  0  0  0  0  0  0  0  0
    9.7658    7.7143    2.4337 C   0  0  0  0  0  0  0  0  0  0  0  0
   11.2644    7.3644    2.5408 C   0  0  0  0  0  0  0  0  0  0  0  0
   12.1433    8.5869    2.2329 C   0  0  0  0  0  0  0  0  0  0  0  0
   13.6544    8.3400    1.9332 C   0  0  0  0  0  0  0  0  0  0  0  0
   14.0135    7.0449    1.2245 C   0  0  0  0  0  0  0  0  0  0  0  0
   14.6174    8.7741    2.9396 N   0  0  0  0  0  4  0  0  0  0  0  0
   11.8904    9.6848    3.2864 C   0  0  0  0  0  0  0  0  0  0  0  0
   10.4058   10.0816    3.4356 C   0  0  0  0  0  0  0  0  0  0  0  0
    3.5459   11.5501    7.0899 H   0  0  0  0  0  0  0  0  0  0  0  0
    4.8632   12.6960    7.5536 H   0  0  0  0  0  0  0  0  0  0  0  0
    5.0530   10.9310    7.8883 H   0  0  0  0  0  0  0  0  0  0  0  0
    5.8124   12.2820    5.4541 H   0  0  0  0  0  0  0  0  0  0  0  0
    5.2457    9.3665    3.2110 H   0  0  0  0  0  0  0  0  0  0  0  0
    5.7655   11.0860    3.2759 H   0  0  0  0  0  0  0  0  0  0  0  0
    7.6527    9.5270    4.8705 H   0  0  0  0  0  0  0  0  0  0  0  0
    9.6833    9.5857    1.6449 H   0  0  0  0  0  0  0  0  0  0  0  0
    9.2152    7.1104    3.1876 H   0  0  0  0  0  0  0  0  0  0  0  0
    9.3851    7.3989    1.4351 H   0  0  0  0  0  0  0  0  0  0  0  0
   11.4740    6.5318    1.8378 H   0  0  0  0  0  0  0  0  0  0  0  0
   11.4952    7.0010    3.5664 H   0  0  0  0  0  0  0  0  0  0  0  0
   11.7498    8.9804    1.2663 H   0  0  0  0  0  0  0  0  0  0  0  0
   13.8441    9.0654    1.1031 H   0  0  0  0  0  0  0  0  0  0  0  0
   15.0584    7.0793    0.8474 H   0  0  0  0  0  0  0  0  0  0  0  0
   13.3402    6.8740    0.3569 H   0  0  0  0  0  0  0  0  0  0  0  0
   13.9243    6.1936    1.9314 H   0  0  0  0  0  0  0  0  0  0  0  0
   15.5927    8.5554    2.6308 H   0  0  0  0  0  0  0  0  0  0  0  0
   14.5660    9.8051    3.1020 H   0  0  0  0  0  0  0  0  0  0  0  0
   14.4336    8.2664    3.8348 H   0  0  0  0  0  0  0  0  0  0  0  0
   12.2736    9.3421    4.2727 H   0  0  0  0  0  0  0  0  0  0  0  0
   12.4550   10.5998    3.0047 H   0  0  0  0  0  0  0  0  0  0  0  0
   10.1351   10.0261    4.5122 H   0  0  0  0  0  0  0  0  0  0  0  0
   10.2667   11.1445    3.1312 H   0  0  0  0  0  0  0  0  0  0  0  0
  1  2  1  0
  2  3  1  0
  3  4  2  0
  3  5  1  0
  5  6  1  0
  6  7  1  0
  7  8  2  0
  7  9  1  0
  9 10  1  0
 10 11  1  0
 11 12  1  0
 12 13  1  0
 13 14  1  0
 13 15  1  0
 12 16  1  0
 16 17  1  0
 17  9  1  0
  1 18  1  0
  1 19  1  0
  1 20  1  0
  2 21  1  0
  5 22  1  0
  5 23  1  0
  6 24  1  0
  9 25  1  0
 10 26  1  0
 10 27  1  0
 11 28  1  0
 11 29  1  0
 12 30  1  0
 13 31  1  0
 14 32  1  0
 14 33  1  0
 14 34  1  0
 15 35  1  0
 15 36  1  0
 15 37  1  0
 16 38  1  0
 16 39  1  0
 17 40  1  0
 17 41  1  0
M  CHG  1  15   1
M  END
>  <EmbedRMS>  (102) 
0.2569057114362328

$$$$

     RDKit          3D

 41 41  0  0  0  0  0  0  0  0999 V2000
    4.6460   11.6759    7.1724 C   0  0  0  0  0  0  0  0  0  0  0  0
    5.2633   11.4940    5.8659 N   0  0  0  0  0  0  0  0  0  0  0  0
    5.1493   10.2629    5.1439 C   0  0  0  0  0  0  0  0  0  0  0  0
    4.5014    9.2956    5.6277 O   0  0  0  0  0  0  0  0  0  0  0  0
    5.8086   10.1135    3.8127 C   0  0  0  0  0  0  0  0  0  0  0  0
    7.2095    9.6833    3.9371 N   0  0  0  0  0  0  0  0  0  0  0  0
    7.9808    9.5180    2.7350 C   0  0  0  0  0  0  0  0  0  0  0  0
    7.4142    9.6752    1.6244 O   0  0  0  0  0  0  0  0  0  0  0  0
    9.4440    9.1935    2.6630 C   0  0  0  0  0  0  0  0  0  0  0  0
    9.7658    7.7143    2.4337 C   0  0  0  0  0  0  0  0  0  0  0  0
   11.2644    7.3644    2.5408 C   0  0  0  0  0  0  0  0  0  0  0  0
   12.1433    8.5869    2.2329 C   0  0  0  0  0  0  0  0  0  0  0  0
   13.6544    8.3400    1.9332 C   0  0  0  0  0  0  0  0  0  0  0  0
   14.0135    7.0449    1.2245 C   0  0  0  0  0  0  0  0  0  0  0  0
   14.6174    8.7741    2.9396 N   0  0  0  0  0  4  0  0  0  0  0  0
   11.8904    9.6848    3.2864 C   0  0  0  0  0  0  0  0  0  0  0  0
   10.4058   10.0816    3.4356 C   0  0  0  0  0  0  0  0  0  0  0  0
    3.5459   11.5501    7.0899 H   0  0  0  0  0  0  0  0  0  0  0  0
    4.8632   12.6960    7.5536 H   0  0  0  0  0  0  0  0  0  0  0  0
    5.0530   10.9310    7.8883 H   0  0  0  0  0  0  0  0  0  0  0  0
    5.8124   12.2820    5.4541 H   0  0  0  0  0  0  0  0  0  0  0  0
    5.2457    9.3665    3.2110 H   0  0  0  0  0  0  0  0  0  0  0  0
    5.7655   11.0860    3.2759 H   0  0  0  0  0  0  0  0  0  0  0  0
    7.6527    9.5270    4.8705 H   0  0  0  0  0  0  0  0  0  0  0  0
    9.6833    9.5857    1.6449 H   0  0  0  0  0  0  0  0  0  0  0  0
    9.2152    7.1104    3.1876 H   0  0  0  0  0  0  0  0  0  0  0  0
    9.3851    7.3989    1.4351 H   0  0  0  0  0  0  0  0  0  0  0  0
   11.4740    6.5318    1.8378 H   0  0  0  0  0  0  0  0  0  0  0  0
   11.4952    7.0010    3.5664 H   0  0  0  0  0  0  0  0  0  0  0  0
   11.7498    8.9804    1.2663 H   0  0  0  0  0  0  0  0  0  0  0  0
   13.8441    9.0654    1.1031 H   0  0  0  0  0  0  0  0  0  0  0  0
   15.0584    7.0793    0.8474 H   0  0  0  0  0  0  0  0  0  0  0  0
   13.3402    6.8740    0.3569 H   0  0  0  0  0  0  0  0  0  0  0  0
   13.9243    6.1936    1.9314 H   0  0  0  0  0  0  0  0  0  0  0  0
   15.5927    8.5554    2.6308 H   0  0  0  0  0  0  0  0  0  0  0  0
   14.5660    9.8051    3.1020 H   0  0  0  0  0  0  0  0  0  0  0  0
   14.4336    8.2664    3.8348 H   0  0  0  0  0  0  0  0  0  0  0  0
   12.2736    9.3421    4.2727 H   0  0  0  0  0  0  0  0  0  0  0  0
   12.4550   10.5998    3.0047 H   0  0  0  0  0  0  0  0  0  0  0  0
   10.1351   10.0261    4.5122 H   0  0  0  0  0  0  0  0  0  0  0  0
   10.2667   11.1445    3.1312 H   0  0  0  0  0  0  0  0  0  0  0  0
  1  2  1  0
  2  3  1  0
  3  4  2  0
  3  5  1  0
  5  6  1  0
  6  7  1  0
  7  8  2  0
  7  9  1  0
  9 10  1  0
 10 11  1  0
 11 12  1  0
 12 13  1  0
 13 14  1  0
 13 15  1  0
 12 16  1  0
 16 17  1  0
 17  9  1  0
  1 18  1  0
  1 19  1  0
  1 20  1  0
  2 21  1  0
  5 22  1  0
  5 23  1  0
  6 24  1  0
  9 25  1  0
 10 26  1  0
 10 27  1  0
 11 28  1  0
 11 29  1  0
 12 30  1  0
 13 31  1  0
 14 32  1  0
 14 33  1  0
 14 34  1  0
 15 35  1  0
 15 36  1  0
 15 37  1  0
 16 38  1  0
 16 39  1  0
 17 40  1  0
 17 41  1  0
M  CHG  1  15   1
M  END
>  <EmbedRMS>  (103) 
0.2569057114362328

$$$$

     RDKit          3D

 38 38  0  0  0  0  0  0  0  0999 V2000
   14.0485    7.2193    1.1052 C   0  0  0  0  0  0  0  0  0  0  0  0
   13.6494    7.9557    2.3993 C   0  0  0  0  0  0  0  0  0  0  0  0
   14.6287    9.0157    2.6714 N   0  0  0  0  0  4  0  0  0  0  0  0
   12.1999    8.5121    2.2739 C   0  0  0  0  0  0  0  0  0  0  0  0
   11.1802    7.3659    2.4359 C   0  0  0  0  0  0  0  0  0  0  0  0
    9.7714    7.8716    2.1578 C   0  0  0  0  0  0  0  0  0  0  0  0
    9.4086    8.9939    3.1360 C   0  0  0  0  0  0  0  0  0  0  0  0
    8.0119    9.4795    2.8745 C   0  0  0  0  0  0  0  0  0  0  0  0
    7.6187    9.6893    1.6921 O   0  0  0  0  0  0  0  0  0  0  0  0
    7.1292    9.6965    3.9807 N   0  0  0  0  0  0  0  0  0  0  0  0
    5.7624   10.1694    3.8094 C   0  0  0  0  0  0  0  0  0  0  0  0
    5.7587   11.6573    3.4724 C   0  0  0  0  0  0  0  0  0  0  0  0
    4.4421   12.1064    3.3200 O   0  0  0  0  0  0  0  0  0  0  0  0
   10.4229   10.1485    3.0671 C   0  0  0  0  0  0  0  0  0  0  0  0
   11.8582    9.6379    3.2816 C   0  0  0  0  0  0  0  0  0  0  0  0
   15.0958    6.8574    1.1814 H   0  0  0  0  0  0  0  0  0  0  0  0
   13.9784    7.8974    0.2278 H   0  0  0  0  0  0  0  0  0  0  0  0
   13.4173    6.3269    0.9275 H   0  0  0  0  0  0  0  0  0  0  0  0
   13.6910    7.2251    3.2394 H   0  0  0  0  0  0  0  0  0  0  0  0
   14.4960    9.3935    3.6370 H   0  0  0  0  0  0  0  0  0  0  0  0
   15.6002    8.6298    2.6308 H   0  0  0  0  0  0  0  0  0  0  0  0
   14.5433    9.7863    1.9687 H   0  0  0  0  0  0  0  0  0  0  0  0
   12.0876    8.9473    1.2540 H   0  0  0  0  0  0  0  0  0  0  0  0
   11.2347    6.9393    3.4625 H   0  0  0  0  0  0  0  0  0  0  0  0
   11.3816    6.5452    1.7192 H   0  0  0  0  0  0  0  0  0  0  0  0
    9.0563    7.0278    2.2771 H   0  0  0  0  0  0  0  0  0  0  0  0
    9.7089    8.2307    1.1059 H   0  0  0  0  0  0  0  0  0  0  0  0
    9.4455    8.5679    4.1642 H   0  0  0  0  0  0  0  0  0  0  0  0
    7.4525    9.4673    4.9477 H   0  0  0  0  0  0  0  0  0  0  0  0
    5.2572    9.5890    3.0069 H   0  0  0  0  0  0  0  0  0  0  0  0
    5.2000   10.0100    4.7552 H   0  0  0  0  0  0  0  0  0  0  0  0
    6.2767   12.2336    4.2730 H   0  0  0  0  0  0  0  0  0  0  0  0
    6.3008   11.8316    2.5198 H   0  0  0  0  0  0  0  0  0  0  0  0
    4.0707   12.2170    4.2342 H   0  0  0  0  0  0  0  0  0  0  0  0
   10.3565   10.6518    2.0766 H   0  0  0  0  0  0  0  0  0  0  0  0
   10.1846   10.9008    3.8506 H   0  0  0  0  0  0  0  0  0  0  0  0
   12.5372   10.5052    3.1416 H   0  0  0  0  0  0  0  0  0  0  0  0
   11.9739    9.2660    4.3236 H   0  0  0  0  0  0  0  0  0  0  0  0
  1  2  1  0
  2  3  1  0
  2  4  1  0
  4  5  1  0
  5  6  1  0
  6  7  1  0
  7  8  1  0
  8  9  2  0
  8 10  1  0
 10 11  1  0
 11 12  1  0
 12 13  1  0
  7 14  1  0
 14 15  1  0
 15  4  1  0
  1 16  1  0
  1 17  1  0
  1 18  1  0
  2 19  1  0
  3 20  1  0
  3 21  1  0
  3 22  1  0
  4 23  1  0
  5 24  1  0
  5 25  1  0
  6 26  1  0
  6 27  1  0
  7 28  1  0
 10 29  1  0
 11 30  1  0
 11 31  1  0
 12 32  1  0
 12 33  1  0
 13 34  1  0
 14 35  1  0
 14 36  1  0
 15 37  1  0
 15 38  1  0
M  CHG  1   3   1
M  END
>  <EmbedRMS>  (104) 
0.031392693704421666

$$$$

     RDKit          3D

 44 44  0  0  0  0  0  0  0  0999 V2000
    4.4368    8.5830    1.3291 C   0  0  0  0  0  0  0  0  0  0  0  0
    5.0041    7.9435    2.5953 C   0  0  0  0  0  0  0  0  0  0  0  0
    4.8218    8.8406    3.8314 C   0  0  0  0  0  0  0  0  0  0  0  0
    5.0607    8.0778    4.9850 O   0  0  0  0  0  0  0  0  0  0  0  0
    5.7382   10.0786    3.8221 C   0  0  0  0  0  0  0  0  0  0  0  0
    7.1400    9.7018    3.9851 N   0  0  0  0  0  0  0  0  0  0  0  0
    8.0161    9.4758    2.8762 C   0  0  0  0  0  0  0  0  0  0  0  0
    7.6206    9.7018    1.6971 O   0  0  0  0  0  0  0  0  0  0  0  0
    9.4217    8.9882    3.1213 C   0  0  0  0  0  0  0  0  0  0  0  0
    9.7820    7.9373    2.0770 C   0  0  0  0  0  0  0  0  0  0  0  0
   11.1456    7.3166    2.3199 C   0  0  0  0  0  0  0  0  0  0  0  0
   12.2326    8.2988    2.7958 C   0  0  0  0  0  0  0  0  0  0  0  0
   13.7098    7.9145    2.4297 C   0  0  0  0  0  0  0  0  0  0  0  0
   13.9319    7.3321    1.0257 C   0  0  0  0  0  0  0  0  0  0  0  0
   14.6485    9.0158    2.6728 N   0  0  0  0  0  4  0  0  0  0  0  0
   11.8869    9.7891    2.9963 C   0  0  0  0  0  0  0  0  0  0  0  0
   10.3956   10.1699    3.0626 C   0  0  0  0  0  0  0  0  0  0  0  0
    4.5001    7.8562    0.4920 H   0  0  0  0  0  0  0  0  0  0  0  0
    3.3701    8.8569    1.4735 H   0  0  0  0  0  0  0  0  0  0  0  0
    5.0123    9.4852    1.0408 H   0  0  0  0  0  0  0  0  0  0  0  0
    4.4494    6.9951    2.7672 H   0  0  0  0  0  0  0  0  0  0  0  0
    6.0677    7.6678    2.4459 H   0  0  0  0  0  0  0  0  0  0  0  0
    3.7631    9.1923    3.8475 H   0  0  0  0  0  0  0  0  0  0  0  0
    4.6708    8.5786    5.7490 H   0  0  0  0  0  0  0  0  0  0  0  0
    5.4504   10.7346    4.6721 H   0  0  0  0  0  0  0  0  0  0  0  0
    5.5946   10.6857    2.9045 H   0  0  0  0  0  0  0  0  0  0  0  0
    7.4935    9.5336    4.9541 H   0  0  0  0  0  0  0  0  0  0  0  0
    9.4806    8.5189    4.1289 H   0  0  0  0  0  0  0  0  0  0  0  0
    9.7829    8.4041    1.0656 H   0  0  0  0  0  0  0  0  0  0  0  0
    9.0162    7.1292    2.0723 H   0  0  0  0  0  0  0  0  0  0  0  0
   11.4280    6.8368    1.3644 H   0  0  0  0  0  0  0  0  0  0  0  0
   11.0321    6.4807    3.0491 H   0  0  0  0  0  0  0  0  0  0  0  0
   12.2360    8.0283    3.8802 H   0  0  0  0  0  0  0  0  0  0  0  0
   14.0067    7.0845    3.1155 H   0  0  0  0  0  0  0  0  0  0  0  0
   13.4426    7.9757    0.2642 H   0  0  0  0  0  0  0  0  0  0  0  0
   15.0163    7.2726    0.7923 H   0  0  0  0  0  0  0  0  0  0  0  0
   13.5342    6.2980    0.9557 H   0  0  0  0  0  0  0  0  0  0  0  0
   14.5097    9.7856    1.9793 H   0  0  0  0  0  0  0  0  0  0  0  0
   14.5408    9.3804    3.6465 H   0  0  0  0  0  0  0  0  0  0  0  0
   15.6316    8.6688    2.5840 H   0  0  0  0  0  0  0  0  0  0  0  0
   12.3173   10.3475    2.1381 H   0  0  0  0  0  0  0  0  0  0  0  0
   12.3926   10.1907    3.9043 H   0  0  0  0  0  0  0  0  0  0  0  0
   10.1563   10.7904    2.1685 H   0  0  0  0  0  0  0  0  0  0  0  0
   10.2223   10.8190    3.9496 H   0  0  0  0  0  0  0  0  0  0  0  0
  1  2  1  0
  2  3  1  0
  3  4  1  0
  3  5  1  0
  5  6  1  0
  6  7  1  0
  7  8  2  0
  7  9  1  0
  9 10  1  0
 10 11  1  0
 11 12  1  0
 12 13  1  0
 13 14  1  0
 13 15  1  0
 12 16  1  0
 16 17  1  0
 17  9  1  0
  1 18  1  0
  1 19  1  0
  1 20  1  0
  2 21  1  0
  2 22  1  0
  3 23  1  0
  4 24  1  0
  5 25  1  0
  5 26  1  0
  6 27  1  0
  9 28  1  0
 10 29  1  0
 10 30  1  0
 11 31  1  0
 11 32  1  0
 12 33  1  0
 13 34  1  0
 14 35  1  0
 14 36  1  0
 14 37  1  0
 15 38  1  0
 15 39  1  0
 15 40  1  0
 16 41  1  0
 16 42  1  0
 17 43  1  0
 17 44  1  0
M  CHG  1  15   1
M  END
>  <EmbedRMS>  (105) 
0.1692382603345377

$$$$

     RDKit          3D

 44 44  0  0  0  0  0  0  0  0999 V2000
   13.9344    7.3325    1.0251 C   0  0  0  0  0  0  0  0  0  0  0  0
   13.7124    7.9143    2.4293 C   0  0  0  0  0  0  0  0  0  0  0  0
   14.6504    9.0161    2.6726 N   0  0  0  0  0  4  0  0  0  0  0  0
   12.2357    8.2978    2.7953 C   0  0  0  0  0  0  0  0  0  0  0  0
   11.1506    7.3136    2.3192 C   0  0  0  0  0  0  0  0  0  0  0  0
    9.7889    7.9336    2.0719 C   0  0  0  0  0  0  0  0  0  0  0  0
    9.4291    8.9809    3.1175 C   0  0  0  0  0  0  0  0  0  0  0  0
    8.0244    9.4610    2.8767 C   0  0  0  0  0  0  0  0  0  0  0  0
    7.6190    9.6840    1.6996 O   0  0  0  0  0  0  0  0  0  0  0  0
    7.1616    9.6889    3.9915 N   0  0  0  0  0  0  0  0  0  0  0  0
    5.7855   10.1247    3.8210 C   0  0  0  0  0  0  0  0  0  0  0  0
    4.7423    8.9630    3.8122 C   0  0  0  0  0  0  0  0  0  0  0  0
    4.1166    8.8214    5.1831 C   0  0  0  0  0  0  0  0  0  0  0  0
    4.2843    8.6567    2.4010 C   0  0  0  0  0  0  0  0  0  0  0  0
    5.0987    7.7653    3.9177 O   0  0  0  0  0  0  0  0  0  0  0  0
   10.3977   10.1666    3.0612 C   0  0  0  0  0  0  0  0  0  0  0  0
   11.8890    9.7883    2.9936 C   0  0  0  0  0  0  0  0  0  0  0  0
   13.5401    6.2970    0.9555 H   0  0  0  0  0  0  0  0  0  0  0  0
   15.0186    7.2763    0.7900 H   0  0  0  0  0  0  0  0  0  0  0  0
   13.4422    7.9745    0.2641 H   0  0  0  0  0  0  0  0  0  0  0  0
   14.0100    7.0843    3.1149 H   0  0  0  0  0  0  0  0  0  0  0  0
   14.5109    9.7861    1.9796 H   0  0  0  0  0  0  0  0  0  0  0  0
   15.6337    8.6698    2.5833 H   0  0  0  0  0  0  0  0  0  0  0  0
   14.5428    9.3801    3.6466 H   0  0  0  0  0  0  0  0  0  0  0  0
   12.2392    8.0286    3.8800 H   0  0  0  0  0  0  0  0  0  0  0  0
   11.0353    6.4797    3.0507 H   0  0  0  0  0  0  0  0  0  0  0  0
   11.4346    6.8309    1.3657 H   0  0  0  0  0  0  0  0  0  0  0  0
    9.7931    8.4028    1.0615 H   0  0  0  0  0  0  0  0  0  0  0  0
    9.0236    7.1252    2.0640 H   0  0  0  0  0  0  0  0  0  0  0  0
    9.4921    8.5093    4.1239 H   0  0  0  0  0  0  0  0  0  0  0  0
    7.5013    9.4861    4.9588 H   0  0  0  0  0  0  0  0  0  0  0  0
    5.5537   10.8434    4.6375 H   0  0  0  0  0  0  0  0  0  0  0  0
    5.6953   10.7432    2.9009 H   0  0  0  0  0  0  0  0  0  0  0  0
    4.8622    8.6933    6.0088 H   0  0  0  0  0  0  0  0  0  0  0  0
    3.3169    8.0378    5.2516 H   0  0  0  0  0  0  0  0  0  0  0  0
    3.5776    9.7669    5.4063 H   0  0  0  0  0  0  0  0  0  0  0  0
    3.4915    7.8674    2.3375 H   0  0  0  0  0  0  0  0  0  0  0  0
    5.1205    8.4243    1.6954 H   0  0  0  0  0  0  0  0  0  0  0  0
    3.7922    9.5686    2.0007 H   0  0  0  0  0  0  0  0  0  0  0  0
    6.0784    7.6314    3.8034 H   0  0  0  0  0  0  0  0  0  0  0  0
   10.1562   10.7885    2.1686 H   0  0  0  0  0  0  0  0  0  0  0  0
   10.2230   10.8125    3.9502 H   0  0  0  0  0  0  0  0  0  0  0  0
   12.3172   10.3454    2.1334 H   0  0  0  0  0  0  0  0  0  0  0  0
   12.3955   10.1922    3.9001 H   0  0  0  0  0  0  0  0  0  0  0  0
  1  2  1  0
  2  3  1  0
  2  4  1  0
  4  5  1  0
  5  6  1  0
  6  7  1  0
  7  8  1  0
  8  9  2  0
  8 10  1  0
 10 11  1  0
 11 12  1  0
 12 13  1  0
 12 14  1  0
 12 15  1  0
  7 16  1  0
 16 17  1  0
 17  4  1  0
  1 18  1  0
  1 19  1  0
  1 20  1  0
  2 21  1  0
  3 22  1  0
  3 23  1  0
  3 24  1  0
  4 25  1  0
  5 26  1  0
  5 27  1  0
  6 28  1  0
  6 29  1  0
  7 30  1  0
 10 31  1  0
 11 32  1  0
 11 33  1  0
 13 34  1  0
 13 35  1  0
 13 36  1  0
 14 37  1  0
 14 38  1  0
 14 39  1  0
 15 40  1  0
 16 41  1  0
 16 42  1  0
 17 43  1  0
 17 44  1  0
M  CHG  1   3   1
M  END
>  <EmbedRMS>  (106) 
0.6861464654853324

$$$$

     RDKit          3D

 38 38  0  0  0  0  0  0  0  0999 V2000
   14.0281    7.0397    1.2343 C   0  0  0  0  0  0  0  0  0  0  0  0
   13.6693    8.3364    1.9396 C   0  0  0  0  0  0  0  0  0  0  0  0
   14.6134    8.7687    2.9623 N   0  0  0  0  0  4  0  0  0  0  0  0
   12.1578    8.5899    2.2120 C   0  0  0  0  0  0  0  0  0  0  0  0
   11.2405    7.3772    2.4519 C   0  0  0  0  0  0  0  0  0  0  0  0
    9.7885    7.8243    2.2114 C   0  0  0  0  0  0  0  0  0  0  0  0
    9.4114    8.9838    3.1519 C   0  0  0  0  0  0  0  0  0  0  0  0
    8.0137    9.4644    2.8764 C   0  0  0  0  0  0  0  0  0  0  0  0
    7.6236    9.6755    1.6931 O   0  0  0  0  0  0  0  0  0  0  0  0
    7.1388    9.7055    3.9791 N   0  0  0  0  0  0  0  0  0  0  0  0
    5.7610   10.1385    3.7918 C   0  0  0  0  0  0  0  0  0  0  0  0
    5.0964   10.2807    5.1228 C   0  0  0  0  0  0  0  0  0  0  0  0
    5.2137   11.4974    5.8582 N   0  0  0  0  0  0  0  0  0  0  0  0
    4.4940    9.2972    5.6288 O   0  0  0  0  0  0  0  0  0  0  0  0
   10.4061   10.1586    3.0871 C   0  0  0  0  0  0  0  0  0  0  0  0
   11.8556    9.6808    3.2542 C   0  0  0  0  0  0  0  0  0  0  0  0
   13.3771    6.8823    0.3473 H   0  0  0  0  0  0  0  0  0  0  0  0
   13.9078    6.1867    1.9346 H   0  0  0  0  0  0  0  0  0  0  0  0
   15.0832    7.0603    0.8857 H   0  0  0  0  0  0  0  0  0  0  0  0
   13.8831    9.0582    1.1114 H   0  0  0  0  0  0  0  0  0  0  0  0
   15.5896    8.5022    2.6974 H   0  0  0  0  0  0  0  0  0  0  0  0
   14.3777    8.3021    3.8677 H   0  0  0  0  0  0  0  0  0  0  0  0
   14.5961    9.8060    3.0881 H   0  0  0  0  0  0  0  0  0  0  0  0
   11.8027    9.0089    1.2373 H   0  0  0  0  0  0  0  0  0  0  0  0
   11.3695    6.9868    3.4852 H   0  0  0  0  0  0  0  0  0  0  0  0
   11.4632    6.5568    1.7395 H   0  0  0  0  0  0  0  0  0  0  0  0
    9.6589    8.1233    1.1472 H   0  0  0  0  0  0  0  0  0  0  0  0
    9.1130    6.9617    2.4019 H   0  0  0  0  0  0  0  0  0  0  0  0
    9.4464    8.5784    4.1883 H   0  0  0  0  0  0  0  0  0  0  0  0
    7.5087    9.5678    4.9482 H   0  0  0  0  0  0  0  0  0  0  0  0
    5.7440   11.1125    3.2573 H   0  0  0  0  0  0  0  0  0  0  0  0
    5.2145    9.3890    3.1791 H   0  0  0  0  0  0  0  0  0  0  0  0
    5.7459   12.3067    5.4681 H   0  0  0  0  0  0  0  0  0  0  0  0
    4.7721   11.5883    6.8000 H   0  0  0  0  0  0  0  0  0  0  0  0
   10.1715   10.8883    3.8929 H   0  0  0  0  0  0  0  0  0  0  0  0
   10.3032   10.6869    2.1126 H   0  0  0  0  0  0  0  0  0  0  0  0
   12.5086   10.5642    3.0949 H   0  0  0  0  0  0  0  0  0  0  0  0
   12.0204    9.2949    4.2840 H   0  0  0  0  0  0  0  0  0  0  0  0
  1  2  1  0
  2  3  1  0
  2  4  1  0
  4  5  1  0
  5  6  1  0
  6  7  1  0
  7  8  1  0
  8  9  2  0
  8 10  1  0
 10 11  1  0
 11 12  1  0
 12 13  1  0
 12 14  2  0
  7 15  1  0
 15 16  1  0
 16  4  1  0
  1 17  1  0
  1 18  1  0
  1 19  1  0
  2 20  1  0
  3 21  1  0
  3 22  1  0
  3 23  1  0
  4 24  1  0
  5 25  1  0
  5 26  1  0
  6 27  1  0
  6 28  1  0
  7 29  1  0
 10 30  1  0
 11 31  1  0
 11 32  1  0
 13 33  1  0
 13 34  1  0
 15 35  1  0
 15 36  1  0
 16 37  1  0
 16 38  1  0
M  CHG  1   3   1
M  END
>  <EmbedRMS>  (107) 
0.1933160619529778

$$$$

     RDKit          3D

 41 41  0  0  0  0  0  0  0  0999 V2000
   13.9330    7.3325    1.0255 C   0  0  0  0  0  0  0  0  0  0  0  0
   13.7100    7.9149    2.4294 C   0  0  0  0  0  0  0  0  0  0  0  0
   14.6481    9.0165    2.6731 N   0  0  0  0  0  4  0  0  0  0  0  0
   12.2326    8.2986    2.7947 C   0  0  0  0  0  0  0  0  0  0  0  0
   11.1465    7.3154    2.3182 C   0  0  0  0  0  0  0  0  0  0  0  0
    9.7857    7.9375    2.0647 C   0  0  0  0  0  0  0  0  0  0  0  0
    9.4210    8.9849    3.1082 C   0  0  0  0  0  0  0  0  0  0  0  0
    8.0105    9.4677    2.8685 C   0  0  0  0  0  0  0  0  0  0  0  0
    7.6043    9.6874    1.6924 O   0  0  0  0  0  0  0  0  0  0  0  0
    7.1562    9.6993    3.9924 N   0  0  0  0  0  0  0  0  0  0  0  0
    5.7878   10.1343    3.9080 C   0  0  0  0  0  0  0  0  0  0  0  0
    5.2658   10.3672    2.7819 O   0  0  0  0  0  0  0  0  0  0  0  0
    5.0050   10.3092    5.1076 N   0  0  0  0  0  0  0  0  0  0  0  0
    3.6158   10.7605    5.0048 C   0  0  0  0  0  0  0  0  0  0  0  0
    5.5864   10.0387    6.4259 C   0  0  0  0  0  0  0  0  0  0  0  0
   10.3933   10.1685    3.0584 C   0  0  0  0  0  0  0  0  0  0  0  0
   11.8853    9.7890    2.9943 C   0  0  0  0  0  0  0  0  0  0  0  0
   15.0174    7.2760    0.7914 H   0  0  0  0  0  0  0  0  0  0  0  0
   13.4415    7.9744    0.2640 H   0  0  0  0  0  0  0  0  0  0  0  0
   13.5385    6.2972    0.9560 H   0  0  0  0  0  0  0  0  0  0  0  0
   14.0070    7.0850    3.1154 H   0  0  0  0  0  0  0  0  0  0  0  0
   14.5394    9.3813    3.6466 H   0  0  0  0  0  0  0  0  0  0  0  0
   15.6314    8.6699    2.5851 H   0  0  0  0  0  0  0  0  0  0  0  0
   14.5095    9.7861    1.9793 H   0  0  0  0  0  0  0  0  0  0  0  0
   12.2357    8.0287    3.8792 H   0  0  0  0  0  0  0  0  0  0  0  0
   11.0272    6.4836    3.0513 H   0  0  0  0  0  0  0  0  0  0  0  0
   11.4326    6.8295    1.3669 H   0  0  0  0  0  0  0  0  0  0  0  0
    9.7942    8.4072    1.0547 H   0  0  0  0  0  0  0  0  0  0  0  0
    9.0198    7.1298    2.0529 H   0  0  0  0  0  0  0  0  0  0  0  0
    9.4852    8.5096    4.1128 H   0  0  0  0  0  0  0  0  0  0  0  0
    7.5806    9.5394    4.9308 H   0  0  0  0  0  0  0  0  0  0  0  0
    3.0302   10.0331    4.4039 H   0  0  0  0  0  0  0  0  0  0  0  0
    3.1332   10.8543    6.0002 H   0  0  0  0  0  0  0  0  0  0  0  0
    3.5813   11.7538    4.5094 H   0  0  0  0  0  0  0  0  0  0  0  0
    5.9132    8.9789    6.4845 H   0  0  0  0  0  0  0  0  0  0  0  0
    4.8539   10.2085    7.2425 H   0  0  0  0  0  0  0  0  0  0  0  0
    6.4495   10.7143    6.6041 H   0  0  0  0  0  0  0  0  0  0  0  0
   10.1546   10.7928    2.1669 H   0  0  0  0  0  0  0  0  0  0  0  0
   10.2167   10.8125    3.9484 H   0  0  0  0  0  0  0  0  0  0  0  0
   12.3898   10.1917    3.9024 H   0  0  0  0  0  0  0  0  0  0  0  0
   12.3160   10.3471    2.1359 H   0  0  0  0  0  0  0  0  0  0  0  0
  1  2  1  0
  2  3  1  0
  2  4  1  0
  4  5  1  0
  5  6  1  0
  6  7  1  0
  7  8  1  0
  8  9  2  0
  8 10  1  0
 10 11  1  0
 11 12  2  0
 11 13  1  0
 13 14  1  0
 13 15  1  0
  7 16  1  0
 16 17  1  0
 17  4  1  0
  1 18  1  0
  1 19  1  0
  1 20  1  0
  2 21  1  0
  3 22  1  0
  3 23  1  0
  3 24  1  0
  4 25  1  0
  5 26  1  0
  5 27  1  0
  6 28  1  0
  6 29  1  0
  7 30  1  0
 10 31  1  0
 14 32  1  0
 14 33  1  0
 14 34  1  0
 15 35  1  0
 15 36  1  0
 15 37  1  0
 16 38  1  0
 16 39  1  0
 17 40  1  0
 17 41  1  0
M  CHG  1   3   1
M  END
>  <EmbedRMS>  (108) 
0.16951277661790554

$$$$

     RDKit          3D

 44 44  0  0  0  0  0  0  0  0999 V2000
   13.9344    7.3325    1.0251 C   0  0  0  0  0  0  0  0  0  0  0  0
   13.7124    7.9143    2.4293 C   0  0  0  0  0  0  0  0  0  0  0  0
   14.6504    9.0161    2.6726 N   0  0  0  0  0  4  0  0  0  0  0  0
   12.2357    8.2978    2.7953 C   0  0  0  0  0  0  0  0  0  0  0  0
   11.1506    7.3136    2.3192 C   0  0  0  0  0  0  0  0  0  0  0  0
    9.7889    7.9336    2.0719 C   0  0  0  0  0  0  0  0  0  0  0  0
    9.4291    8.9809    3.1175 C   0  0  0  0  0  0  0  0  0  0  0  0
    8.0244    9.4610    2.8767 C   0  0  0  0  0  0  0  0  0  0  0  0
    7.6190    9.6840    1.6996 O   0  0  0  0  0  0  0  0  0  0  0  0
    7.1616    9.6889    3.9915 N   0  0  0  0  0  0  0  0  0  0  0  0
    5.7855   10.1247    3.8210 C   0  0  0  0  0  0  0  0  0  0  0  0
    4.7423    8.9630    3.8122 C   0  0  0  0  0  0  0  0  0  0  0  0
    4.1166    8.8214    5.1831 C   0  0  0  0  0  0  0  0  0  0  0  0
    4.2843    8.6567    2.4010 C   0  0  0  0  0  0  0  0  0  0  0  0
    5.0987    7.7653    3.9177 O   0  0  0  0  0  0  0  0  0  0  0  0
   10.3977   10.1666    3.0612 C   0  0  0  0  0  0  0  0  0  0  0  0
   11.8890    9.7883    2.9936 C   0  0  0  0  0  0  0  0  0  0  0  0
   13.5401    6.2970    0.9555 H   0  0  0  0  0  0  0  0  0  0  0  0
   15.0186    7.2763    0.7900 H   0  0  0  0  0  0  0  0  0  0  0  0
   13.4422    7.9745    0.2641 H   0  0  0  0  0  0  0  0  0  0  0  0
   14.0100    7.0843    3.1149 H   0  0  0  0  0  0  0  0  0  0  0  0
   14.5109    9.7861    1.9796 H   0  0  0  0  0  0  0  0  0  0  0  0
   15.6337    8.6698    2.5833 H   0  0  0  0  0  0  0  0  0  0  0  0
   14.5428    9.3801    3.6466 H   0  0  0  0  0  0  0  0  0  0  0  0
   12.2392    8.0286    3.8800 H   0  0  0  0  0  0  0  0  0  0  0  0
   11.0353    6.4797    3.0507 H   0  0  0  0  0  0  0  0  0  0  0  0
   11.4346    6.8309    1.3657 H   0  0  0  0  0  0  0  0  0  0  0  0
    9.7931    8.4028    1.0615 H   0  0  0  0  0  0  0  0  0  0  0  0
    9.0236    7.1252    2.0640 H   0  0  0  0  0  0  0  0  0  0  0  0
    9.4921    8.5093    4.1239 H   0  0  0  0  0  0  0  0  0  0  0  0
    7.5013    9.4861    4.9588 H   0  0  0  0  0  0  0  0  0  0  0  0
    5.5537   10.8434    4.6375 H   0  0  0  0  0  0  0  0  0  0  0  0
    5.6953   10.7432    2.9009 H   0  0  0  0  0  0  0  0  0  0  0  0
    4.8622    8.6933    6.0088 H   0  0  0  0  0  0  0  0  0  0  0  0
    3.3169    8.0378    5.2516 H   0  0  0  0  0  0  0  0  0  0  0  0
    3.5776    9.7669    5.4063 H   0  0  0  0  0  0  0  0  0  0  0  0
    3.4915    7.8674    2.3375 H   0  0  0  0  0  0  0  0  0  0  0  0
    5.1205    8.4243    1.6954 H   0  0  0  0  0  0  0  0  0  0  0  0
    3.7922    9.5686    2.0007 H   0  0  0  0  0  0  0  0  0  0  0  0
    6.0784    7.6314    3.8034 H   0  0  0  0  0  0  0  0  0  0  0  0
   10.1562   10.7885    2.1686 H   0  0  0  0  0  0  0  0  0  0  0  0
   10.2230   10.8125    3.9502 H   0  0  0  0  0  0  0  0  0  0  0  0
   12.3172   10.3454    2.1334 H   0  0  0  0  0  0  0  0  0  0  0  0
   12.3955   10.1922    3.9001 H   0  0  0  0  0  0  0  0  0  0  0  0
  1  2  1  0
  2  3  1  0
  2  4  1  0
  4  5  1  0
  5  6  1  0
  6  7  1  0
  7  8  1  0
  8  9  2  0
  8 10  1  0
 10 11  1  0
 11 12  1  0
 12 13  1  0
 12 14  1  0
 12 15  1  0
  7 16  1  0
 16 17  1  0
 17  4  1  0
  1 18  1  0
  1 19  1  0
  1 20  1  0
  2 21  1  0
  3 22  1  0
  3 23  1  0
  3 24  1  0
  4 25  1  0
  5 26  1  0
  5 27  1  0
  6 28  1  0
  6 29  1  0
  7 30  1  0
 10 31  1  0
 11 32  1  0
 11 33  1  0
 13 34  1  0
 13 35  1  0
 13 36  1  0
 14 37  1  0
 14 38  1  0
 14 39  1  0
 15 40  1  0
 16 41  1  0
 16 42  1  0
 17 43  1  0
 17 44  1  0
M  CHG  1   3   1
M  END
>  <EmbedRMS>  (109) 
0.6861464654853324

$$$$

     RDKit          3D

 38 38  0  0  0  0  0  0  0  0999 V2000
   14.0281    7.0397    1.2343 C   0  0  0  0  0  0  0  0  0  0  0  0
   13.6693    8.3364    1.9396 C   0  0  0  0  0  0  0  0  0  0  0  0
   14.6134    8.7687    2.9623 N   0  0  0  0  0  4  0  0  0  0  0  0
   12.1578    8.5899    2.2120 C   0  0  0  0  0  0  0  0  0  0  0  0
   11.2405    7.3772    2.4519 C   0  0  0  0  0  0  0  0  0  0  0  0
    9.7885    7.8243    2.2114 C   0  0  0  0  0  0  0  0  0  0  0  0
    9.4114    8.9838    3.1519 C   0  0  0  0  0  0  0  0  0  0  0  0
    8.0137    9.4644    2.8764 C   0  0  0  0  0  0  0  0  0  0  0  0
    7.6236    9.6755    1.6931 O   0  0  0  0  0  0  0  0  0  0  0  0
    7.1388    9.7055    3.9791 N   0  0  0  0  0  0  0  0  0  0  0  0
    5.7610   10.1385    3.7918 C   0  0  0  0  0  0  0  0  0  0  0  0
    5.0964   10.2807    5.1228 C   0  0  0  0  0  0  0  0  0  0  0  0
    5.2137   11.4974    5.8582 N   0  0  0  0  0  0  0  0  0  0  0  0
    4.4940    9.2972    5.6288 O   0  0  0  0  0  0  0  0  0  0  0  0
   10.4061   10.1586    3.0871 C   0  0  0  0  0  0  0  0  0  0  0  0
   11.8556    9.6808    3.2542 C   0  0  0  0  0  0  0  0  0  0  0  0
   13.3771    6.8823    0.3473 H   0  0  0  0  0  0  0  0  0  0  0  0
   13.9078    6.1867    1.9346 H   0  0  0  0  0  0  0  0  0  0  0  0
   15.0832    7.0603    0.8857 H   0  0  0  0  0  0  0  0  0  0  0  0
   13.8831    9.0582    1.1114 H   0  0  0  0  0  0  0  0  0  0  0  0
   15.5896    8.5022    2.6974 H   0  0  0  0  0  0  0  0  0  0  0  0
   14.3777    8.3021    3.8677 H   0  0  0  0  0  0  0  0  0  0  0  0
   14.5961    9.8060    3.0881 H   0  0  0  0  0  0  0  0  0  0  0  0
   11.8027    9.0089    1.2373 H   0  0  0  0  0  0  0  0  0  0  0  0
   11.3695    6.9868    3.4852 H   0  0  0  0  0  0  0  0  0  0  0  0
   11.4632    6.5568    1.7395 H   0  0  0  0  0  0  0  0  0  0  0  0
    9.6589    8.1233    1.1472 H   0  0  0  0  0  0  0  0  0  0  0  0
    9.1130    6.9617    2.4019 H   0  0  0  0  0  0  0  0  0  0  0  0
    9.4464    8.5784    4.1883 H   0  0  0  0  0  0  0  0  0  0  0  0
    7.5087    9.5678    4.9482 H   0  0  0  0  0  0  0  0  0  0  0  0
    5.7440   11.1125    3.2573 H   0  0  0  0  0  0  0  0  0  0  0  0
    5.2145    9.3890    3.1791 H   0  0  0  0  0  0  0  0  0  0  0  0
    5.7459   12.3067    5.4681 H   0  0  0  0  0  0  0  0  0  0  0  0
    4.7721   11.5883    6.8000 H   0  0  0  0  0  0  0  0  0  0  0  0
   10.1715   10.8883    3.8929 H   0  0  0  0  0  0  0  0  0  0  0  0
   10.3032   10.6869    2.1126 H   0  0  0  0  0  0  0  0  0  0  0  0
   12.5086   10.5642    3.0949 H   0  0  0  0  0  0  0  0  0  0  0  0
   12.0204    9.2949    4.2840 H   0  0  0  0  0  0  0  0  0  0  0  0
  1  2  1  0
  2  3  1  0
  2  4  1  0
  4  5  1  0
  5  6  1  0
  6  7  1  0
  7  8  1  0
  8  9  2  0
  8 10  1  0
 10 11  1  0
 11 12  1  0
 12 13  1  0
 12 14  2  0
  7 15  1  0
 15 16  1  0
 16  4  1  0
  1 17  1  0
  1 18  1  0
  1 19  1  0
  2 20  1  0
  3 21  1  0
  3 22  1  0
  3 23  1  0
  4 24  1  0
  5 25  1  0
  5 26  1  0
  6 27  1  0
  6 28  1  0
  7 29  1  0
 10 30  1  0
 11 31  1  0
 11 32  1  0
 13 33  1  0
 13 34  1  0
 15 35  1  0
 15 36  1  0
 16 37  1  0
 16 38  1  0
M  CHG  1   3   1
M  END
>  <EmbedRMS>  (110) 
0.1933160619529778

$$$$

     RDKit          3D

 38 38  0  0  0  0  0  0  0  0999 V2000
   14.0485    7.2193    1.1052 C   0  0  0  0  0  0  0  0  0  0  0  0
   13.6494    7.9557    2.3993 C   0  0  0  0  0  0  0  0  0  0  0  0
   14.6287    9.0157    2.6714 N   0  0  0  0  0  4  0  0  0  0  0  0
   12.1999    8.5121    2.2739 C   0  0  0  0  0  0  0  0  0  0  0  0
   11.1802    7.3659    2.4359 C   0  0  0  0  0  0  0  0  0  0  0  0
    9.7714    7.8716    2.1578 C   0  0  0  0  0  0  0  0  0  0  0  0
    9.4086    8.9939    3.1360 C   0  0  0  0  0  0  0  0  0  0  0  0
    8.0119    9.4795    2.8745 C   0  0  0  0  0  0  0  0  0  0  0  0
    7.6187    9.6893    1.6921 O   0  0  0  0  0  0  0  0  0  0  0  0
    7.1292    9.6965    3.9807 N   0  0  0  0  0  0  0  0  0  0  0  0
    5.7624   10.1694    3.8094 C   0  0  0  0  0  0  0  0  0  0  0  0
    5.7587   11.6573    3.4724 C   0  0  0  0  0  0  0  0  0  0  0  0
    4.4421   12.1064    3.3200 O   0  0  0  0  0  0  0  0  0  0  0  0
   10.4229   10.1485    3.0671 C   0  0  0  0  0  0  0  0  0  0  0  0
   11.8582    9.6379    3.2816 C   0  0  0  0  0  0  0  0  0  0  0  0
   15.0958    6.8574    1.1814 H   0  0  0  0  0  0  0  0  0  0  0  0
   13.9784    7.8974    0.2278 H   0  0  0  0  0  0  0  0  0  0  0  0
   13.4173    6.3269    0.9275 H   0  0  0  0  0  0  0  0  0  0  0  0
   13.6910    7.2251    3.2394 H   0  0  0  0  0  0  0  0  0  0  0  0
   14.4960    9.3935    3.6370 H   0  0  0  0  0  0  0  0  0  0  0  0
   15.6002    8.6298    2.6308 H   0  0  0  0  0  0  0  0  0  0  0  0
   14.5433    9.7863    1.9687 H   0  0  0  0  0  0  0  0  0  0  0  0
   12.0876    8.9473    1.2540 H   0  0  0  0  0  0  0  0  0  0  0  0
   11.2347    6.9393    3.4625 H   0  0  0  0  0  0  0  0  0  0  0  0
   11.3816    6.5452    1.7192 H   0  0  0  0  0  0  0  0  0  0  0  0
    9.0563    7.0278    2.2771 H   0  0  0  0  0  0  0  0  0  0  0  0
    9.7089    8.2307    1.1059 H   0  0  0  0  0  0  0  0  0  0  0  0
    9.4455    8.5679    4.1642 H   0  0  0  0  0  0  0  0  0  0  0  0
    7.4525    9.4673    4.9477 H   0  0  0  0  0  0  0  0  0  0  0  0
    5.2572    9.5890    3.0069 H   0  0  0  0  0  0  0  0  0  0  0  0
    5.2000   10.0100    4.7552 H   0  0  0  0  0  0  0  0  0  0  0  0
    6.2767   12.2336    4.2730 H   0  0  0  0  0  0  0  0  0  0  0  0
    6.3008   11.8316    2.5198 H   0  0  0  0  0  0  0  0  0  0  0  0
    4.0707   12.2170    4.2342 H   0  0  0  0  0  0  0  0  0  0  0  0
   10.3565   10.6518    2.0766 H   0  0  0  0  0  0  0  0  0  0  0  0
   10.1846   10.9008    3.8506 H   0  0  0  0  0  0  0  0  0  0  0  0
   12.5372   10.5052    3.1416 H   0  0  0  0  0  0  0  0  0  0  0  0
   11.9739    9.2660    4.3236 H   0  0  0  0  0  0  0  0  0  0  0  0
  1  2  1  0
  2  3  1  0
  2  4  1  0
  4  5  1  0
  5  6  1  0
  6  7  1  0
  7  8  1  0
  8  9  2  0
  8 10  1  0
 10 11  1  0
 11 12  1  0
 12 13  1  0
  7 14  1  0
 14 15  1  0
 15  4  1  0
  1 16  1  0
  1 17  1  0
  1 18  1  0
  2 19  1  0
  3 20  1  0
  3 21  1  0
  3 22  1  0
  4 23  1  0
  5 24  1  0
  5 25  1  0
  6 26  1  0
  6 27  1  0
  7 28  1  0
 10 29  1  0
 11 30  1  0
 11 31  1  0
 12 32  1  0
 12 33  1  0
 13 34  1  0
 14 35  1  0
 14 36  1  0
 15 37  1  0
 15 38  1  0
M  CHG  1   3   1
M  END
>  <EmbedRMS>  (111) 
0.031392693704421666

$$$$

     RDKit          3D

 41 41  0  0  0  0  0  0  0  0999 V2000
    4.6460   11.6759    7.1724 C   0  0  0  0  0  0  0  0  0  0  0  0
    5.2633   11.4940    5.8659 N   0  0  0  0  0  0  0  0  0  0  0  0
    5.1493   10.2629    5.1439 C   0  0  0  0  0  0  0  0  0  0  0  0
    4.5014    9.2956    5.6277 O   0  0  0  0  0  0  0  0  0  0  0  0
    5.8086   10.1135    3.8127 C   0  0  0  0  0  0  0  0  0  0  0  0
    7.2095    9.6833    3.9371 N   0  0  0  0  0  0  0  0  0  0  0  0
    7.9808    9.5180    2.7350 C   0  0  0  0  0  0  0  0  0  0  0  0
    7.4142    9.6752    1.6244 O   0  0  0  0  0  0  0  0  0  0  0  0
    9.4440    9.1935    2.6630 C   0  0  0  0  0  0  0  0  0  0  0  0
    9.7658    7.7143    2.4337 C   0  0  0  0  0  0  0  0  0  0  0  0
   11.2644    7.3644    2.5408 C   0  0  0  0  0  0  0  0  0  0  0  0
   12.1433    8.5869    2.2329 C   0  0  0  0  0  0  0  0  0  0  0  0
   13.6544    8.3400    1.9332 C   0  0  0  0  0  0  0  0  0  0  0  0
   14.0135    7.0449    1.2245 C   0  0  0  0  0  0  0  0  0  0  0  0
   14.6174    8.7741    2.9396 N   0  0  0  0  0  4  0  0  0  0  0  0
   11.8904    9.6848    3.2864 C   0  0  0  0  0  0  0  0  0  0  0  0
   10.4058   10.0816    3.4356 C   0  0  0  0  0  0  0  0  0  0  0  0
    3.5459   11.5501    7.0899 H   0  0  0  0  0  0  0  0  0  0  0  0
    4.8632   12.6960    7.5536 H   0  0  0  0  0  0  0  0  0  0  0  0
    5.0530   10.9310    7.8883 H   0  0  0  0  0  0  0  0  0  0  0  0
    5.8124   12.2820    5.4541 H   0  0  0  0  0  0  0  0  0  0  0  0
    5.2457    9.3665    3.2110 H   0  0  0  0  0  0  0  0  0  0  0  0
    5.7655   11.0860    3.2759 H   0  0  0  0  0  0  0  0  0  0  0  0
    7.6527    9.5270    4.8705 H   0  0  0  0  0  0  0  0  0  0  0  0
    9.6833    9.5857    1.6449 H   0  0  0  0  0  0  0  0  0  0  0  0
    9.2152    7.1104    3.1876 H   0  0  0  0  0  0  0  0  0  0  0  0
    9.3851    7.3989    1.4351 H   0  0  0  0  0  0  0  0  0  0  0  0
   11.4740    6.5318    1.8378 H   0  0  0  0  0  0  0  0  0  0  0  0
   11.4952    7.0010    3.5664 H   0  0  0  0  0  0  0  0  0  0  0  0
   11.7498    8.9804    1.2663 H   0  0  0  0  0  0  0  0  0  0  0  0
   13.8441    9.0654    1.1031 H   0  0  0  0  0  0  0  0  0  0  0  0
   15.0584    7.0793    0.8474 H   0  0  0  0  0  0  0  0  0  0  0  0
   13.3402    6.8740    0.3569 H   0  0  0  0  0  0  0  0  0  0  0  0
   13.9243    6.1936    1.9314 H   0  0  0  0  0  0  0  0  0  0  0  0
   15.5927    8.5554    2.6308 H   0  0  0  0  0  0  0  0  0  0  0  0
   14.5660    9.8051    3.1020 H   0  0  0  0  0  0  0  0  0  0  0  0
   14.4336    8.2664    3.8348 H   0  0  0  0  0  0  0  0  0  0  0  0
   12.2736    9.3421    4.2727 H   0  0  0  0  0  0  0  0  0  0  0  0
   12.4550   10.5998    3.0047 H   0  0  0  0  0  0  0  0  0  0  0  0
   10.1351   10.0261    4.5122 H   0  0  0  0  0  0  0  0  0  0  0  0
   10.2667   11.1445    3.1312 H   0  0  0  0  0  0  0  0  0  0  0  0
  1  2  1  0
  2  3  1  0
  3  4  2  0
  3  5  1  0
  5  6  1  0
  6  7  1  0
  7  8  2  0
  7  9  1  0
  9 10  1  0
 10 11  1  0
 11 12  1  0
 12 13  1  0
 13 14  1  0
 13 15  1  0
 12 16  1  0
 16 17  1  0
 17  9  1  0
  1 18  1  0
  1 19  1  0
  1 20  1  0
  2 21  1  0
  5 22  1  0
  5 23  1  0
  6 24  1  0
  9 25  1  0
 10 26  1  0
 10 27  1  0
 11 28  1  0
 11 29  1  0
 12 30  1  0
 13 31  1  0
 14 32  1  0
 14 33  1  0
 14 34  1  0
 15 35  1  0
 15 36  1  0
 15 37  1  0
 16 38  1  0
 16 39  1  0
 17 40  1  0
 17 41  1  0
M  CHG  1  15   1
M  END
>  <EmbedRMS>  (112) 
0.2569057114362328

$$$$

     RDKit          3D

 44 44  0  0  0  0  0  0  0  0999 V2000
    5.1799   12.6748    5.6886 C   0  0  0  0  0  0  0  0  0  0  0  0
    6.2510   12.5338    4.6060 C   0  0  0  0  0  0  0  0  0  0  0  0
    6.5480   13.8079    4.1003 O   0  0  0  0  0  0  0  0  0  0  0  0
    5.7617   11.6223    3.4674 C   0  0  0  0  0  0  0  0  0  0  0  0
    5.8356   10.1345    3.8548 C   0  0  0  0  0  0  0  0  0  0  0  0
    7.2317    9.6806    3.9235 N   0  0  0  0  0  0  0  0  0  0  0  0
    7.9941    9.5328    2.7147 C   0  0  0  0  0  0  0  0  0  0  0  0
    7.4180    9.6756    1.6089 O   0  0  0  0  0  0  0  0  0  0  0  0
    9.4548    9.2126    2.6312 C   0  0  0  0  0  0  0  0  0  0  0  0
    9.7377    7.7417    2.3715 C   0  0  0  0  0  0  0  0  0  0  0  0
   11.2003    7.3488    2.5408 C   0  0  0  0  0  0  0  0  0  0  0  0
   12.1837    8.5079    2.2958 C   0  0  0  0  0  0  0  0  0  0  0  0
   13.6474    7.9625    2.3852 C   0  0  0  0  0  0  0  0  0  0  0  0
   14.0292    7.2302    1.0860 C   0  0  0  0  0  0  0  0  0  0  0  0
   14.6282    9.0248    2.6471 N   0  0  0  0  0  4  0  0  0  0  0  0
   11.8969    9.6378    3.3177 C   0  0  0  0  0  0  0  0  0  0  0  0
   10.4184   10.0720    3.4268 C   0  0  0  0  0  0  0  0  0  0  0  0
    4.9891   11.7084    6.1975 H   0  0  0  0  0  0  0  0  0  0  0  0
    4.2302   13.0566    5.2564 H   0  0  0  0  0  0  0  0  0  0  0  0
    5.5260   13.3961    6.4592 H   0  0  0  0  0  0  0  0  0  0  0  0
    7.1664   12.1050    5.0776 H   0  0  0  0  0  0  0  0  0  0  0  0
    7.4290   13.7396    3.6469 H   0  0  0  0  0  0  0  0  0  0  0  0
    6.3741   11.8030    2.5589 H   0  0  0  0  0  0  0  0  0  0  0  0
    4.7137   11.8783    3.1976 H   0  0  0  0  0  0  0  0  0  0  0  0
    5.2853    9.5288    3.1024 H   0  0  0  0  0  0  0  0  0  0  0  0
    5.3389    9.9521    4.8292 H   0  0  0  0  0  0  0  0  0  0  0  0
    7.6605    9.4414    4.8453 H   0  0  0  0  0  0  0  0  0  0  0  0
    9.7150    9.6201    1.6222 H   0  0  0  0  0  0  0  0  0  0  0  0
    9.1312    7.1294    3.0751 H   0  0  0  0  0  0  0  0  0  0  0  0
    9.3995    7.4671    1.3452 H   0  0  0  0  0  0  0  0  0  0  0  0
   11.4016    6.4979    1.8592 H   0  0  0  0  0  0  0  0  0  0  0  0
   11.3452    6.9704    3.5780 H   0  0  0  0  0  0  0  0  0  0  0  0
   12.0134    8.9209    1.2759 H   0  0  0  0  0  0  0  0  0  0  0  0
   13.7162    7.2278    3.2203 H   0  0  0  0  0  0  0  0  0  0  0  0
   13.3826    6.3494    0.9047 H   0  0  0  0  0  0  0  0  0  0  0  0
   13.9584    7.9168    0.2154 H   0  0  0  0  0  0  0  0  0  0  0  0
   15.0728    6.8555    1.1517 H   0  0  0  0  0  0  0  0  0  0  0  0
   14.5154    9.4001    3.6158 H   0  0  0  0  0  0  0  0  0  0  0  0
   14.5271    9.7978    1.9493 H   0  0  0  0  0  0  0  0  0  0  0  0
   15.6000    8.6426    2.5850 H   0  0  0  0  0  0  0  0  0  0  0  0
   12.4948   10.5358    3.0505 H   0  0  0  0  0  0  0  0  0  0  0  0
   12.2358    9.3032    4.3237 H   0  0  0  0  0  0  0  0  0  0  0  0
   10.3147   11.1395    3.1239 H   0  0  0  0  0  0  0  0  0  0  0  0
   10.1178   10.0229    4.4960 H   0  0  0  0  0  0  0  0  0  0  0  0
  1  2  1  0
  2  3  1  0
  2  4  1  0
  4  5  1  0
  5  6  1  0
  6  7  1  0
  7  8  2  0
  7  9  1  0
  9 10  1  0
 10 11  1  0
 11 12  1  0
 12 13  1  0
 13 14  1  0
 13 15  1  0
 12 16  1  0
 16 17  1  0
 17  9  1  0
  1 18  1  0
  1 19  1  0
  1 20  1  0
  2 21  1  0
  3 22  1  0
  4 23  1  0
  4 24  1  0
  5 25  1  0
  5 26  1  0
  6 27  1  0
  9 28  1  0
 10 29  1  0
 10 30  1  0
 11 31  1  0
 11 32  1  0
 12 33  1  0
 13 34  1  0
 14 35  1  0
 14 36  1  0
 14 37  1  0
 15 38  1  0
 15 39  1  0
 15 40  1  0
 16 41  1  0
 16 42  1  0
 17 43  1  0
 17 44  1  0
M  CHG  1  15   1
M  END
>  <EmbedRMS>  (113) 
0.18386844037944652

$$$$

     RDKit          3D

 41 41  0  0  0  0  0  0  0  0999 V2000
    4.6460   11.6759    7.1724 C   0  0  0  0  0  0  0  0  0  0  0  0
    5.2633   11.4940    5.8659 N   0  0  0  0  0  0  0  0  0  0  0  0
    5.1493   10.2629    5.1439 C   0  0  0  0  0  0  0  0  0  0  0  0
    4.5014    9.2956    5.6277 O   0  0  0  0  0  0  0  0  0  0  0  0
    5.8086   10.1135    3.8127 C   0  0  0  0  0  0  0  0  0  0  0  0
    7.2095    9.6833    3.9371 N   0  0  0  0  0  0  0  0  0  0  0  0
    7.9808    9.5180    2.7350 C   0  0  0  0  0  0  0  0  0  0  0  0
    7.4142    9.6752    1.6244 O   0  0  0  0  0  0  0  0  0  0  0  0
    9.4440    9.1935    2.6630 C   0  0  0  0  0  0  0  0  0  0  0  0
    9.7658    7.7143    2.4337 C   0  0  0  0  0  0  0  0  0  0  0  0
   11.2644    7.3644    2.5408 C   0  0  0  0  0  0  0  0  0  0  0  0
   12.1433    8.5869    2.2329 C   0  0  0  0  0  0  0  0  0  0  0  0
   13.6544    8.3400    1.9332 C   0  0  0  0  0  0  0  0  0  0  0  0
   14.0135    7.0449    1.2245 C   0  0  0  0  0  0  0  0  0  0  0  0
   14.6174    8.7741    2.9396 N   0  0  0  0  0  4  0  0  0  0  0  0
   11.8904    9.6848    3.2864 C   0  0  0  0  0  0  0  0  0  0  0  0
   10.4058   10.0816    3.4356 C   0  0  0  0  0  0  0  0  0  0  0  0
    3.5459   11.5501    7.0899 H   0  0  0  0  0  0  0  0  0  0  0  0
    4.8632   12.6960    7.5536 H   0  0  0  0  0  0  0  0  0  0  0  0
    5.0530   10.9310    7.8883 H   0  0  0  0  0  0  0  0  0  0  0  0
    5.8124   12.2820    5.4541 H   0  0  0  0  0  0  0  0  0  0  0  0
    5.2457    9.3665    3.2110 H   0  0  0  0  0  0  0  0  0  0  0  0
    5.7655   11.0860    3.2759 H   0  0  0  0  0  0  0  0  0  0  0  0
    7.6527    9.5270    4.8705 H   0  0  0  0  0  0  0  0  0  0  0  0
    9.6833    9.5857    1.6449 H   0  0  0  0  0  0  0  0  0  0  0  0
    9.2152    7.1104    3.1876 H   0  0  0  0  0  0  0  0  0  0  0  0
    9.3851    7.3989    1.4351 H   0  0  0  0  0  0  0  0  0  0  0  0
   11.4740    6.5318    1.8378 H   0  0  0  0  0  0  0  0  0  0  0  0
   11.4952    7.0010    3.5664 H   0  0  0  0  0  0  0  0  0  0  0  0
   11.7498    8.9804    1.2663 H   0  0  0  0  0  0  0  0  0  0  0  0
   13.8441    9.0654    1.1031 H   0  0  0  0  0  0  0  0  0  0  0  0
   15.0584    7.0793    0.8474 H   0  0  0  0  0  0  0  0  0  0  0  0
   13.3402    6.8740    0.3569 H   0  0  0  0  0  0  0  0  0  0  0  0
   13.9243    6.1936    1.9314 H   0  0  0  0  0  0  0  0  0  0  0  0
   15.5927    8.5554    2.6308 H   0  0  0  0  0  0  0  0  0  0  0  0
   14.5660    9.8051    3.1020 H   0  0  0  0  0  0  0  0  0  0  0  0
   14.4336    8.2664    3.8348 H   0  0  0  0  0  0  0  0  0  0  0  0
   12.2736    9.3421    4.2727 H   0  0  0  0  0  0  0  0  0  0  0  0
   12.4550   10.5998    3.0047 H   0  0  0  0  0  0  0  0  0  0  0  0
   10.1351   10.0261    4.5122 H   0  0  0  0  0  0  0  0  0  0  0  0
   10.2667   11.1445    3.1312 H   0  0  0  0  0  0  0  0  0  0  0  0
  1  2  1  0
  2  3  1  0
  3  4  2  0
  3  5  1  0
  5  6  1  0
  6  7  1  0
  7  8  2  0
  7  9  1  0
  9 10  1  0
 10 11  1  0
 11 12  1  0
 12 13  1  0
 13 14  1  0
 13 15  1  0
 12 16  1  0
 16 17  1  0
 17  9  1  0
  1 18  1  0
  1 19  1  0
  1 20  1  0
  2 21  1  0
  5 22  1  0
  5 23  1  0
  6 24  1  0
  9 25  1  0
 10 26  1  0
 10 27  1  0
 11 28  1  0
 11 29  1  0
 12 30  1  0
 13 31  1  0
 14 32  1  0
 14 33  1  0
 14 34  1  0
 15 35  1  0
 15 36  1  0
 15 37  1  0
 16 38  1  0
 16 39  1  0
 17 40  1  0
 17 41  1  0
M  CHG  1  15   1
M  END
>  <EmbedRMS>  (114) 
0.2569057114362328

$$$$

     RDKit          3D

 38 38  0  0  0  0  0  0  0  0999 V2000
   14.0281    7.0397    1.2343 C   0  0  0  0  0  0  0  0  0  0  0  0
   13.6693    8.3364    1.9396 C   0  0  0  0  0  0  0  0  0  0  0  0
   14.6134    8.7687    2.9623 N   0  0  0  0  0  4  0  0  0  0  0  0
   12.1578    8.5899    2.2120 C   0  0  0  0  0  0  0  0  0  0  0  0
   11.2405    7.3772    2.4519 C   0  0  0  0  0  0  0  0  0  0  0  0
    9.7885    7.8243    2.2114 C   0  0  0  0  0  0  0  0  0  0  0  0
    9.4114    8.9838    3.1519 C   0  0  0  0  0  0  0  0  0  0  0  0
    8.0137    9.4644    2.8764 C   0  0  0  0  0  0  0  0  0  0  0  0
    7.6236    9.6755    1.6931 O   0  0  0  0  0  0  0  0  0  0  0  0
    7.1388    9.7055    3.9791 N   0  0  0  0  0  0  0  0  0  0  0  0
    5.7610   10.1385    3.7918 C   0  0  0  0  0  0  0  0  0  0  0  0
    5.0964   10.2807    5.1228 C   0  0  0  0  0  0  0  0  0  0  0  0
    5.2137   11.4974    5.8582 N   0  0  0  0  0  0  0  0  0  0  0  0
    4.4940    9.2972    5.6288 O   0  0  0  0  0  0  0  0  0  0  0  0
   10.4061   10.1586    3.0871 C   0  0  0  0  0  0  0  0  0  0  0  0
   11.8556    9.6808    3.2542 C   0  0  0  0  0  0  0  0  0  0  0  0
   13.3771    6.8823    0.3473 H   0  0  0  0  0  0  0  0  0  0  0  0
   13.9078    6.1867    1.9346 H   0  0  0  0  0  0  0  0  0  0  0  0
   15.0832    7.0603    0.8857 H   0  0  0  0  0  0  0  0  0  0  0  0
   13.8831    9.0582    1.1114 H   0  0  0  0  0  0  0  0  0  0  0  0
   15.5896    8.5022    2.6974 H   0  0  0  0  0  0  0  0  0  0  0  0
   14.3777    8.3021    3.8677 H   0  0  0  0  0  0  0  0  0  0  0  0
   14.5961    9.8060    3.0881 H   0  0  0  0  0  0  0  0  0  0  0  0
   11.8027    9.0089    1.2373 H   0  0  0  0  0  0  0  0  0  0  0  0
   11.3695    6.9868    3.4852 H   0  0  0  0  0  0  0  0  0  0  0  0
   11.4632    6.5568    1.7395 H   0  0  0  0  0  0  0  0  0  0  0  0
    9.6589    8.1233    1.1472 H   0  0  0  0  0  0  0  0  0  0  0  0
    9.1130    6.9617    2.4019 H   0  0  0  0  0  0  0  0  0  0  0  0
    9.4464    8.5784    4.1883 H   0  0  0  0  0  0  0  0  0  0  0  0
    7.5087    9.5678    4.9482 H   0  0  0  0  0  0  0  0  0  0  0  0
    5.7440   11.1125    3.2573 H   0  0  0  0  0  0  0  0  0  0  0  0
    5.2145    9.3890    3.1791 H   0  0  0  0  0  0  0  0  0  0  0  0
    5.7459   12.3067    5.4681 H   0  0  0  0  0  0  0  0  0  0  0  0
    4.7721   11.5883    6.8000 H   0  0  0  0  0  0  0  0  0  0  0  0
   10.1715   10.8883    3.8929 H   0  0  0  0  0  0  0  0  0  0  0  0
   10.3032   10.6869    2.1126 H   0  0  0  0  0  0  0  0  0  0  0  0
   12.5086   10.5642    3.0949 H   0  0  0  0  0  0  0  0  0  0  0  0
   12.0204    9.2949    4.2840 H   0  0  0  0  0  0  0  0  0  0  0  0
  1  2  1  0
  2  3  1  0
  2  4  1  0
  4  5  1  0
  5  6  1  0
  6  7  1  0
  7  8  1  0
  8  9  2  0
  8 10  1  0
 10 11  1  0
 11 12  1  0
 12 13  1  0
 12 14  2  0
  7 15  1  0
 15 16  1  0
 16  4  1  0
  1 17  1  0
  1 18  1  0
  1 19  1  0
  2 20  1  0
  3 21  1  0
  3 22  1  0
  3 23  1  0
  4 24  1  0
  5 25  1  0
  5 26  1  0
  6 27  1  0
  6 28  1  0
  7 29  1  0
 10 30  1  0
 11 31  1  0
 11 32  1  0
 13 33  1  0
 13 34  1  0
 15 35  1  0
 15 36  1  0
 16 37  1  0
 16 38  1  0
M  CHG  1   3   1
M  END
>  <EmbedRMS>  (115) 
0.1933160619529778

$$$$

     RDKit          3D

 42 43  0  0  0  0  0  0  0  0999 V2000
   13.9327    7.3325    1.0257 C   0  0  0  0  0  0  0  0  0  0  0  0
   13.7101    7.9150    2.4296 C   0  0  0  0  0  0  0  0  0  0  0  0
   14.6483    9.0167    2.6729 N   0  0  0  0  0  4  0  0  0  0  0  0
   12.2329    8.2988    2.7955 C   0  0  0  0  0  0  0  0  0  0  0  0
   11.1471    7.3154    2.3197 C   0  0  0  0  0  0  0  0  0  0  0  0
    9.7847    7.9360    2.0724 C   0  0  0  0  0  0  0  0  0  0  0  0
    9.4218    8.9842    3.1174 C   0  0  0  0  0  0  0  0  0  0  0  0
    8.0134    9.4665    2.8755 C   0  0  0  0  0  0  0  0  0  0  0  0
    7.6157    9.6844    1.6960 O   0  0  0  0  0  0  0  0  0  0  0  0
    7.1478    9.7000    3.9959 N   0  0  0  0  0  0  0  0  0  0  0  0
    5.7472   10.1397    3.9176 C   0  0  0  0  0  0  0  0  0  0  0  0
    5.1717   10.2595    5.1919 O   0  0  0  0  0  0  0  0  0  0  0  0
    4.8726    9.3356    2.9561 C   0  0  0  0  0  0  0  0  0  0  0  0
    4.6503   10.5984    2.1283 C   0  0  0  0  0  0  0  0  0  0  0  0
    5.5309   11.3995    3.0842 C   0  0  0  0  0  0  0  0  0  0  0  0
   10.3934   10.1682    3.0617 C   0  0  0  0  0  0  0  0  0  0  0  0
   11.8855    9.7891    2.9948 C   0  0  0  0  0  0  0  0  0  0  0  0
   13.4419    7.9750    0.2642 H   0  0  0  0  0  0  0  0  0  0  0  0
   13.5369    6.2977    0.9561 H   0  0  0  0  0  0  0  0  0  0  0  0
   15.0171    7.2750    0.7917 H   0  0  0  0  0  0  0  0  0  0  0  0
   14.0073    7.0852    3.1155 H   0  0  0  0  0  0  0  0  0  0  0  0
   14.5403    9.3812    3.6466 H   0  0  0  0  0  0  0  0  0  0  0  0
   14.5090    9.7865    1.9795 H   0  0  0  0  0  0  0  0  0  0  0  0
   15.6316    8.6703    2.5840 H   0  0  0  0  0  0  0  0  0  0  0  0
   12.2364    8.0292    3.8801 H   0  0  0  0  0  0  0  0  0  0  0  0
   11.0316    6.4814    3.0509 H   0  0  0  0  0  0  0  0  0  0  0  0
   11.4311    6.8329    1.3661 H   0  0  0  0  0  0  0  0  0  0  0  0
    9.7893    8.4049    1.0619 H   0  0  0  0  0  0  0  0  0  0  0  0
    9.0195    7.1275    2.0635 H   0  0  0  0  0  0  0  0  0  0  0  0
    9.4844    8.5120    4.1234 H   0  0  0  0  0  0  0  0  0  0  0  0
    7.5469    9.5515    4.9505 H   0  0  0  0  0  0  0  0  0  0  0  0
    5.1710    9.3495    5.5887 H   0  0  0  0  0  0  0  0  0  0  0  0
    3.9298    8.9724    3.4214 H   0  0  0  0  0  0  0  0  0  0  0  0
    5.4144    8.5424    2.3979 H   0  0  0  0  0  0  0  0  0  0  0  0
    5.0833   10.5235    1.1072 H   0  0  0  0  0  0  0  0  0  0  0  0
    3.5907   10.9355    2.1427 H   0  0  0  0  0  0  0  0  0  0  0  0
    6.4497   11.7923    2.5984 H   0  0  0  0  0  0  0  0  0  0  0  0
    4.9553   12.1850    3.6219 H   0  0  0  0  0  0  0  0  0  0  0  0
   10.1526   10.7902    2.1691 H   0  0  0  0  0  0  0  0  0  0  0  0
   10.2188   10.8147    3.9503 H   0  0  0  0  0  0  0  0  0  0  0  0
   12.3146   10.3470    2.1355 H   0  0  0  0  0  0  0  0  0  0  0  0
   12.3914   10.1923    3.9019 H   0  0  0  0  0  0  0  0  0  0  0  0
  1  2  1  0
  2  3  1  0
  2  4  1  0
  4  5  1  0
  5  6  1  0
  6  7  1  0
  7  8  1  0
  8  9  2  0
  8 10  1  0
 10 11  1  0
 11 12  1  0
 11 13  1  0
 13 14  1  0
 14 15  1  0
  7 16  1  0
 16 17  1  0
 17  4  1  0
 15 11  1  0
  1 18  1  0
  1 19  1  0
  1 20  1  0
  2 21  1  0
  3 22  1  0
  3 23  1  0
  3 24  1  0
  4 25  1  0
  5 26  1  0
  5 27  1  0
  6 28  1  0
  6 29  1  0
  7 30  1  0
 10 31  1  0
 12 32  1  0
 13 33  1  0
 13 34  1  0
 14 35  1  0
 14 36  1  0
 15 37  1  0
 15 38  1  0
 16 39  1  0
 16 40  1  0
 17 41  1  0
 17 42  1  0
M  CHG  1   3   1
M  END
>  <EmbedRMS>  (116) 
0.1688074898614738

$$$$

     RDKit          3D

 38 38  0  0  0  0  0  0  0  0999 V2000
   14.0485    7.2193    1.1052 C   0  0  0  0  0  0  0  0  0  0  0  0
   13.6494    7.9557    2.3993 C   0  0  0  0  0  0  0  0  0  0  0  0
   14.6287    9.0157    2.6714 N   0  0  0  0  0  4  0  0  0  0  0  0
   12.1999    8.5121    2.2739 C   0  0  0  0  0  0  0  0  0  0  0  0
   11.1802    7.3659    2.4359 C   0  0  0  0  0  0  0  0  0  0  0  0
    9.7714    7.8716    2.1578 C   0  0  0  0  0  0  0  0  0  0  0  0
    9.4086    8.9939    3.1360 C   0  0  0  0  0  0  0  0  0  0  0  0
    8.0119    9.4795    2.8745 C   0  0  0  0  0  0  0  0  0  0  0  0
    7.6187    9.6893    1.6921 O   0  0  0  0  0  0  0  0  0  0  0  0
    7.1292    9.6965    3.9807 N   0  0  0  0  0  0  0  0  0  0  0  0
    5.7624   10.1694    3.8094 C   0  0  0  0  0  0  0  0  0  0  0  0
    5.7587   11.6573    3.4724 C   0  0  0  0  0  0  0  0  0  0  0  0
    4.4421   12.1064    3.3200 O   0  0  0  0  0  0  0  0  0  0  0  0
   10.4229   10.1485    3.0671 C   0  0  0  0  0  0  0  0  0  0  0  0
   11.8582    9.6379    3.2816 C   0  0  0  0  0  0  0  0  0  0  0  0
   15.0958    6.8574    1.1814 H   0  0  0  0  0  0  0  0  0  0  0  0
   13.9784    7.8974    0.2278 H   0  0  0  0  0  0  0  0  0  0  0  0
   13.4173    6.3269    0.9275 H   0  0  0  0  0  0  0  0  0  0  0  0
   13.6910    7.2251    3.2394 H   0  0  0  0  0  0  0  0  0  0  0  0
   14.4960    9.3935    3.6370 H   0  0  0  0  0  0  0  0  0  0  0  0
   15.6002    8.6298    2.6308 H   0  0  0  0  0  0  0  0  0  0  0  0
   14.5433    9.7863    1.9687 H   0  0  0  0  0  0  0  0  0  0  0  0
   12.0876    8.9473    1.2540 H   0  0  0  0  0  0  0  0  0  0  0  0
   11.2347    6.9393    3.4625 H   0  0  0  0  0  0  0  0  0  0  0  0
   11.3816    6.5452    1.7192 H   0  0  0  0  0  0  0  0  0  0  0  0
    9.0563    7.0278    2.2771 H   0  0  0  0  0  0  0  0  0  0  0  0
    9.7089    8.2307    1.1059 H   0  0  0  0  0  0  0  0  0  0  0  0
    9.4455    8.5679    4.1642 H   0  0  0  0  0  0  0  0  0  0  0  0
    7.4525    9.4673    4.9477 H   0  0  0  0  0  0  0  0  0  0  0  0
    5.2572    9.5890    3.0069 H   0  0  0  0  0  0  0  0  0  0  0  0
    5.2000   10.0100    4.7552 H   0  0  0  0  0  0  0  0  0  0  0  0
    6.2767   12.2336    4.2730 H   0  0  0  0  0  0  0  0  0  0  0  0
    6.3008   11.8316    2.5198 H   0  0  0  0  0  0  0  0  0  0  0  0
    4.0707   12.2170    4.2342 H   0  0  0  0  0  0  0  0  0  0  0  0
   10.3565   10.6518    2.0766 H   0  0  0  0  0  0  0  0  0  0  0  0
   10.1846   10.9008    3.8506 H   0  0  0  0  0  0  0  0  0  0  0  0
   12.5372   10.5052    3.1416 H   0  0  0  0  0  0  0  0  0  0  0  0
   11.9739    9.2660    4.3236 H   0  0  0  0  0  0  0  0  0  0  0  0
  1  2  1  0
  2  3  1  0
  2  4  1  0
  4  5  1  0
  5  6  1  0
  6  7  1  0
  7  8  1  0
  8  9  2  0
  8 10  1  0
 10 11  1  0
 11 12  1  0
 12 13  1  0
  7 14  1  0
 14 15  1  0
 15  4  1  0
  1 16  1  0
  1 17  1  0
  1 18  1  0
  2 19  1  0
  3 20  1  0
  3 21  1  0
  3 22  1  0
  4 23  1  0
  5 24  1  0
  5 25  1  0
  6 26  1  0
  6 27  1  0
  7 28  1  0
 10 29  1  0
 11 30  1  0
 11 31  1  0
 12 32  1  0
 12 33  1  0
 13 34  1  0
 14 35  1  0
 14 36  1  0
 15 37  1  0
 15 38  1  0
M  CHG  1   3   1
M  END
>  <EmbedRMS>  (117) 
0.031392693704421666

$$$$

     RDKit          3D

 41 41  0  0  0  0  0  0  0  0999 V2000
   14.0268    7.2304    1.0861 C   0  0  0  0  0  0  0  0  0  0  0  0
   13.6450    7.9629    2.3852 C   0  0  0  0  0  0  0  0  0  0  0  0
   14.6265    9.0246    2.6472 N   0  0  0  0  0  4  0  0  0  0  0  0
   12.1808    8.5090    2.2963 C   0  0  0  0  0  0  0  0  0  0  0  0
   11.1967    7.3505    2.5412 C   0  0  0  0  0  0  0  0  0  0  0  0
    9.7332    7.7444    2.3740 C   0  0  0  0  0  0  0  0  0  0  0  0
    9.4476    9.2145    2.6427 C   0  0  0  0  0  0  0  0  0  0  0  0
    7.9829    9.5398    2.7221 C   0  0  0  0  0  0  0  0  0  0  0  0
    7.4216    9.6828    1.6091 O   0  0  0  0  0  0  0  0  0  0  0  0
    7.2087    9.6879    3.9312 N   0  0  0  0  0  0  0  0  0  0  0  0
    5.8253   10.1191    3.8968 C   0  0  0  0  0  0  0  0  0  0  0  0
    5.2602   10.3891    2.8000 O   0  0  0  0  0  0  0  0  0  0  0  0
    5.0419   10.3070    5.1607 C   0  0  0  0  0  0  0  0  0  0  0  0
    5.1161   11.7552    5.6458 C   0  0  0  0  0  0  0  0  0  0  0  0
    6.4414   12.0409    6.1859 N   0  0  0  0  0  0  0  0  0  0  0  0
   10.4169   10.0742    3.4314 C   0  0  0  0  0  0  0  0  0  0  0  0
   11.8952    9.6382    3.3192 C   0  0  0  0  0  0  0  0  0  0  0  0
   13.3794    6.3502    0.9048 H   0  0  0  0  0  0  0  0  0  0  0  0
   13.9565    7.9171    0.2156 H   0  0  0  0  0  0  0  0  0  0  0  0
   15.0701    6.8550    1.1520 H   0  0  0  0  0  0  0  0  0  0  0  0
   13.7135    7.2281    3.2202 H   0  0  0  0  0  0  0  0  0  0  0  0
   14.5256    9.7978    1.9496 H   0  0  0  0  0  0  0  0  0  0  0  0
   14.5141    9.3997    3.6161 H   0  0  0  0  0  0  0  0  0  0  0  0
   15.5982    8.6420    2.5847 H   0  0  0  0  0  0  0  0  0  0  0  0
   12.0102    8.9227    1.2767 H   0  0  0  0  0  0  0  0  0  0  0  0
   11.3968    6.5003    1.8583 H   0  0  0  0  0  0  0  0  0  0  0  0
   11.3424    6.9709    3.5778 H   0  0  0  0  0  0  0  0  0  0  0  0
    9.1268    7.1283    3.0742 H   0  0  0  0  0  0  0  0  0  0  0  0
    9.3950    7.4746    1.3465 H   0  0  0  0  0  0  0  0  0  0  0  0
    9.7099    9.6226    1.6343 H   0  0  0  0  0  0  0  0  0  0  0  0
    7.6671    9.5039    4.8512 H   0  0  0  0  0  0  0  0  0  0  0  0
    5.4203    9.6212    5.9495 H   0  0  0  0  0  0  0  0  0  0  0  0
    3.9788   10.0427    4.9709 H   0  0  0  0  0  0  0  0  0  0  0  0
    4.3611   11.8936    6.4507 H   0  0  0  0  0  0  0  0  0  0  0  0
    4.8708   12.4619    4.8208 H   0  0  0  0  0  0  0  0  0  0  0  0
    7.1057   12.1542    5.3859 H   0  0  0  0  0  0  0  0  0  0  0  0
    6.3970   12.9713    6.6612 H   0  0  0  0  0  0  0  0  0  0  0  0
   10.3141   11.1414    3.1267 H   0  0  0  0  0  0  0  0  0  0  0  0
   10.1201   10.0288    4.5017 H   0  0  0  0  0  0  0  0  0  0  0  0
   12.2351    9.3024    4.3244 H   0  0  0  0  0  0  0  0  0  0  0  0
   12.4936   10.5359    3.0524 H   0  0  0  0  0  0  0  0  0  0  0  0
  1  2  1  0
  2  3  1  0
  2  4  1  0
  4  5  1  0
  5  6  1  0
  6  7  1  0
  7  8  1  0
  8  9  2  0
  8 10  1  0
 10 11  1  0
 11 12  2  0
 11 13  1  0
 13 14  1  0
 14 15  1  0
  7 16  1  0
 16 17  1  0
 17  4  1  0
  1 18  1  0
  1 19  1  0
  1 20  1  0
  2 21  1  0
  3 22  1  0
  3 23  1  0
  3 24  1  0
  4 25  1  0
  5 26  1  0
  5 27  1  0
  6 28  1  0
  6 29  1  0
  7 30  1  0
 10 31  1  0
 13 32  1  0
 13 33  1  0
 14 34  1  0
 14 35  1  0
 15 36  1  0
 15 37  1  0
 16 38  1  0
 16 39  1  0
 17 40  1  0
 17 41  1  0
M  CHG  1   3   1
M  END
>  <EmbedRMS>  (118) 
0.18056410303190035

$$$$

     RDKit          3D

 44 44  0  0  0  0  0  0  0  0999 V2000
   13.9344    7.3325    1.0251 C   0  0  0  0  0  0  0  0  0  0  0  0
   13.7124    7.9143    2.4293 C   0  0  0  0  0  0  0  0  0  0  0  0
   14.6504    9.0161    2.6726 N   0  0  0  0  0  4  0  0  0  0  0  0
   12.2357    8.2978    2.7953 C   0  0  0  0  0  0  0  0  0  0  0  0
   11.1506    7.3136    2.3192 C   0  0  0  0  0  0  0  0  0  0  0  0
    9.7889    7.9336    2.0719 C   0  0  0  0  0  0  0  0  0  0  0  0
    9.4291    8.9809    3.1175 C   0  0  0  0  0  0  0  0  0  0  0  0
    8.0244    9.4610    2.8767 C   0  0  0  0  0  0  0  0  0  0  0  0
    7.6190    9.6840    1.6996 O   0  0  0  0  0  0  0  0  0  0  0  0
    7.1616    9.6889    3.9915 N   0  0  0  0  0  0  0  0  0  0  0  0
    5.7855   10.1247    3.8210 C   0  0  0  0  0  0  0  0  0  0  0  0
    4.7423    8.9630    3.8122 C   0  0  0  0  0  0  0  0  0  0  0  0
    4.1166    8.8214    5.1831 C   0  0  0  0  0  0  0  0  0  0  0  0
    4.2843    8.6567    2.4010 C   0  0  0  0  0  0  0  0  0  0  0  0
    5.0987    7.7653    3.9177 O   0  0  0  0  0  0  0  0  0  0  0  0
   10.3977   10.1666    3.0612 C   0  0  0  0  0  0  0  0  0  0  0  0
   11.8890    9.7883    2.9936 C   0  0  0  0  0  0  0  0  0  0  0  0
   13.5401    6.2970    0.9555 H   0  0  0  0  0  0  0  0  0  0  0  0
   15.0186    7.2763    0.7900 H   0  0  0  0  0  0  0  0  0  0  0  0
   13.4422    7.9745    0.2641 H   0  0  0  0  0  0  0  0  0  0  0  0
   14.0100    7.0843    3.1149 H   0  0  0  0  0  0  0  0  0  0  0  0
   14.5109    9.7861    1.9796 H   0  0  0  0  0  0  0  0  0  0  0  0
   15.6337    8.6698    2.5833 H   0  0  0  0  0  0  0  0  0  0  0  0
   14.5428    9.3801    3.6466 H   0  0  0  0  0  0  0  0  0  0  0  0
   12.2392    8.0286    3.8800 H   0  0  0  0  0  0  0  0  0  0  0  0
   11.0353    6.4797    3.0507 H   0  0  0  0  0  0  0  0  0  0  0  0
   11.4346    6.8309    1.3657 H   0  0  0  0  0  0  0  0  0  0  0  0
    9.7931    8.4028    1.0615 H   0  0  0  0  0  0  0  0  0  0  0  0
    9.0236    7.1252    2.0640 H   0  0  0  0  0  0  0  0  0  0  0  0
    9.4921    8.5093    4.1239 H   0  0  0  0  0  0  0  0  0  0  0  0
    7.5013    9.4861    4.9588 H   0  0  0  0  0  0  0  0  0  0  0  0
    5.5537   10.8434    4.6375 H   0  0  0  0  0  0  0  0  0  0  0  0
    5.6953   10.7432    2.9009 H   0  0  0  0  0  0  0  0  0  0  0  0
    4.8622    8.6933    6.0088 H   0  0  0  0  0  0  0  0  0  0  0  0
    3.3169    8.0378    5.2516 H   0  0  0  0  0  0  0  0  0  0  0  0
    3.5776    9.7669    5.4063 H   0  0  0  0  0  0  0  0  0  0  0  0
    3.4915    7.8674    2.3375 H   0  0  0  0  0  0  0  0  0  0  0  0
    5.1205    8.4243    1.6954 H   0  0  0  0  0  0  0  0  0  0  0  0
    3.7922    9.5686    2.0007 H   0  0  0  0  0  0  0  0  0  0  0  0
    6.0784    7.6314    3.8034 H   0  0  0  0  0  0  0  0  0  0  0  0
   10.1562   10.7885    2.1686 H   0  0  0  0  0  0  0  0  0  0  0  0
   10.2230   10.8125    3.9502 H   0  0  0  0  0  0  0  0  0  0  0  0
   12.3172   10.3454    2.1334 H   0  0  0  0  0  0  0  0  0  0  0  0
   12.3955   10.1922    3.9001 H   0  0  0  0  0  0  0  0  0  0  0  0
  1  2  1  0
  2  3  1  0
  2  4  1  0
  4  5  1  0
  5  6  1  0
  6  7  1  0
  7  8  1  0
  8  9  2  0
  8 10  1  0
 10 11  1  0
 11 12  1  0
 12 13  1  0
 12 14  1  0
 12 15  1  0
  7 16  1  0
 16 17  1  0
 17  4  1  0
  1 18  1  0
  1 19  1  0
  1 20  1  0
  2 21  1  0
  3 22  1  0
  3 23  1  0
  3 24  1  0
  4 25  1  0
  5 26  1  0
  5 27  1  0
  6 28  1  0
  6 29  1  0
  7 30  1  0
 10 31  1  0
 11 32  1  0
 11 33  1  0
 13 34  1  0
 13 35  1  0
 13 36  1  0
 14 37  1  0
 14 38  1  0
 14 39  1  0
 15 40  1  0
 16 41  1  0
 16 42  1  0
 17 43  1  0
 17 44  1  0
M  CHG  1   3   1
M  END
>  <EmbedRMS>  (119) 
0.6861464654853324

$$$$

     RDKit          3D

 41 41  0  0  0  0  0  0  0  0999 V2000
    4.6460   11.6759    7.1724 C   0  0  0  0  0  0  0  0  0  0  0  0
    5.2633   11.4940    5.8659 N   0  0  0  0  0  0  0  0  0  0  0  0
    5.1493   10.2629    5.1439 C   0  0  0  0  0  0  0  0  0  0  0  0
    4.5014    9.2956    5.6277 O   0  0  0  0  0  0  0  0  0  0  0  0
    5.8086   10.1135    3.8127 C   0  0  0  0  0  0  0  0  0  0  0  0
    7.2095    9.6833    3.9371 N   0  0  0  0  0  0  0  0  0  0  0  0
    7.9808    9.5180    2.7350 C   0  0  0  0  0  0  0  0  0  0  0  0
    7.4142    9.6752    1.6244 O   0  0  0  0  0  0  0  0  0  0  0  0
    9.4440    9.1935    2.6630 C   0  0  0  0  0  0  0  0  0  0  0  0
    9.7658    7.7143    2.4337 C   0  0  0  0  0  0  0  0  0  0  0  0
   11.2644    7.3644    2.5408 C   0  0  0  0  0  0  0  0  0  0  0  0
   12.1433    8.5869    2.2329 C   0  0  0  0  0  0  0  0  0  0  0  0
   13.6544    8.3400    1.9332 C   0  0  0  0  0  0  0  0  0  0  0  0
   14.0135    7.0449    1.2245 C   0  0  0  0  0  0  0  0  0  0  0  0
   14.6174    8.7741    2.9396 N   0  0  0  0  0  4  0  0  0  0  0  0
   11.8904    9.6848    3.2864 C   0  0  0  0  0  0  0  0  0  0  0  0
   10.4058   10.0816    3.4356 C   0  0  0  0  0  0  0  0  0  0  0  0
    3.5459   11.5501    7.0899 H   0  0  0  0  0  0  0  0  0  0  0  0
    4.8632   12.6960    7.5536 H   0  0  0  0  0  0  0  0  0  0  0  0
    5.0530   10.9310    7.8883 H   0  0  0  0  0  0  0  0  0  0  0  0
    5.8124   12.2820    5.4541 H   0  0  0  0  0  0  0  0  0  0  0  0
    5.2457    9.3665    3.2110 H   0  0  0  0  0  0  0  0  0  0  0  0
    5.7655   11.0860    3.2759 H   0  0  0  0  0  0  0  0  0  0  0  0
    7.6527    9.5270    4.8705 H   0  0  0  0  0  0  0  0  0  0  0  0
    9.6833    9.5857    1.6449 H   0  0  0  0  0  0  0  0  0  0  0  0
    9.2152    7.1104    3.1876 H   0  0  0  0  0  0  0  0  0  0  0  0
    9.3851    7.3989    1.4351 H   0  0  0  0  0  0  0  0  0  0  0  0
   11.4740    6.5318    1.8378 H   0  0  0  0  0  0  0  0  0  0  0  0
   11.4952    7.0010    3.5664 H   0  0  0  0  0  0  0  0  0  0  0  0
   11.7498    8.9804    1.2663 H   0  0  0  0  0  0  0  0  0  0  0  0
   13.8441    9.0654    1.1031 H   0  0  0  0  0  0  0  0  0  0  0  0
   15.0584    7.0793    0.8474 H   0  0  0  0  0  0  0  0  0  0  0  0
   13.3402    6.8740    0.3569 H   0  0  0  0  0  0  0  0  0  0  0  0
   13.9243    6.1936    1.9314 H   0  0  0  0  0  0  0  0  0  0  0  0
   15.5927    8.5554    2.6308 H   0  0  0  0  0  0  0  0  0  0  0  0
   14.5660    9.8051    3.1020 H   0  0  0  0  0  0  0  0  0  0  0  0
   14.4336    8.2664    3.8348 H   0  0  0  0  0  0  0  0  0  0  0  0
   12.2736    9.3421    4.2727 H   0  0  0  0  0  0  0  0  0  0  0  0
   12.4550   10.5998    3.0047 H   0  0  0  0  0  0  0  0  0  0  0  0
   10.1351   10.0261    4.5122 H   0  0  0  0  0  0  0  0  0  0  0  0
   10.2667   11.1445    3.1312 H   0  0  0  0  0  0  0  0  0  0  0  0
  1  2  1  0
  2  3  1  0
  3  4  2  0
  3  5  1  0
  5  6  1  0
  6  7  1  0
  7  8  2  0
  7  9  1  0
  9 10  1  0
 10 11  1  0
 11 12  1  0
 12 13  1  0
 13 14  1  0
 13 15  1  0
 12 16  1  0
 16 17  1  0
 17  9  1  0
  1 18  1  0
  1 19  1  0
  1 20  1  0
  2 21  1  0
  5 22  1  0
  5 23  1  0
  6 24  1  0
  9 25  1  0
 10 26  1  0
 10 27  1  0
 11 28  1  0
 11 29  1  0
 12 30  1  0
 13 31  1  0
 14 32  1  0
 14 33  1  0
 14 34  1  0
 15 35  1  0
 15 36  1  0
 15 37  1  0
 16 38  1  0
 16 39  1  0
 17 40  1  0
 17 41  1  0
M  CHG  1  15   1
M  END
>  <EmbedRMS>  (120) 
0.2569057114362328

$$$$

     RDKit          3D

 44 44  0  0  0  0  0  0  0  0999 V2000
    4.9333    7.7036    4.1659 C   0  0  0  0  0  0  0  0  0  0  0  0
    4.9045    8.9524    3.2876 C   0  0  0  0  0  0  0  0  0  0  0  0
    5.7889   10.0958    3.8318 C   0  0  0  0  0  0  0  0  0  0  0  0
    5.2554   10.6197    5.1741 C   0  0  0  0  0  0  0  0  0  0  0  0
    5.8949   11.8171    5.5151 O   0  0  0  0  0  0  0  0  0  0  0  0
    7.2084    9.6835    3.9261 N   0  0  0  0  0  0  0  0  0  0  0  0
    7.9865    9.5387    2.7217 C   0  0  0  0  0  0  0  0  0  0  0  0
    7.4240    9.7057    1.6124 O   0  0  0  0  0  0  0  0  0  0  0  0
    9.4488    9.2029    2.6334 C   0  0  0  0  0  0  0  0  0  0  0  0
    9.7340    7.7231    2.5393 C   0  0  0  0  0  0  0  0  0  0  0  0
   11.1728    7.4155    2.1515 C   0  0  0  0  0  0  0  0  0  0  0  0
   12.2287    8.2935    2.8219 C   0  0  0  0  0  0  0  0  0  0  0  0
   13.7069    7.9211    2.4415 C   0  0  0  0  0  0  0  0  0  0  0  0
   13.9221    7.3284    1.0386 C   0  0  0  0  0  0  0  0  0  0  0  0
   14.6418    9.0269    2.6701 N   0  0  0  0  0  4  0  0  0  0  0  0
   11.8780    9.7842    2.9981 C   0  0  0  0  0  0  0  0  0  0  0  0
   10.4235   10.0508    3.4190 C   0  0  0  0  0  0  0  0  0  0  0  0
    5.9746    7.3444    4.3063 H   0  0  0  0  0  0  0  0  0  0  0  0
    4.4722    7.9040    5.1550 H   0  0  0  0  0  0  0  0  0  0  0  0
    4.3502    6.8964    3.6745 H   0  0  0  0  0  0  0  0  0  0  0  0
    5.2338    8.6711    2.2659 H   0  0  0  0  0  0  0  0  0  0  0  0
    3.8538    9.3048    3.1974 H   0  0  0  0  0  0  0  0  0  0  0  0
    5.7113   10.9391    3.1089 H   0  0  0  0  0  0  0  0  0  0  0  0
    4.1537   10.7806    5.1235 H   0  0  0  0  0  0  0  0  0  0  0  0
    5.4521    9.8795    5.9779 H   0  0  0  0  0  0  0  0  0  0  0  0
    5.4770   12.5314    4.9663 H   0  0  0  0  0  0  0  0  0  0  0  0
    7.6748    9.5698    4.8541 H   0  0  0  0  0  0  0  0  0  0  0  0
    9.7040    9.5341    1.5958 H   0  0  0  0  0  0  0  0  0  0  0  0
    9.0484    7.2406    1.8069 H   0  0  0  0  0  0  0  0  0  0  0  0
    9.5301    7.2694    3.5339 H   0  0  0  0  0  0  0  0  0  0  0  0
   11.2446    7.5635    1.0524 H   0  0  0  0  0  0  0  0  0  0  0  0
   11.3797    6.3423    2.3600 H   0  0  0  0  0  0  0  0  0  0  0  0
   12.1626    7.9504    3.8817 H   0  0  0  0  0  0  0  0  0  0  0  0
   14.0107    7.0969    3.1300 H   0  0  0  0  0  0  0  0  0  0  0  0
   13.5723    8.0450    0.2656 H   0  0  0  0  0  0  0  0  0  0  0  0
   14.9991    7.1183    0.8656 H   0  0  0  0  0  0  0  0  0  0  0  0
   13.3773    6.3679    0.9250 H   0  0  0  0  0  0  0  0  0  0  0  0
   14.4323    9.8277    2.0311 H   0  0  0  0  0  0  0  0  0  0  0  0
   14.5980    9.3365    3.6676 H   0  0  0  0  0  0  0  0  0  0  0  0
   15.6226    8.7091    2.4919 H   0  0  0  0  0  0  0  0  0  0  0  0
   12.0553   10.2954    2.0270 H   0  0  0  0  0  0  0  0  0  0  0  0
   12.5381   10.2610    3.7531 H   0  0  0  0  0  0  0  0  0  0  0  0
   10.3098    9.8097    4.4982 H   0  0  0  0  0  0  0  0  0  0  0  0
   10.1911   11.1305    3.2846 H   0  0  0  0  0  0  0  0  0  0  0  0
  1  2  1  0
  2  3  1  0
  3  4  1  0
  4  5  1  0
  3  6  1  0
  6  7  1  0
  7  8  2  0
  7  9  1  0
  9 10  1  0
 10 11  1  0
 11 12  1  0
 12 13  1  0
 13 14  1  0
 13 15  1  0
 12 16  1  0
 16 17  1  0
 17  9  1  0
  1 18  1  0
  1 19  1  0
  1 20  1  0
  2 21  1  0
  2 22  1  0
  3 23  1  0
  4 24  1  0
  4 25  1  0
  5 26  1  0
  6 27  1  0
  9 28  1  0
 10 29  1  0
 10 30  1  0
 11 31  1  0
 11 32  1  0
 12 33  1  0
 13 34  1  0
 14 35  1  0
 14 36  1  0
 14 37  1  0
 15 38  1  0
 15 39  1  0
 15 40  1  0
 16 41  1  0
 16 42  1  0
 17 43  1  0
 17 44  1  0
M  CHG  1  15   1
M  END
>  <EmbedRMS>  (121) 
0.2685532704936459

$$$$

     RDKit          3D

 44 44  0  0  0  0  0  0  0  0999 V2000
    6.3620   12.3940    2.6941 C   0  0  0  0  0  0  0  0  0  0  0  0
    5.7998   11.7355    3.9626 C   0  0  0  0  0  0  0  0  0  0  0  0
    4.3698   12.2342    4.2395 C   0  0  0  0  0  0  0  0  0  0  0  0
    3.5008   11.9006    3.1892 O   0  0  0  0  0  0  0  0  0  0  0  0
    5.8521   10.1921    3.8973 C   0  0  0  0  0  0  0  0  0  0  0  0
    7.2407    9.7034    3.9333 N   0  0  0  0  0  0  0  0  0  0  0  0
    7.9901    9.5297    2.7189 C   0  0  0  0  0  0  0  0  0  0  0  0
    7.4071    9.6684    1.6167 O   0  0  0  0  0  0  0  0  0  0  0  0
    9.4514    9.2025    2.6217 C   0  0  0  0  0  0  0  0  0  0  0  0
    9.7372    7.7228    2.5346 C   0  0  0  0  0  0  0  0  0  0  0  0
   11.1755    7.4150    2.1495 C   0  0  0  0  0  0  0  0  0  0  0  0
   12.2298    8.2936    2.8210 C   0  0  0  0  0  0  0  0  0  0  0  0
   13.7080    7.9213    2.4415 C   0  0  0  0  0  0  0  0  0  0  0  0
   13.9238    7.3284    1.0388 C   0  0  0  0  0  0  0  0  0  0  0  0
   14.6425    9.0273    2.6703 N   0  0  0  0  0  4  0  0  0  0  0  0
   11.8785    9.7844    2.9957 C   0  0  0  0  0  0  0  0  0  0  0  0
   10.4230   10.0508    3.4119 C   0  0  0  0  0  0  0  0  0  0  0  0
    7.4550   12.2179    2.6197 H   0  0  0  0  0  0  0  0  0  0  0  0
    6.2094   13.4939    2.7306 H   0  0  0  0  0  0  0  0  0  0  0  0
    5.8646   11.9949    1.7846 H   0  0  0  0  0  0  0  0  0  0  0  0
    6.4294   12.0622    4.8202 H   0  0  0  0  0  0  0  0  0  0  0  0
    4.3761   13.3359    4.4126 H   0  0  0  0  0  0  0  0  0  0  0  0
    3.9900   11.7694    5.1743 H   0  0  0  0  0  0  0  0  0  0  0  0
    3.5319   12.6494    2.5383 H   0  0  0  0  0  0  0  0  0  0  0  0
    5.3205    9.7727    4.7789 H   0  0  0  0  0  0  0  0  0  0  0  0
    5.3212    9.8151    2.9959 H   0  0  0  0  0  0  0  0  0  0  0  0
    7.7200    9.5855    4.8537 H   0  0  0  0  0  0  0  0  0  0  0  0
    9.7010    9.5353    1.5834 H   0  0  0  0  0  0  0  0  0  0  0  0
    9.5332    7.2728    3.5307 H   0  0  0  0  0  0  0  0  0  0  0  0
    9.0532    7.2367    1.8030 H   0  0  0  0  0  0  0  0  0  0  0  0
   11.2487    7.5623    1.0504 H   0  0  0  0  0  0  0  0  0  0  0  0
   11.3822    6.3420    2.3591 H   0  0  0  0  0  0  0  0  0  0  0  0
   12.1628    7.9510    3.8809 H   0  0  0  0  0  0  0  0  0  0  0  0
   14.0116    7.0974    3.1303 H   0  0  0  0  0  0  0  0  0  0  0  0
   13.3798    6.3675    0.9252 H   0  0  0  0  0  0  0  0  0  0  0  0
   13.5739    8.0446    0.2655 H   0  0  0  0  0  0  0  0  0  0  0  0
   15.0010    7.1190    0.8660 H   0  0  0  0  0  0  0  0  0  0  0  0
   14.5976    9.3377    3.6676 H   0  0  0  0  0  0  0  0  0  0  0  0
   14.4338    9.8276    2.0305 H   0  0  0  0  0  0  0  0  0  0  0  0
   15.6235    8.7094    2.4935 H   0  0  0  0  0  0  0  0  0  0  0  0
   12.0583   10.2953    2.0250 H   0  0  0  0  0  0  0  0  0  0  0  0
   12.5365   10.2615    3.7525 H   0  0  0  0  0  0  0  0  0  0  0  0
   10.1902   11.1304    3.2766 H   0  0  0  0  0  0  0  0  0  0  0  0
   10.3064    9.8095    4.4906 H   0  0  0  0  0  0  0  0  0  0  0  0
  1  2  1  0
  2  3  1  0
  3  4  1  0
  2  5  1  0
  5  6  1  0
  6  7  1  0
  7  8  2  0
  7  9  1  0
  9 10  1  0
 10 11  1  0
 11 12  1  0
 12 13  1  0
 13 14  1  0
 13 15  1  0
 12 16  1  0
 16 17  1  0
 17  9  1  0
  1 18  1  0
  1 19  1  0
  1 20  1  0
  2 21  1  0
  3 22  1  0
  3 23  1  0
  4 24  1  0
  5 25  1  0
  5 26  1  0
  6 27  1  0
  9 28  1  0
 10 29  1  0
 10 30  1  0
 11 31  1  0
 11 32  1  0
 12 33  1  0
 13 34  1  0
 14 35  1  0
 14 36  1  0
 14 37  1  0
 15 38  1  0
 15 39  1  0
 15 40  1  0
 16 41  1  0
 16 42  1  0
 17 43  1  0
 17 44  1  0
M  CHG  1  15   1
M  END
>  <EmbedRMS>  (122) 
0.2703813095472554

$$$$

     RDKit          3D

 38 38  0  0  0  0  0  0  0  0999 V2000
   14.0281    7.0397    1.2343 C   0  0  0  0  0  0  0  0  0  0  0  0
   13.6693    8.3364    1.9396 C   0  0  0  0  0  0  0  0  0  0  0  0
   14.6134    8.7687    2.9623 N   0  0  0  0  0  4  0  0  0  0  0  0
   12.1578    8.5899    2.2120 C   0  0  0  0  0  0  0  0  0  0  0  0
   11.2405    7.3772    2.4519 C   0  0  0  0  0  0  0  0  0  0  0  0
    9.7885    7.8243    2.2114 C   0  0  0  0  0  0  0  0  0  0  0  0
    9.4114    8.9838    3.1519 C   0  0  0  0  0  0  0  0  0  0  0  0
    8.0137    9.4644    2.8764 C   0  0  0  0  0  0  0  0  0  0  0  0
    7.6236    9.6755    1.6931 O   0  0  0  0  0  0  0  0  0  0  0  0
    7.1388    9.7055    3.9791 N   0  0  0  0  0  0  0  0  0  0  0  0
    5.7610   10.1385    3.7918 C   0  0  0  0  0  0  0  0  0  0  0  0
    5.0964   10.2807    5.1228 C   0  0  0  0  0  0  0  0  0  0  0  0
    5.2137   11.4974    5.8582 N   0  0  0  0  0  0  0  0  0  0  0  0
    4.4940    9.2972    5.6288 O   0  0  0  0  0  0  0  0  0  0  0  0
   10.4061   10.1586    3.0871 C   0  0  0  0  0  0  0  0  0  0  0  0
   11.8556    9.6808    3.2542 C   0  0  0  0  0  0  0  0  0  0  0  0
   13.3771    6.8823    0.3473 H   0  0  0  0  0  0  0  0  0  0  0  0
   13.9078    6.1867    1.9346 H   0  0  0  0  0  0  0  0  0  0  0  0
   15.0832    7.0603    0.8857 H   0  0  0  0  0  0  0  0  0  0  0  0
   13.8831    9.0582    1.1114 H   0  0  0  0  0  0  0  0  0  0  0  0
   15.5896    8.5022    2.6974 H   0  0  0  0  0  0  0  0  0  0  0  0
   14.3777    8.3021    3.8677 H   0  0  0  0  0  0  0  0  0  0  0  0
   14.5961    9.8060    3.0881 H   0  0  0  0  0  0  0  0  0  0  0  0
   11.8027    9.0089    1.2373 H   0  0  0  0  0  0  0  0  0  0  0  0
   11.3695    6.9868    3.4852 H   0  0  0  0  0  0  0  0  0  0  0  0
   11.4632    6.5568    1.7395 H   0  0  0  0  0  0  0  0  0  0  0  0
    9.6589    8.1233    1.1472 H   0  0  0  0  0  0  0  0  0  0  0  0
    9.1130    6.9617    2.4019 H   0  0  0  0  0  0  0  0  0  0  0  0
    9.4464    8.5784    4.1883 H   0  0  0  0  0  0  0  0  0  0  0  0
    7.5087    9.5678    4.9482 H   0  0  0  0  0  0  0  0  0  0  0  0
    5.7440   11.1125    3.2573 H   0  0  0  0  0  0  0  0  0  0  0  0
    5.2145    9.3890    3.1791 H   0  0  0  0  0  0  0  0  0  0  0  0
    5.7459   12.3067    5.4681 H   0  0  0  0  0  0  0  0  0  0  0  0
    4.7721   11.5883    6.8000 H   0  0  0  0  0  0  0  0  0  0  0  0
   10.1715   10.8883    3.8929 H   0  0  0  0  0  0  0  0  0  0  0  0
   10.3032   10.6869    2.1126 H   0  0  0  0  0  0  0  0  0  0  0  0
   12.5086   10.5642    3.0949 H   0  0  0  0  0  0  0  0  0  0  0  0
   12.0204    9.2949    4.2840 H   0  0  0  0  0  0  0  0  0  0  0  0
  1  2  1  0
  2  3  1  0
  2  4  1  0
  4  5  1  0
  5  6  1  0
  6  7  1  0
  7  8  1  0
  8  9  2  0
  8 10  1  0
 10 11  1  0
 11 12  1  0
 12 13  1  0
 12 14  2  0
  7 15  1  0
 15 16  1  0
 16  4  1  0
  1 17  1  0
  1 18  1  0
  1 19  1  0
  2 20  1  0
  3 21  1  0
  3 22  1  0
  3 23  1  0
  4 24  1  0
  5 25  1  0
  5 26  1  0
  6 27  1  0
  6 28  1  0
  7 29  1  0
 10 30  1  0
 11 31  1  0
 11 32  1  0
 13 33  1  0
 13 34  1  0
 15 35  1  0
 15 36  1  0
 16 37  1  0
 16 38  1  0
M  CHG  1   3   1
M  END
>  <EmbedRMS>  (123) 
0.1933160619529778

$$$$

     RDKit          3D

 44 44  0  0  0  0  0  0  0  0999 V2000
    6.3620   12.3940    2.6941 C   0  0  0  0  0  0  0  0  0  0  0  0
    5.7998   11.7355    3.9626 C   0  0  0  0  0  0  0  0  0  0  0  0
    4.3698   12.2342    4.2395 C   0  0  0  0  0  0  0  0  0  0  0  0
    3.5008   11.9006    3.1892 O   0  0  0  0  0  0  0  0  0  0  0  0
    5.8521   10.1921    3.8973 C   0  0  0  0  0  0  0  0  0  0  0  0
    7.2407    9.7034    3.9333 N   0  0  0  0  0  0  0  0  0  0  0  0
    7.9901    9.5297    2.7189 C   0  0  0  0  0  0  0  0  0  0  0  0
    7.4071    9.6684    1.6167 O   0  0  0  0  0  0  0  0  0  0  0  0
    9.4514    9.2025    2.6217 C   0  0  0  0  0  0  0  0  0  0  0  0
    9.7372    7.7228    2.5346 C   0  0  0  0  0  0  0  0  0  0  0  0
   11.1755    7.4150    2.1495 C   0  0  0  0  0  0  0  0  0  0  0  0
   12.2298    8.2936    2.8210 C   0  0  0  0  0  0  0  0  0  0  0  0
   13.7080    7.9213    2.4415 C   0  0  0  0  0  0  0  0  0  0  0  0
   13.9238    7.3284    1.0388 C   0  0  0  0  0  0  0  0  0  0  0  0
   14.6425    9.0273    2.6703 N   0  0  0  0  0  4  0  0  0  0  0  0
   11.8785    9.7844    2.9957 C   0  0  0  0  0  0  0  0  0  0  0  0
   10.4230   10.0508    3.4119 C   0  0  0  0  0  0  0  0  0  0  0  0
    7.4550   12.2179    2.6197 H   0  0  0  0  0  0  0  0  0  0  0  0
    6.2094   13.4939    2.7306 H   0  0  0  0  0  0  0  0  0  0  0  0
    5.8646   11.9949    1.7846 H   0  0  0  0  0  0  0  0  0  0  0  0
    6.4294   12.0622    4.8202 H   0  0  0  0  0  0  0  0  0  0  0  0
    4.3761   13.3359    4.4126 H   0  0  0  0  0  0  0  0  0  0  0  0
    3.9900   11.7694    5.1743 H   0  0  0  0  0  0  0  0  0  0  0  0
    3.5319   12.6494    2.5383 H   0  0  0  0  0  0  0  0  0  0  0  0
    5.3205    9.7727    4.7789 H   0  0  0  0  0  0  0  0  0  0  0  0
    5.3212    9.8151    2.9959 H   0  0  0  0  0  0  0  0  0  0  0  0
    7.7200    9.5855    4.8537 H   0  0  0  0  0  0  0  0  0  0  0  0
    9.7010    9.5353    1.5834 H   0  0  0  0  0  0  0  0  0  0  0  0
    9.5332    7.2728    3.5307 H   0  0  0  0  0  0  0  0  0  0  0  0
    9.0532    7.2367    1.8030 H   0  0  0  0  0  0  0  0  0  0  0  0
   11.2487    7.5623    1.0504 H   0  0  0  0  0  0  0  0  0  0  0  0
   11.3822    6.3420    2.3591 H   0  0  0  0  0  0  0  0  0  0  0  0
   12.1628    7.9510    3.8809 H   0  0  0  0  0  0  0  0  0  0  0  0
   14.0116    7.0974    3.1303 H   0  0  0  0  0  0  0  0  0  0  0  0
   13.3798    6.3675    0.9252 H   0  0  0  0  0  0  0  0  0  0  0  0
   13.5739    8.0446    0.2655 H   0  0  0  0  0  0  0  0  0  0  0  0
   15.0010    7.1190    0.8660 H   0  0  0  0  0  0  0  0  0  0  0  0
   14.5976    9.3377    3.6676 H   0  0  0  0  0  0  0  0  0  0  0  0
   14.4338    9.8276    2.0305 H   0  0  0  0  0  0  0  0  0  0  0  0
   15.6235    8.7094    2.4935 H   0  0  0  0  0  0  0  0  0  0  0  0
   12.0583   10.2953    2.0250 H   0  0  0  0  0  0  0  0  0  0  0  0
   12.5365   10.2615    3.7525 H   0  0  0  0  0  0  0  0  0  0  0  0
   10.1902   11.1304    3.2766 H   0  0  0  0  0  0  0  0  0  0  0  0
   10.3064    9.8095    4.4906 H   0  0  0  0  0  0  0  0  0  0  0  0
  1  2  1  0
  2  3  1  0
  3  4  1  0
  2  5  1  0
  5  6  1  0
  6  7  1  0
  7  8  2  0
  7  9  1  0
  9 10  1  0
 10 11  1  0
 11 12  1  0
 12 13  1  0
 13 14  1  0
 13 15  1  0
 12 16  1  0
 16 17  1  0
 17  9  1  0
  1 18  1  0
  1 19  1  0
  1 20  1  0
  2 21  1  0
  3 22  1  0
  3 23  1  0
  4 24  1  0
  5 25  1  0
  5 26  1  0
  6 27  1  0
  9 28  1  0
 10 29  1  0
 10 30  1  0
 11 31  1  0
 11 32  1  0
 12 33  1  0
 13 34  1  0
 14 35  1  0
 14 36  1  0
 14 37  1  0
 15 38  1  0
 15 39  1  0
 15 40  1  0
 16 41  1  0
 16 42  1  0
 17 43  1  0
 17 44  1  0
M  CHG  1  15   1
M  END
>  <EmbedRMS>  (124) 
0.2703813095472554

$$$$

     RDKit          3D

 38 38  0  0  0  0  0  0  0  0999 V2000
   14.0281    7.0397    1.2343 C   0  0  0  0  0  0  0  0  0  0  0  0
   13.6693    8.3364    1.9396 C   0  0  0  0  0  0  0  0  0  0  0  0
   14.6134    8.7687    2.9623 N   0  0  0  0  0  4  0  0  0  0  0  0
   12.1578    8.5899    2.2120 C   0  0  0  0  0  0  0  0  0  0  0  0
   11.2405    7.3772    2.4519 C   0  0  0  0  0  0  0  0  0  0  0  0
    9.7885    7.8243    2.2114 C   0  0  0  0  0  0  0  0  0  0  0  0
    9.4114    8.9838    3.1519 C   0  0  0  0  0  0  0  0  0  0  0  0
    8.0137    9.4644    2.8764 C   0  0  0  0  0  0  0  0  0  0  0  0
    7.6236    9.6755    1.6931 O   0  0  0  0  0  0  0  0  0  0  0  0
    7.1388    9.7055    3.9791 N   0  0  0  0  0  0  0  0  0  0  0  0
    5.7610   10.1385    3.7918 C   0  0  0  0  0  0  0  0  0  0  0  0
    5.0964   10.2807    5.1228 C   0  0  0  0  0  0  0  0  0  0  0  0
    5.2137   11.4974    5.8582 N   0  0  0  0  0  0  0  0  0  0  0  0
    4.4940    9.2972    5.6288 O   0  0  0  0  0  0  0  0  0  0  0  0
   10.4061   10.1586    3.0871 C   0  0  0  0  0  0  0  0  0  0  0  0
   11.8556    9.6808    3.2542 C   0  0  0  0  0  0  0  0  0  0  0  0
   13.3771    6.8823    0.3473 H   0  0  0  0  0  0  0  0  0  0  0  0
   13.9078    6.1867    1.9346 H   0  0  0  0  0  0  0  0  0  0  0  0
   15.0832    7.0603    0.8857 H   0  0  0  0  0  0  0  0  0  0  0  0
   13.8831    9.0582    1.1114 H   0  0  0  0  0  0  0  0  0  0  0  0
   15.5896    8.5022    2.6974 H   0  0  0  0  0  0  0  0  0  0  0  0
   14.3777    8.3021    3.8677 H   0  0  0  0  0  0  0  0  0  0  0  0
   14.5961    9.8060    3.0881 H   0  0  0  0  0  0  0  0  0  0  0  0
   11.8027    9.0089    1.2373 H   0  0  0  0  0  0  0  0  0  0  0  0
   11.3695    6.9868    3.4852 H   0  0  0  0  0  0  0  0  0  0  0  0
   11.4632    6.5568    1.7395 H   0  0  0  0  0  0  0  0  0  0  0  0
    9.6589    8.1233    1.1472 H   0  0  0  0  0  0  0  0  0  0  0  0
    9.1130    6.9617    2.4019 H   0  0  0  0  0  0  0  0  0  0  0  0
    9.4464    8.5784    4.1883 H   0  0  0  0  0  0  0  0  0  0  0  0
    7.5087    9.5678    4.9482 H   0  0  0  0  0  0  0  0  0  0  0  0
    5.7440   11.1125    3.2573 H   0  0  0  0  0  0  0  0  0  0  0  0
    5.2145    9.3890    3.1791 H   0  0  0  0  0  0  0  0  0  0  0  0
    5.7459   12.3067    5.4681 H   0  0  0  0  0  0  0  0  0  0  0  0
    4.7721   11.5883    6.8000 H   0  0  0  0  0  0  0  0  0  0  0  0
   10.1715   10.8883    3.8929 H   0  0  0  0  0  0  0  0  0  0  0  0
   10.3032   10.6869    2.1126 H   0  0  0  0  0  0  0  0  0  0  0  0
   12.5086   10.5642    3.0949 H   0  0  0  0  0  0  0  0  0  0  0  0
   12.0204    9.2949    4.2840 H   0  0  0  0  0  0  0  0  0  0  0  0
  1  2  1  0
  2  3  1  0
  2  4  1  0
  4  5  1  0
  5  6  1  0
  6  7  1  0
  7  8  1  0
  8  9  2  0
  8 10  1  0
 10 11  1  0
 11 12  1  0
 12 13  1  0
 12 14  2  0
  7 15  1  0
 15 16  1  0
 16  4  1  0
  1 17  1  0
  1 18  1  0
  1 19  1  0
  2 20  1  0
  3 21  1  0
  3 22  1  0
  3 23  1  0
  4 24  1  0
  5 25  1  0
  5 26  1  0
  6 27  1  0
  6 28  1  0
  7 29  1  0
 10 30  1  0
 11 31  1  0
 11 32  1  0
 13 33  1  0
 13 34  1  0
 15 35  1  0
 15 36  1  0
 16 37  1  0
 16 38  1  0
M  CHG  1   3   1
M  END
>  <EmbedRMS>  (125) 
0.1933160619529778

$$$$

     RDKit          3D

 41 41  0  0  0  0  0  0  0  0999 V2000
    4.7824    8.9559    5.8409 C   0  0  0  0  0  0  0  0  0  0  0  0
    5.0144   10.2984    5.1523 C   0  0  0  0  0  0  0  0  0  0  0  0
    5.6599   11.2405    6.0653 N   0  0  0  0  0  0  0  0  0  0  0  0
    5.8215   10.1204    3.8938 C   0  0  0  0  0  0  0  0  0  0  0  0
    5.2575   10.3666    2.7911 O   0  0  0  0  0  0  0  0  0  0  0  0
    7.2017    9.6751    3.9335 N   0  0  0  0  0  0  0  0  0  0  0  0
    7.9778    9.5187    2.7289 C   0  0  0  0  0  0  0  0  0  0  0  0
    7.4230    9.6729    1.6132 O   0  0  0  0  0  0  0  0  0  0  0  0
    9.4425    9.1931    2.6631 C   0  0  0  0  0  0  0  0  0  0  0  0
    9.7648    7.7140    2.4339 C   0  0  0  0  0  0  0  0  0  0  0  0
   11.2637    7.3644    2.5412 C   0  0  0  0  0  0  0  0  0  0  0  0
   12.1426    8.5869    2.2333 C   0  0  0  0  0  0  0  0  0  0  0  0
   13.6538    8.3402    1.9337 C   0  0  0  0  0  0  0  0  0  0  0  0
   14.0131    7.0452    1.2248 C   0  0  0  0  0  0  0  0  0  0  0  0
   14.6168    8.7743    2.9401 N   0  0  0  0  0  4  0  0  0  0  0  0
   11.8890    9.6851    3.2867 C   0  0  0  0  0  0  0  0  0  0  0  0
   10.4039   10.0811    3.4364 C   0  0  0  0  0  0  0  0  0  0  0  0
    5.7455    8.4990    6.1537 H   0  0  0  0  0  0  0  0  0  0  0  0
    4.2590    8.2579    5.1527 H   0  0  0  0  0  0  0  0  0  0  0  0
    4.1494    9.0999    6.7422 H   0  0  0  0  0  0  0  0  0  0  0  0
    4.0151   10.7106    4.8852 H   0  0  0  0  0  0  0  0  0  0  0  0
    5.8040   12.1490    5.5664 H   0  0  0  0  0  0  0  0  0  0  0  0
    6.6008   10.8824    6.3474 H   0  0  0  0  0  0  0  0  0  0  0  0
    7.6561    9.4629    4.8487 H   0  0  0  0  0  0  0  0  0  0  0  0
    9.6864    9.5850    1.6460 H   0  0  0  0  0  0  0  0  0  0  0  0
    9.3845    7.3985    1.4351 H   0  0  0  0  0  0  0  0  0  0  0  0
    9.2142    7.1101    3.1876 H   0  0  0  0  0  0  0  0  0  0  0  0
   11.4736    6.5318    1.8383 H   0  0  0  0  0  0  0  0  0  0  0  0
   11.4943    7.0011    3.5668 H   0  0  0  0  0  0  0  0  0  0  0  0
   11.7495    8.9800    1.2665 H   0  0  0  0  0  0  0  0  0  0  0  0
   13.8435    9.0657    1.1036 H   0  0  0  0  0  0  0  0  0  0  0  0
   13.3399    6.8743    0.3572 H   0  0  0  0  0  0  0  0  0  0  0  0
   15.0581    7.0797    0.8478 H   0  0  0  0  0  0  0  0  0  0  0  0
   13.9240    6.1938    1.9317 H   0  0  0  0  0  0  0  0  0  0  0  0
   15.5922    8.5565    2.6309 H   0  0  0  0  0  0  0  0  0  0  0  0
   14.5646    9.8052    3.1031 H   0  0  0  0  0  0  0  0  0  0  0  0
   14.4335    8.2659    3.8349 H   0  0  0  0  0  0  0  0  0  0  0  0
   12.2728    9.3429    4.2730 H   0  0  0  0  0  0  0  0  0  0  0  0
   12.4531   10.6004    3.0046 H   0  0  0  0  0  0  0  0  0  0  0  0
   10.2643   11.1443    3.1331 H   0  0  0  0  0  0  0  0  0  0  0  0
   10.1329   10.0246    4.5129 H   0  0  0  0  0  0  0  0  0  0  0  0
  1  2  1  0
  2  3  1  0
  2  4  1  0
  4  5  2  0
  4  6  1  0
  6  7  1  0
  7  8  2  0
  7  9  1  0
  9 10  1  0
 10 11  1  0
 11 12  1  0
 12 13  1  0
 13 14  1  0
 13 15  1  0
 12 16  1  0
 16 17  1  0
 17  9  1  0
  1 18  1  0
  1 19  1  0
  1 20  1  0
  2 21  1  0
  3 22  1  0
  3 23  1  0
  6 24  1  0
  9 25  1  0
 10 26  1  0
 10 27  1  0
 11 28  1  0
 11 29  1  0
 12 30  1  0
 13 31  1  0
 14 32  1  0
 14 33  1  0
 14 34  1  0
 15 35  1  0
 15 36  1  0
 15 37  1  0
 16 38  1  0
 16 39  1  0
 17 40  1  0
 17 41  1  0
M  CHG  1  15   1
M  END
>  <EmbedRMS>  (126) 
0.2569854509941921

$$$$

     RDKit          3D

 41 41  0  0  0  0  0  0  0  0999 V2000
    4.6460   11.6759    7.1724 C   0  0  0  0  0  0  0  0  0  0  0  0
    5.2633   11.4940    5.8659 N   0  0  0  0  0  0  0  0  0  0  0  0
    5.1493   10.2629    5.1439 C   0  0  0  0  0  0  0  0  0  0  0  0
    4.5014    9.2956    5.6277 O   0  0  0  0  0  0  0  0  0  0  0  0
    5.8086   10.1135    3.8127 C   0  0  0  0  0  0  0  0  0  0  0  0
    7.2095    9.6833    3.9371 N   0  0  0  0  0  0  0  0  0  0  0  0
    7.9808    9.5180    2.7350 C   0  0  0  0  0  0  0  0  0  0  0  0
    7.4142    9.6752    1.6244 O   0  0  0  0  0  0  0  0  0  0  0  0
    9.4440    9.1935    2.6630 C   0  0  0  0  0  0  0  0  0  0  0  0
    9.7658    7.7143    2.4337 C   0  0  0  0  0  0  0  0  0  0  0  0
   11.2644    7.3644    2.5408 C   0  0  0  0  0  0  0  0  0  0  0  0
   12.1433    8.5869    2.2329 C   0  0  0  0  0  0  0  0  0  0  0  0
   13.6544    8.3400    1.9332 C   0  0  0  0  0  0  0  0  0  0  0  0
   14.0135    7.0449    1.2245 C   0  0  0  0  0  0  0  0  0  0  0  0
   14.6174    8.7741    2.9396 N   0  0  0  0  0  4  0  0  0  0  0  0
   11.8904    9.6848    3.2864 C   0  0  0  0  0  0  0  0  0  0  0  0
   10.4058   10.0816    3.4356 C   0  0  0  0  0  0  0  0  0  0  0  0
    3.5459   11.5501    7.0899 H   0  0  0  0  0  0  0  0  0  0  0  0
    4.8632   12.6960    7.5536 H   0  0  0  0  0  0  0  0  0  0  0  0
    5.0530   10.9310    7.8883 H   0  0  0  0  0  0  0  0  0  0  0  0
    5.8124   12.2820    5.4541 H   0  0  0  0  0  0  0  0  0  0  0  0
    5.2457    9.3665    3.2110 H   0  0  0  0  0  0  0  0  0  0  0  0
    5.7655   11.0860    3.2759 H   0  0  0  0  0  0  0  0  0  0  0  0
    7.6527    9.5270    4.8705 H   0  0  0  0  0  0  0  0  0  0  0  0
    9.6833    9.5857    1.6449 H   0  0  0  0  0  0  0  0  0  0  0  0
    9.2152    7.1104    3.1876 H   0  0  0  0  0  0  0  0  0  0  0  0
    9.3851    7.3989    1.4351 H   0  0  0  0  0  0  0  0  0  0  0  0
   11.4740    6.5318    1.8378 H   0  0  0  0  0  0  0  0  0  0  0  0
   11.4952    7.0010    3.5664 H   0  0  0  0  0  0  0  0  0  0  0  0
   11.7498    8.9804    1.2663 H   0  0  0  0  0  0  0  0  0  0  0  0
   13.8441    9.0654    1.1031 H   0  0  0  0  0  0  0  0  0  0  0  0
   15.0584    7.0793    0.8474 H   0  0  0  0  0  0  0  0  0  0  0  0
   13.3402    6.8740    0.3569 H   0  0  0  0  0  0  0  0  0  0  0  0
   13.9243    6.1936    1.9314 H   0  0  0  0  0  0  0  0  0  0  0  0
   15.5927    8.5554    2.6308 H   0  0  0  0  0  0  0  0  0  0  0  0
   14.5660    9.8051    3.1020 H   0  0  0  0  0  0  0  0  0  0  0  0
   14.4336    8.2664    3.8348 H   0  0  0  0  0  0  0  0  0  0  0  0
   12.2736    9.3421    4.2727 H   0  0  0  0  0  0  0  0  0  0  0  0
   12.4550   10.5998    3.0047 H   0  0  0  0  0  0  0  0  0  0  0  0
   10.1351   10.0261    4.5122 H   0  0  0  0  0  0  0  0  0  0  0  0
   10.2667   11.1445    3.1312 H   0  0  0  0  0  0  0  0  0  0  0  0
  1  2  1  0
  2  3  1  0
  3  4  2  0
  3  5  1  0
  5  6  1  0
  6  7  1  0
  7  8  2  0
  7  9  1  0
  9 10  1  0
 10 11  1  0
 11 12  1  0
 12 13  1  0
 13 14  1  0
 13 15  1  0
 12 16  1  0
 16 17  1  0
 17  9  1  0
  1 18  1  0
  1 19  1  0
  1 20  1  0
  2 21  1  0
  5 22  1  0
  5 23  1  0
  6 24  1  0
  9 25  1  0
 10 26  1  0
 10 27  1  0
 11 28  1  0
 11 29  1  0
 12 30  1  0
 13 31  1  0
 14 32  1  0
 14 33  1  0
 14 34  1  0
 15 35  1  0
 15 36  1  0
 15 37  1  0
 16 38  1  0
 16 39  1  0
 17 40  1  0
 17 41  1  0
M  CHG  1  15   1
M  END
>  <EmbedRMS>  (127) 
0.2569057114362328

$$$$

     RDKit          3D

 44 44  0  0  0  0  0  0  0  0999 V2000
   14.0122    7.0504    1.2528 C   0  0  0  0  0  0  0  0  0  0  0  0
   13.6014    8.3242    1.9895 C   0  0  0  0  0  0  0  0  0  0  0  0
   14.7031    8.8917    2.7695 N   0  0  0  0  0  4  0  0  0  0  0  0
   12.2621    8.3269    2.7668 C   0  0  0  0  0  0  0  0  0  0  0  0
   11.1808    7.4388    2.1343 C   0  0  0  0  0  0  0  0  0  0  0  0
    9.7461    7.7259    2.5428 C   0  0  0  0  0  0  0  0  0  0  0  0
    9.4521    9.2015    2.6313 C   0  0  0  0  0  0  0  0  0  0  0  0
    7.9916    9.5235    2.7203 C   0  0  0  0  0  0  0  0  0  0  0  0
    7.4126    9.6688    1.6167 O   0  0  0  0  0  0  0  0  0  0  0  0
    7.2400    9.6875    3.9339 N   0  0  0  0  0  0  0  0  0  0  0  0
    5.8476   10.1523    3.8888 C   0  0  0  0  0  0  0  0  0  0  0  0
    5.7866   11.6348    3.4787 C   0  0  0  0  0  0  0  0  0  0  0  0
    4.3465   12.1386    3.3126 C   0  0  0  0  0  0  0  0  0  0  0  0
    3.6290   12.3298    4.6495 C   0  0  0  0  0  0  0  0  0  0  0  0
    4.2413   13.3567    5.3785 O   0  0  0  0  0  0  0  0  0  0  0  0
   10.3855   10.0198    3.4797 C   0  0  0  0  0  0  0  0  0  0  0  0
   11.8500    9.7805    3.1211 C   0  0  0  0  0  0  0  0  0  0  0  0
   13.2687    6.7646    0.4806 H   0  0  0  0  0  0  0  0  0  0  0  0
   14.1172    6.2175    1.9793 H   0  0  0  0  0  0  0  0  0  0  0  0
   14.9842    7.1925    0.7340 H   0  0  0  0  0  0  0  0  0  0  0  0
   13.4373    9.0283    1.1407 H   0  0  0  0  0  0  0  0  0  0  0  0
   14.8388    8.3412    3.6483 H   0  0  0  0  0  0  0  0  0  0  0  0
   15.5925    8.8677    2.2196 H   0  0  0  0  0  0  0  0  0  0  0  0
   14.5205    9.8921    3.0080 H   0  0  0  0  0  0  0  0  0  0  0  0
   12.4694    7.8404    3.7467 H   0  0  0  0  0  0  0  0  0  0  0  0
   11.4072    6.3663    2.3242 H   0  0  0  0  0  0  0  0  0  0  0  0
   11.2151    7.5901    1.0331 H   0  0  0  0  0  0  0  0  0  0  0  0
    9.0562    7.2342    1.8205 H   0  0  0  0  0  0  0  0  0  0  0  0
    9.5628    7.2727    3.5415 H   0  0  0  0  0  0  0  0  0  0  0  0
    9.7228    9.5602    1.6072 H   0  0  0  0  0  0  0  0  0  0  0  0
    7.6837    9.4625    4.8522 H   0  0  0  0  0  0  0  0  0  0  0  0
    5.2667    9.5248    3.1781 H   0  0  0  0  0  0  0  0  0  0  0  0
    5.4038   10.0240    4.8977 H   0  0  0  0  0  0  0  0  0  0  0  0
    6.3284   12.2520    4.2280 H   0  0  0  0  0  0  0  0  0  0  0  0
    6.3039   11.7726    2.5063 H   0  0  0  0  0  0  0  0  0  0  0  0
    3.7695   11.4279    2.6816 H   0  0  0  0  0  0  0  0  0  0  0  0
    4.3660   13.1138    2.7785 H   0  0  0  0  0  0  0  0  0  0  0  0
    3.6223   11.3875    5.2378 H   0  0  0  0  0  0  0  0  0  0  0  0
    2.5718   12.6091    4.4429 H   0  0  0  0  0  0  0  0  0  0  0  0
    3.7359   13.4294    6.2295 H   0  0  0  0  0  0  0  0  0  0  0  0
   10.1480   11.1029    3.3827 H   0  0  0  0  0  0  0  0  0  0  0  0
   10.2298    9.7354    4.5431 H   0  0  0  0  0  0  0  0  0  0  0  0
   12.4697   10.1514    3.9664 H   0  0  0  0  0  0  0  0  0  0  0  0
   12.0674   10.4408    2.2526 H   0  0  0  0  0  0  0  0  0  0  0  0
  1  2  1  0
  2  3  1  0
  2  4  1  0
  4  5  1  0
  5  6  1  0
  6  7  1  0
  7  8  1  0
  8  9  2  0
  8 10  1  0
 10 11  1  0
 11 12  1  0
 12 13  1  0
 13 14  1  0
 14 15  1  0
  7 16  1  0
 16 17  1  0
 17  4  1  0
  1 18  1  0
  1 19  1  0
  1 20  1  0
  2 21  1  0
  3 22  1  0
  3 23  1  0
  3 24  1  0
  4 25  1  0
  5 26  1  0
  5 27  1  0
  6 28  1  0
  6 29  1  0
  7 30  1  0
 10 31  1  0
 11 32  1  0
 11 33  1  0
 12 34  1  0
 12 35  1  0
 13 36  1  0
 13 37  1  0
 14 38  1  0
 14 39  1  0
 15 40  1  0
 16 41  1  0
 16 42  1  0
 17 43  1  0
 17 44  1  0
M  CHG  1   3   1
M  END
>  <EmbedRMS>  (128) 
0.3028787039700591

$$$$

     RDKit          3D

 41 41  0  0  0  0  0  0  0  0999 V2000
   14.0268    7.2304    1.0861 C   0  0  0  0  0  0  0  0  0  0  0  0
   13.6450    7.9629    2.3852 C   0  0  0  0  0  0  0  0  0  0  0  0
   14.6265    9.0246    2.6472 N   0  0  0  0  0  4  0  0  0  0  0  0
   12.1808    8.5090    2.2963 C   0  0  0  0  0  0  0  0  0  0  0  0
   11.1967    7.3505    2.5412 C   0  0  0  0  0  0  0  0  0  0  0  0
    9.7332    7.7444    2.3740 C   0  0  0  0  0  0  0  0  0  0  0  0
    9.4476    9.2145    2.6427 C   0  0  0  0  0  0  0  0  0  0  0  0
    7.9829    9.5398    2.7221 C   0  0  0  0  0  0  0  0  0  0  0  0
    7.4216    9.6828    1.6091 O   0  0  0  0  0  0  0  0  0  0  0  0
    7.2087    9.6879    3.9312 N   0  0  0  0  0  0  0  0  0  0  0  0
    5.8253   10.1191    3.8968 C   0  0  0  0  0  0  0  0  0  0  0  0
    5.2602   10.3891    2.8000 O   0  0  0  0  0  0  0  0  0  0  0  0
    5.0419   10.3070    5.1607 C   0  0  0  0  0  0  0  0  0  0  0  0
    5.1161   11.7552    5.6458 C   0  0  0  0  0  0  0  0  0  0  0  0
    6.4414   12.0409    6.1859 N   0  0  0  0  0  0  0  0  0  0  0  0
   10.4169   10.0742    3.4314 C   0  0  0  0  0  0  0  0  0  0  0  0
   11.8952    9.6382    3.3192 C   0  0  0  0  0  0  0  0  0  0  0  0
   13.3794    6.3502    0.9048 H   0  0  0  0  0  0  0  0  0  0  0  0
   13.9565    7.9171    0.2156 H   0  0  0  0  0  0  0  0  0  0  0  0
   15.0701    6.8550    1.1520 H   0  0  0  0  0  0  0  0  0  0  0  0
   13.7135    7.2281    3.2202 H   0  0  0  0  0  0  0  0  0  0  0  0
   14.5256    9.7978    1.9496 H   0  0  0  0  0  0  0  0  0  0  0  0
   14.5141    9.3997    3.6161 H   0  0  0  0  0  0  0  0  0  0  0  0
   15.5982    8.6420    2.5847 H   0  0  0  0  0  0  0  0  0  0  0  0
   12.0102    8.9227    1.2767 H   0  0  0  0  0  0  0  0  0  0  0  0
   11.3968    6.5003    1.8583 H   0  0  0  0  0  0  0  0  0  0  0  0
   11.3424    6.9709    3.5778 H   0  0  0  0  0  0  0  0  0  0  0  0
    9.1268    7.1283    3.0742 H   0  0  0  0  0  0  0  0  0  0  0  0
    9.3950    7.4746    1.3465 H   0  0  0  0  0  0  0  0  0  0  0  0
    9.7099    9.6226    1.6343 H   0  0  0  0  0  0  0  0  0  0  0  0
    7.6671    9.5039    4.8512 H   0  0  0  0  0  0  0  0  0  0  0  0
    5.4203    9.6212    5.9495 H   0  0  0  0  0  0  0  0  0  0  0  0
    3.9788   10.0427    4.9709 H   0  0  0  0  0  0  0  0  0  0  0  0
    4.3611   11.8936    6.4507 H   0  0  0  0  0  0  0  0  0  0  0  0
    4.8708   12.4619    4.8208 H   0  0  0  0  0  0  0  0  0  0  0  0
    7.1057   12.1542    5.3859 H   0  0  0  0  0  0  0  0  0  0  0  0
    6.3970   12.9713    6.6612 H   0  0  0  0  0  0  0  0  0  0  0  0
   10.3141   11.1414    3.1267 H   0  0  0  0  0  0  0  0  0  0  0  0
   10.1201   10.0288    4.5017 H   0  0  0  0  0  0  0  0  0  0  0  0
   12.2351    9.3024    4.3244 H   0  0  0  0  0  0  0  0  0  0  0  0
   12.4936   10.5359    3.0524 H   0  0  0  0  0  0  0  0  0  0  0  0
  1  2  1  0
  2  3  1  0
  2  4  1  0
  4  5  1  0
  5  6  1  0
  6  7  1  0
  7  8  1  0
  8  9  2  0
  8 10  1  0
 10 11  1  0
 11 12  2  0
 11 13  1  0
 13 14  1  0
 14 15  1  0
  7 16  1  0
 16 17  1  0
 17  4  1  0
  1 18  1  0
  1 19  1  0
  1 20  1  0
  2 21  1  0
  3 22  1  0
  3 23  1  0
  3 24  1  0
  4 25  1  0
  5 26  1  0
  5 27  1  0
  6 28  1  0
  6 29  1  0
  7 30  1  0
 10 31  1  0
 13 32  1  0
 13 33  1  0
 14 34  1  0
 14 35  1  0
 15 36  1  0
 15 37  1  0
 16 38  1  0
 16 39  1  0
 17 40  1  0
 17 41  1  0
M  CHG  1   3   1
M  END
>  <EmbedRMS>  (129) 
0.18056410303190035

$$$$

     RDKit          3D

 44 44  0  0  0  0  0  0  0  0999 V2000
   13.9344    7.3325    1.0251 C   0  0  0  0  0  0  0  0  0  0  0  0
   13.7124    7.9143    2.4293 C   0  0  0  0  0  0  0  0  0  0  0  0
   14.6504    9.0161    2.6726 N   0  0  0  0  0  4  0  0  0  0  0  0
   12.2357    8.2978    2.7953 C   0  0  0  0  0  0  0  0  0  0  0  0
   11.1506    7.3136    2.3192 C   0  0  0  0  0  0  0  0  0  0  0  0
    9.7889    7.9336    2.0719 C   0  0  0  0  0  0  0  0  0  0  0  0
    9.4291    8.9809    3.1175 C   0  0  0  0  0  0  0  0  0  0  0  0
    8.0244    9.4610    2.8767 C   0  0  0  0  0  0  0  0  0  0  0  0
    7.6190    9.6840    1.6996 O   0  0  0  0  0  0  0  0  0  0  0  0
    7.1616    9.6889    3.9915 N   0  0  0  0  0  0  0  0  0  0  0  0
    5.7855   10.1247    3.8210 C   0  0  0  0  0  0  0  0  0  0  0  0
    4.7423    8.9630    3.8122 C   0  0  0  0  0  0  0  0  0  0  0  0
    4.1166    8.8214    5.1831 C   0  0  0  0  0  0  0  0  0  0  0  0
    4.2843    8.6567    2.4010 C   0  0  0  0  0  0  0  0  0  0  0  0
    5.0987    7.7653    3.9177 O   0  0  0  0  0  0  0  0  0  0  0  0
   10.3977   10.1666    3.0612 C   0  0  0  0  0  0  0  0  0  0  0  0
   11.8890    9.7883    2.9936 C   0  0  0  0  0  0  0  0  0  0  0  0
   13.5401    6.2970    0.9555 H   0  0  0  0  0  0  0  0  0  0  0  0
   15.0186    7.2763    0.7900 H   0  0  0  0  0  0  0  0  0  0  0  0
   13.4422    7.9745    0.2641 H   0  0  0  0  0  0  0  0  0  0  0  0
   14.0100    7.0843    3.1149 H   0  0  0  0  0  0  0  0  0  0  0  0
   14.5109    9.7861    1.9796 H   0  0  0  0  0  0  0  0  0  0  0  0
   15.6337    8.6698    2.5833 H   0  0  0  0  0  0  0  0  0  0  0  0
   14.5428    9.3801    3.6466 H   0  0  0  0  0  0  0  0  0  0  0  0
   12.2392    8.0286    3.8800 H   0  0  0  0  0  0  0  0  0  0  0  0
   11.0353    6.4797    3.0507 H   0  0  0  0  0  0  0  0  0  0  0  0
   11.4346    6.8309    1.3657 H   0  0  0  0  0  0  0  0  0  0  0  0
    9.7931    8.4028    1.0615 H   0  0  0  0  0  0  0  0  0  0  0  0
    9.0236    7.1252    2.0640 H   0  0  0  0  0  0  0  0  0  0  0  0
    9.4921    8.5093    4.1239 H   0  0  0  0  0  0  0  0  0  0  0  0
    7.5013    9.4861    4.9588 H   0  0  0  0  0  0  0  0  0  0  0  0
    5.5537   10.8434    4.6375 H   0  0  0  0  0  0  0  0  0  0  0  0
    5.6953   10.7432    2.9009 H   0  0  0  0  0  0  0  0  0  0  0  0
    4.8622    8.6933    6.0088 H   0  0  0  0  0  0  0  0  0  0  0  0
    3.3169    8.0378    5.2516 H   0  0  0  0  0  0  0  0  0  0  0  0
    3.5776    9.7669    5.4063 H   0  0  0  0  0  0  0  0  0  0  0  0
    3.4915    7.8674    2.3375 H   0  0  0  0  0  0  0  0  0  0  0  0
    5.1205    8.4243    1.6954 H   0  0  0  0  0  0  0  0  0  0  0  0
    3.7922    9.5686    2.0007 H   0  0  0  0  0  0  0  0  0  0  0  0
    6.0784    7.6314    3.8034 H   0  0  0  0  0  0  0  0  0  0  0  0
   10.1562   10.7885    2.1686 H   0  0  0  0  0  0  0  0  0  0  0  0
   10.2230   10.8125    3.9502 H   0  0  0  0  0  0  0  0  0  0  0  0
   12.3172   10.3454    2.1334 H   0  0  0  0  0  0  0  0  0  0  0  0
   12.3955   10.1922    3.9001 H   0  0  0  0  0  0  0  0  0  0  0  0
  1  2  1  0
  2  3  1  0
  2  4  1  0
  4  5  1  0
  5  6  1  0
  6  7  1  0
  7  8  1  0
  8  9  2  0
  8 10  1  0
 10 11  1  0
 11 12  1  0
 12 13  1  0
 12 14  1  0
 12 15  1  0
  7 16  1  0
 16 17  1  0
 17  4  1  0
  1 18  1  0
  1 19  1  0
  1 20  1  0
  2 21  1  0
  3 22  1  0
  3 23  1  0
  3 24  1  0
  4 25  1  0
  5 26  1  0
  5 27  1  0
  6 28  1  0
  6 29  1  0
  7 30  1  0
 10 31  1  0
 11 32  1  0
 11 33  1  0
 13 34  1  0
 13 35  1  0
 13 36  1  0
 14 37  1  0
 14 38  1  0
 14 39  1  0
 15 40  1  0
 16 41  1  0
 16 42  1  0
 17 43  1  0
 17 44  1  0
M  CHG  1   3   1
M  END
>  <EmbedRMS>  (130) 
0.6861464654853324

$$$$

     RDKit          3D

 37 37  0  0  0  0  0  0  0  0999 V2000
   14.0484    7.2197    1.1055 C   0  0  0  0  0  0  0  0  0  0  0  0
   13.6490    7.9560    2.3996 C   0  0  0  0  0  0  0  0  0  0  0  0
   14.6280    9.0164    2.6716 N   0  0  0  0  0  4  0  0  0  0  0  0
   12.1993    8.5119    2.2743 C   0  0  0  0  0  0  0  0  0  0  0  0
   11.1802    7.3653    2.4366 C   0  0  0  0  0  0  0  0  0  0  0  0
    9.7717    7.8700    2.1563 C   0  0  0  0  0  0  0  0  0  0  0  0
    9.4058    8.9925    3.1332 C   0  0  0  0  0  0  0  0  0  0  0  0
    8.0077    9.4776    2.8673 C   0  0  0  0  0  0  0  0  0  0  0  0
    7.6294    9.6794    1.6815 O   0  0  0  0  0  0  0  0  0  0  0  0
    7.1332    9.7153    3.9805 N   0  0  0  0  0  0  0  0  0  0  0  0
    5.7485   10.1004    3.9222 C   0  0  0  0  0  0  0  0  0  0  0  0
    4.9444   10.3063    5.3342 S   0  0  0  0  0  0  0  0  0  0  0  0
    4.9513   10.1413    2.6496 C   0  0  0  0  0  0  0  0  0  0  0  0
    4.5652    8.8429    2.2990 O   0  0  0  0  0  0  0  0  0  0  0  0
   10.4208   10.1475    3.0667 C   0  0  0  0  0  0  0  0  0  0  0  0
   11.8565    9.6375    3.2818 C   0  0  0  0  0  0  0  0  0  0  0  0
   13.9779    7.8976    0.2281 H   0  0  0  0  0  0  0  0  0  0  0  0
   13.4177    6.3269    0.9279 H   0  0  0  0  0  0  0  0  0  0  0  0
   15.0959    6.8583    1.1816 H   0  0  0  0  0  0  0  0  0  0  0  0
   13.6909    7.2255    3.2398 H   0  0  0  0  0  0  0  0  0  0  0  0
   14.5424    9.7868    1.9688 H   0  0  0  0  0  0  0  0  0  0  0  0
   14.4949    9.3944    3.6371 H   0  0  0  0  0  0  0  0  0  0  0  0
   15.5996    8.6307    2.6312 H   0  0  0  0  0  0  0  0  0  0  0  0
   12.0869    8.9469    1.2543 H   0  0  0  0  0  0  0  0  0  0  0  0
   11.2338    6.9400    3.4637 H   0  0  0  0  0  0  0  0  0  0  0  0
   11.3828    6.5438    1.7212 H   0  0  0  0  0  0  0  0  0  0  0  0
    9.0569    7.0257    2.2747 H   0  0  0  0  0  0  0  0  0  0  0  0
    9.7111    8.2280    1.1040 H   0  0  0  0  0  0  0  0  0  0  0  0
    9.4413    8.5647    4.1607 H   0  0  0  0  0  0  0  0  0  0  0  0
    7.5493    9.6159    4.9344 H   0  0  0  0  0  0  0  0  0  0  0  0
    4.0379   10.7587    2.8057 H   0  0  0  0  0  0  0  0  0  0  0  0
    5.5069   10.6352    1.8282 H   0  0  0  0  0  0  0  0  0  0  0  0
    4.0683    8.9241    1.4437 H   0  0  0  0  0  0  0  0  0  0  0  0
   10.1815   10.8988    3.8508 H   0  0  0  0  0  0  0  0  0  0  0  0
   10.3552   10.6518    2.0768 H   0  0  0  0  0  0  0  0  0  0  0  0
   12.5352   10.5051    3.1422 H   0  0  0  0  0  0  0  0  0  0  0  0
   11.9719    9.2656    4.3239 H   0  0  0  0  0  0  0  0  0  0  0  0
  1  2  1  0
  2  3  1  0
  2  4  1  0
  4  5  1  0
  5  6  1  0
  6  7  1  0
  7  8  1  0
  8  9  2  0
  8 10  1  0
 10 11  1  0
 11 12  2  0
 11 13  1  0
 13 14  1  0
  7 15  1  0
 15 16  1  0
 16  4  1  0
  1 17  1  0
  1 18  1  0
  1 19  1  0
  2 20  1  0
  3 21  1  0
  3 22  1  0
  3 23  1  0
  4 24  1  0
  5 25  1  0
  5 26  1  0
  6 27  1  0
  6 28  1  0
  7 29  1  0
 10 30  1  0
 13 31  1  0
 13 32  1  0
 14 33  1  0
 15 34  1  0
 15 35  1  0
 16 36  1  0
 16 37  1  0
M  CHG  1   3   1
M  END
>  <EmbedRMS>  (131) 
0.03515867919501738

$$$$

     RDKit          3D

 44 44  0  0  0  0  0  0  0  0999 V2000
   13.9344    7.3325    1.0251 C   0  0  0  0  0  0  0  0  0  0  0  0
   13.7124    7.9143    2.4293 C   0  0  0  0  0  0  0  0  0  0  0  0
   14.6504    9.0161    2.6726 N   0  0  0  0  0  4  0  0  0  0  0  0
   12.2357    8.2978    2.7953 C   0  0  0  0  0  0  0  0  0  0  0  0
   11.1506    7.3136    2.3192 C   0  0  0  0  0  0  0  0  0  0  0  0
    9.7889    7.9336    2.0719 C   0  0  0  0  0  0  0  0  0  0  0  0
    9.4291    8.9809    3.1175 C   0  0  0  0  0  0  0  0  0  0  0  0
    8.0244    9.4610    2.8767 C   0  0  0  0  0  0  0  0  0  0  0  0
    7.6190    9.6840    1.6996 O   0  0  0  0  0  0  0  0  0  0  0  0
    7.1616    9.6889    3.9915 N   0  0  0  0  0  0  0  0  0  0  0  0
    5.7855   10.1247    3.8210 C   0  0  0  0  0  0  0  0  0  0  0  0
    4.7423    8.9630    3.8122 C   0  0  0  0  0  0  0  0  0  0  0  0
    4.1166    8.8214    5.1831 C   0  0  0  0  0  0  0  0  0  0  0  0
    4.2843    8.6567    2.4010 C   0  0  0  0  0  0  0  0  0  0  0  0
    5.0987    7.7653    3.9177 O   0  0  0  0  0  0  0  0  0  0  0  0
   10.3977   10.1666    3.0612 C   0  0  0  0  0  0  0  0  0  0  0  0
   11.8890    9.7883    2.9936 C   0  0  0  0  0  0  0  0  0  0  0  0
   13.5401    6.2970    0.9555 H   0  0  0  0  0  0  0  0  0  0  0  0
   15.0186    7.2763    0.7900 H   0  0  0  0  0  0  0  0  0  0  0  0
   13.4422    7.9745    0.2641 H   0  0  0  0  0  0  0  0  0  0  0  0
   14.0100    7.0843    3.1149 H   0  0  0  0  0  0  0  0  0  0  0  0
   14.5109    9.7861    1.9796 H   0  0  0  0  0  0  0  0  0  0  0  0
   15.6337    8.6698    2.5833 H   0  0  0  0  0  0  0  0  0  0  0  0
   14.5428    9.3801    3.6466 H   0  0  0  0  0  0  0  0  0  0  0  0
   12.2392    8.0286    3.8800 H   0  0  0  0  0  0  0  0  0  0  0  0
   11.0353    6.4797    3.0507 H   0  0  0  0  0  0  0  0  0  0  0  0
   11.4346    6.8309    1.3657 H   0  0  0  0  0  0  0  0  0  0  0  0
    9.7931    8.4028    1.0615 H   0  0  0  0  0  0  0  0  0  0  0  0
    9.0236    7.1252    2.0640 H   0  0  0  0  0  0  0  0  0  0  0  0
    9.4921    8.5093    4.1239 H   0  0  0  0  0  0  0  0  0  0  0  0
    7.5013    9.4861    4.9588 H   0  0  0  0  0  0  0  0  0  0  0  0
    5.5537   10.8434    4.6375 H   0  0  0  0  0  0  0  0  0  0  0  0
    5.6953   10.7432    2.9009 H   0  0  0  0  0  0  0  0  0  0  0  0
    4.8622    8.6933    6.0088 H   0  0  0  0  0  0  0  0  0  0  0  0
    3.3169    8.0378    5.2516 H   0  0  0  0  0  0  0  0  0  0  0  0
    3.5776    9.7669    5.4063 H   0  0  0  0  0  0  0  0  0  0  0  0
    3.4915    7.8674    2.3375 H   0  0  0  0  0  0  0  0  0  0  0  0
    5.1205    8.4243    1.6954 H   0  0  0  0  0  0  0  0  0  0  0  0
    3.7922    9.5686    2.0007 H   0  0  0  0  0  0  0  0  0  0  0  0
    6.0784    7.6314    3.8034 H   0  0  0  0  0  0  0  0  0  0  0  0
   10.1562   10.7885    2.1686 H   0  0  0  0  0  0  0  0  0  0  0  0
   10.2230   10.8125    3.9502 H   0  0  0  0  0  0  0  0  0  0  0  0
   12.3172   10.3454    2.1334 H   0  0  0  0  0  0  0  0  0  0  0  0
   12.3955   10.1922    3.9001 H   0  0  0  0  0  0  0  0  0  0  0  0
  1  2  1  0
  2  3  1  0
  2  4  1  0
  4  5  1  0
  5  6  1  0
  6  7  1  0
  7  8  1  0
  8  9  2  0
  8 10  1  0
 10 11  1  0
 11 12  1  0
 12 13  1  0
 12 14  1  0
 12 15  1  0
  7 16  1  0
 16 17  1  0
 17  4  1  0
  1 18  1  0
  1 19  1  0
  1 20  1  0
  2 21  1  0
  3 22  1  0
  3 23  1  0
  3 24  1  0
  4 25  1  0
  5 26  1  0
  5 27  1  0
  6 28  1  0
  6 29  1  0
  7 30  1  0
 10 31  1  0
 11 32  1  0
 11 33  1  0
 13 34  1  0
 13 35  1  0
 13 36  1  0
 14 37  1  0
 14 38  1  0
 14 39  1  0
 15 40  1  0
 16 41  1  0
 16 42  1  0
 17 43  1  0
 17 44  1  0
M  CHG  1   3   1
M  END
>  <EmbedRMS>  (132) 
0.6861464654853324

$$$$

     RDKit          3D

 41 41  0  0  0  0  0  0  0  0999 V2000
    4.7824    8.9559    5.8409 C   0  0  0  0  0  0  0  0  0  0  0  0
    5.0144   10.2984    5.1523 C   0  0  0  0  0  0  0  0  0  0  0  0
    5.6599   11.2405    6.0653 N   0  0  0  0  0  0  0  0  0  0  0  0
    5.8215   10.1204    3.8938 C   0  0  0  0  0  0  0  0  0  0  0  0
    5.2575   10.3666    2.7911 O   0  0  0  0  0  0  0  0  0  0  0  0
    7.2017    9.6751    3.9335 N   0  0  0  0  0  0  0  0  0  0  0  0
    7.9778    9.5187    2.7289 C   0  0  0  0  0  0  0  0  0  0  0  0
    7.4230    9.6729    1.6132 O   0  0  0  0  0  0  0  0  0  0  0  0
    9.4425    9.1931    2.6631 C   0  0  0  0  0  0  0  0  0  0  0  0
    9.7648    7.7140    2.4339 C   0  0  0  0  0  0  0  0  0  0  0  0
   11.2637    7.3644    2.5412 C   0  0  0  0  0  0  0  0  0  0  0  0
   12.1426    8.5869    2.2333 C   0  0  0  0  0  0  0  0  0  0  0  0
   13.6538    8.3402    1.9337 C   0  0  0  0  0  0  0  0  0  0  0  0
   14.0131    7.0452    1.2248 C   0  0  0  0  0  0  0  0  0  0  0  0
   14.6168    8.7743    2.9401 N   0  0  0  0  0  4  0  0  0  0  0  0
   11.8890    9.6851    3.2867 C   0  0  0  0  0  0  0  0  0  0  0  0
   10.4039   10.0811    3.4364 C   0  0  0  0  0  0  0  0  0  0  0  0
    5.7455    8.4990    6.1537 H   0  0  0  0  0  0  0  0  0  0  0  0
    4.2590    8.2579    5.1527 H   0  0  0  0  0  0  0  0  0  0  0  0
    4.1494    9.0999    6.7422 H   0  0  0  0  0  0  0  0  0  0  0  0
    4.0151   10.7106    4.8852 H   0  0  0  0  0  0  0  0  0  0  0  0
    5.8040   12.1490    5.5664 H   0  0  0  0  0  0  0  0  0  0  0  0
    6.6008   10.8824    6.3474 H   0  0  0  0  0  0  0  0  0  0  0  0
    7.6561    9.4629    4.8487 H   0  0  0  0  0  0  0  0  0  0  0  0
    9.6864    9.5850    1.6460 H   0  0  0  0  0  0  0  0  0  0  0  0
    9.3845    7.3985    1.4351 H   0  0  0  0  0  0  0  0  0  0  0  0
    9.2142    7.1101    3.1876 H   0  0  0  0  0  0  0  0  0  0  0  0
   11.4736    6.5318    1.8383 H   0  0  0  0  0  0  0  0  0  0  0  0
   11.4943    7.0011    3.5668 H   0  0  0  0  0  0  0  0  0  0  0  0
   11.7495    8.9800    1.2665 H   0  0  0  0  0  0  0  0  0  0  0  0
   13.8435    9.0657    1.1036 H   0  0  0  0  0  0  0  0  0  0  0  0
   13.3399    6.8743    0.3572 H   0  0  0  0  0  0  0  0  0  0  0  0
   15.0581    7.0797    0.8478 H   0  0  0  0  0  0  0  0  0  0  0  0
   13.9240    6.1938    1.9317 H   0  0  0  0  0  0  0  0  0  0  0  0
   15.5922    8.5565    2.6309 H   0  0  0  0  0  0  0  0  0  0  0  0
   14.5646    9.8052    3.1031 H   0  0  0  0  0  0  0  0  0  0  0  0
   14.4335    8.2659    3.8349 H   0  0  0  0  0  0  0  0  0  0  0  0
   12.2728    9.3429    4.2730 H   0  0  0  0  0  0  0  0  0  0  0  0
   12.4531   10.6004    3.0046 H   0  0  0  0  0  0  0  0  0  0  0  0
   10.2643   11.1443    3.1331 H   0  0  0  0  0  0  0  0  0  0  0  0
   10.1329   10.0246    4.5129 H   0  0  0  0  0  0  0  0  0  0  0  0
  1  2  1  0
  2  3  1  0
  2  4  1  0
  4  5  2  0
  4  6  1  0
  6  7  1  0
  7  8  2  0
  7  9  1  0
  9 10  1  0
 10 11  1  0
 11 12  1  0
 12 13  1  0
 13 14  1  0
 13 15  1  0
 12 16  1  0
 16 17  1  0
 17  9  1  0
  1 18  1  0
  1 19  1  0
  1 20  1  0
  2 21  1  0
  3 22  1  0
  3 23  1  0
  6 24  1  0
  9 25  1  0
 10 26  1  0
 10 27  1  0
 11 28  1  0
 11 29  1  0
 12 30  1  0
 13 31  1  0
 14 32  1  0
 14 33  1  0
 14 34  1  0
 15 35  1  0
 15 36  1  0
 15 37  1  0
 16 38  1  0
 16 39  1  0
 17 40  1  0
 17 41  1  0
M  CHG  1  15   1
M  END
>  <EmbedRMS>  (133) 
0.2569854509941921

$$$$

     RDKit          3D

 44 44  0  0  0  0  0  0  0  0999 V2000
    6.3620   12.3940    2.6941 C   0  0  0  0  0  0  0  0  0  0  0  0
    5.7998   11.7355    3.9626 C   0  0  0  0  0  0  0  0  0  0  0  0
    4.3698   12.2342    4.2395 C   0  0  0  0  0  0  0  0  0  0  0  0
    3.5008   11.9006    3.1892 O   0  0  0  0  0  0  0  0  0  0  0  0
    5.8521   10.1921    3.8973 C   0  0  0  0  0  0  0  0  0  0  0  0
    7.2407    9.7034    3.9333 N   0  0  0  0  0  0  0  0  0  0  0  0
    7.9901    9.5297    2.7189 C   0  0  0  0  0  0  0  0  0  0  0  0
    7.4071    9.6684    1.6167 O   0  0  0  0  0  0  0  0  0  0  0  0
    9.4514    9.2025    2.6217 C   0  0  0  0  0  0  0  0  0  0  0  0
    9.7372    7.7228    2.5346 C   0  0  0  0  0  0  0  0  0  0  0  0
   11.1755    7.4150    2.1495 C   0  0  0  0  0  0  0  0  0  0  0  0
   12.2298    8.2936    2.8210 C   0  0  0  0  0  0  0  0  0  0  0  0
   13.7080    7.9213    2.4415 C   0  0  0  0  0  0  0  0  0  0  0  0
   13.9238    7.3284    1.0388 C   0  0  0  0  0  0  0  0  0  0  0  0
   14.6425    9.0273    2.6703 N   0  0  0  0  0  4  0  0  0  0  0  0
   11.8785    9.7844    2.9957 C   0  0  0  0  0  0  0  0  0  0  0  0
   10.4230   10.0508    3.4119 C   0  0  0  0  0  0  0  0  0  0  0  0
    7.4550   12.2179    2.6197 H   0  0  0  0  0  0  0  0  0  0  0  0
    6.2094   13.4939    2.7306 H   0  0  0  0  0  0  0  0  0  0  0  0
    5.8646   11.9949    1.7846 H   0  0  0  0  0  0  0  0  0  0  0  0
    6.4294   12.0622    4.8202 H   0  0  0  0  0  0  0  0  0  0  0  0
    4.3761   13.3359    4.4126 H   0  0  0  0  0  0  0  0  0  0  0  0
    3.9900   11.7694    5.1743 H   0  0  0  0  0  0  0  0  0  0  0  0
    3.5319   12.6494    2.5383 H   0  0  0  0  0  0  0  0  0  0  0  0
    5.3205    9.7727    4.7789 H   0  0  0  0  0  0  0  0  0  0  0  0
    5.3212    9.8151    2.9959 H   0  0  0  0  0  0  0  0  0  0  0  0
    7.7200    9.5855    4.8537 H   0  0  0  0  0  0  0  0  0  0  0  0
    9.7010    9.5353    1.5834 H   0  0  0  0  0  0  0  0  0  0  0  0
    9.5332    7.2728    3.5307 H   0  0  0  0  0  0  0  0  0  0  0  0
    9.0532    7.2367    1.8030 H   0  0  0  0  0  0  0  0  0  0  0  0
   11.2487    7.5623    1.0504 H   0  0  0  0  0  0  0  0  0  0  0  0
   11.3822    6.3420    2.3591 H   0  0  0  0  0  0  0  0  0  0  0  0
   12.1628    7.9510    3.8809 H   0  0  0  0  0  0  0  0  0  0  0  0
   14.0116    7.0974    3.1303 H   0  0  0  0  0  0  0  0  0  0  0  0
   13.3798    6.3675    0.9252 H   0  0  0  0  0  0  0  0  0  0  0  0
   13.5739    8.0446    0.2655 H   0  0  0  0  0  0  0  0  0  0  0  0
   15.0010    7.1190    0.8660 H   0  0  0  0  0  0  0  0  0  0  0  0
   14.5976    9.3377    3.6676 H   0  0  0  0  0  0  0  0  0  0  0  0
   14.4338    9.8276    2.0305 H   0  0  0  0  0  0  0  0  0  0  0  0
   15.6235    8.7094    2.4935 H   0  0  0  0  0  0  0  0  0  0  0  0
   12.0583   10.2953    2.0250 H   0  0  0  0  0  0  0  0  0  0  0  0
   12.5365   10.2615    3.7525 H   0  0  0  0  0  0  0  0  0  0  0  0
   10.1902   11.1304    3.2766 H   0  0  0  0  0  0  0  0  0  0  0  0
   10.3064    9.8095    4.4906 H   0  0  0  0  0  0  0  0  0  0  0  0
  1  2  1  0
  2  3  1  0
  3  4  1  0
  2  5  1  0
  5  6  1  0
  6  7  1  0
  7  8  2  0
  7  9  1  0
  9 10  1  0
 10 11  1  0
 11 12  1  0
 12 13  1  0
 13 14  1  0
 13 15  1  0
 12 16  1  0
 16 17  1  0
 17  9  1  0
  1 18  1  0
  1 19  1  0
  1 20  1  0
  2 21  1  0
  3 22  1  0
  3 23  1  0
  4 24  1  0
  5 25  1  0
  5 26  1  0
  6 27  1  0
  9 28  1  0
 10 29  1  0
 10 30  1  0
 11 31  1  0
 11 32  1  0
 12 33  1  0
 13 34  1  0
 14 35  1  0
 14 36  1  0
 14 37  1  0
 15 38  1  0
 15 39  1  0
 15 40  1  0
 16 41  1  0
 16 42  1  0
 17 43  1  0
 17 44  1  0
M  CHG  1  15   1
M  END
>  <EmbedRMS>  (134) 
0.2703813095472554

$$$$

     RDKit          3D

 41 41  0  0  0  0  0  0  0  0999 V2000
    4.6460   11.6759    7.1724 C   0  0  0  0  0  0  0  0  0  0  0  0
    5.2633   11.4940    5.8659 N   0  0  0  0  0  0  0  0  0  0  0  0
    5.1493   10.2629    5.1439 C   0  0  0  0  0  0  0  0  0  0  0  0
    4.5014    9.2956    5.6277 O   0  0  0  0  0  0  0  0  0  0  0  0
    5.8086   10.1135    3.8127 C   0  0  0  0  0  0  0  0  0  0  0  0
    7.2095    9.6833    3.9371 N   0  0  0  0  0  0  0  0  0  0  0  0
    7.9808    9.5180    2.7350 C   0  0  0  0  0  0  0  0  0  0  0  0
    7.4142    9.6752    1.6244 O   0  0  0  0  0  0  0  0  0  0  0  0
    9.4440    9.1935    2.6630 C   0  0  0  0  0  0  0  0  0  0  0  0
    9.7658    7.7143    2.4337 C   0  0  0  0  0  0  0  0  0  0  0  0
   11.2644    7.3644    2.5408 C   0  0  0  0  0  0  0  0  0  0  0  0
   12.1433    8.5869    2.2329 C   0  0  0  0  0  0  0  0  0  0  0  0
   13.6544    8.3400    1.9332 C   0  0  0  0  0  0  0  0  0  0  0  0
   14.0135    7.0449    1.2245 C   0  0  0  0  0  0  0  0  0  0  0  0
   14.6174    8.7741    2.9396 N   0  0  0  0  0  4  0  0  0  0  0  0
   11.8904    9.6848    3.2864 C   0  0  0  0  0  0  0  0  0  0  0  0
   10.4058   10.0816    3.4356 C   0  0  0  0  0  0  0  0  0  0  0  0
    3.5459   11.5501    7.0899 H   0  0  0  0  0  0  0  0  0  0  0  0
    4.8632   12.6960    7.5536 H   0  0  0  0  0  0  0  0  0  0  0  0
    5.0530   10.9310    7.8883 H   0  0  0  0  0  0  0  0  0  0  0  0
    5.8124   12.2820    5.4541 H   0  0  0  0  0  0  0  0  0  0  0  0
    5.2457    9.3665    3.2110 H   0  0  0  0  0  0  0  0  0  0  0  0
    5.7655   11.0860    3.2759 H   0  0  0  0  0  0  0  0  0  0  0  0
    7.6527    9.5270    4.8705 H   0  0  0  0  0  0  0  0  0  0  0  0
    9.6833    9.5857    1.6449 H   0  0  0  0  0  0  0  0  0  0  0  0
    9.2152    7.1104    3.1876 H   0  0  0  0  0  0  0  0  0  0  0  0
    9.3851    7.3989    1.4351 H   0  0  0  0  0  0  0  0  0  0  0  0
   11.4740    6.5318    1.8378 H   0  0  0  0  0  0  0  0  0  0  0  0
   11.4952    7.0010    3.5664 H   0  0  0  0  0  0  0  0  0  0  0  0
   11.7498    8.9804    1.2663 H   0  0  0  0  0  0  0  0  0  0  0  0
   13.8441    9.0654    1.1031 H   0  0  0  0  0  0  0  0  0  0  0  0
   15.0584    7.0793    0.8474 H   0  0  0  0  0  0  0  0  0  0  0  0
   13.3402    6.8740    0.3569 H   0  0  0  0  0  0  0  0  0  0  0  0
   13.9243    6.1936    1.9314 H   0  0  0  0  0  0  0  0  0  0  0  0
   15.5927    8.5554    2.6308 H   0  0  0  0  0  0  0  0  0  0  0  0
   14.5660    9.8051    3.1020 H   0  0  0  0  0  0  0  0  0  0  0  0
   14.4336    8.2664    3.8348 H   0  0  0  0  0  0  0  0  0  0  0  0
   12.2736    9.3421    4.2727 H   0  0  0  0  0  0  0  0  0  0  0  0
   12.4550   10.5998    3.0047 H   0  0  0  0  0  0  0  0  0  0  0  0
   10.1351   10.0261    4.5122 H   0  0  0  0  0  0  0  0  0  0  0  0
   10.2667   11.1445    3.1312 H   0  0  0  0  0  0  0  0  0  0  0  0
  1  2  1  0
  2  3  1  0
  3  4  2  0
  3  5  1  0
  5  6  1  0
  6  7  1  0
  7  8  2  0
  7  9  1  0
  9 10  1  0
 10 11  1  0
 11 12  1  0
 12 13  1  0
 13 14  1  0
 13 15  1  0
 12 16  1  0
 16 17  1  0
 17  9  1  0
  1 18  1  0
  1 19  1  0
  1 20  1  0
  2 21  1  0
  5 22  1  0
  5 23  1  0
  6 24  1  0
  9 25  1  0
 10 26  1  0
 10 27  1  0
 11 28  1  0
 11 29  1  0
 12 30  1  0
 13 31  1  0
 14 32  1  0
 14 33  1  0
 14 34  1  0
 15 35  1  0
 15 36  1  0
 15 37  1  0
 16 38  1  0
 16 39  1  0
 17 40  1  0
 17 41  1  0
M  CHG  1  15   1
M  END
>  <EmbedRMS>  (135) 
0.2569057114362328

$$$$

     RDKit          3D

 41 41  0  0  0  0  0  0  0  0999 V2000
   13.9335    7.3325    1.0254 C   0  0  0  0  0  0  0  0  0  0  0  0
   13.7111    7.9147    2.4294 C   0  0  0  0  0  0  0  0  0  0  0  0
   14.6492    9.0164    2.6728 N   0  0  0  0  0  4  0  0  0  0  0  0
   12.2340    8.2985    2.7952 C   0  0  0  0  0  0  0  0  0  0  0  0
   11.1482    7.3150    2.3189 C   0  0  0  0  0  0  0  0  0  0  0  0
    9.7867    7.9361    2.0695 C   0  0  0  0  0  0  0  0  0  0  0  0
    9.4243    8.9840    3.1139 C   0  0  0  0  0  0  0  0  0  0  0  0
    8.0167    9.4657    2.8724 C   0  0  0  0  0  0  0  0  0  0  0  0
    7.6084    9.6870    1.6966 O   0  0  0  0  0  0  0  0  0  0  0  0
    7.1544    9.6951    3.9857 N   0  0  0  0  0  0  0  0  0  0  0  0
    5.7782   10.1397    3.8073 C   0  0  0  0  0  0  0  0  0  0  0  0
    5.0965   10.2714    5.1652 C   0  0  0  0  0  0  0  0  0  0  0  0
    3.6898   10.7359    4.9935 C   0  0  0  0  0  0  0  0  0  0  0  0
    3.3955   12.1302    4.9317 N   0  0  0  0  0  0  0  0  0  0  0  0
    2.7647    9.8917    4.8614 O   0  0  0  0  0  0  0  0  0  0  0  0
   10.3953   10.1682    3.0601 C   0  0  0  0  0  0  0  0  0  0  0  0
   11.8871    9.7888    2.9947 C   0  0  0  0  0  0  0  0  0  0  0  0
   15.0179    7.2757    0.7910 H   0  0  0  0  0  0  0  0  0  0  0  0
   13.5386    6.2973    0.9558 H   0  0  0  0  0  0  0  0  0  0  0  0
   13.4421    7.9747    0.2640 H   0  0  0  0  0  0  0  0  0  0  0  0
   14.0083    7.0848    3.1152 H   0  0  0  0  0  0  0  0  0  0  0  0
   14.5410    9.3810    3.6464 H   0  0  0  0  0  0  0  0  0  0  0  0
   14.5103    9.7860    1.9792 H   0  0  0  0  0  0  0  0  0  0  0  0
   15.6325    8.6698    2.5844 H   0  0  0  0  0  0  0  0  0  0  0  0
   12.2374    8.0286    3.8797 H   0  0  0  0  0  0  0  0  0  0  0  0
   11.0314    6.4817    3.0507 H   0  0  0  0  0  0  0  0  0  0  0  0
   11.4329    6.8314    1.3661 H   0  0  0  0  0  0  0  0  0  0  0  0
    9.7923    8.4053    1.0591 H   0  0  0  0  0  0  0  0  0  0  0  0
    9.0212    7.1279    2.0600 H   0  0  0  0  0  0  0  0  0  0  0  0
    9.4864    8.5117    4.1200 H   0  0  0  0  0  0  0  0  0  0  0  0
    7.5300    9.5345    4.9487 H   0  0  0  0  0  0  0  0  0  0  0  0
    5.7753   11.1234    3.2882 H   0  0  0  0  0  0  0  0  0  0  0  0
    5.2306    9.3985    3.1843 H   0  0  0  0  0  0  0  0  0  0  0  0
    5.1012    9.2877    5.6844 H   0  0  0  0  0  0  0  0  0  0  0  0
    5.6518   10.9981    5.7975 H   0  0  0  0  0  0  0  0  0  0  0  0
    2.4124   12.4554    4.7978 H   0  0  0  0  0  0  0  0  0  0  0  0
    4.1569   12.8403    5.0120 H   0  0  0  0  0  0  0  0  0  0  0  0
   10.2198   10.8141    3.9489 H   0  0  0  0  0  0  0  0  0  0  0  0
   10.1556   10.7905    2.1674 H   0  0  0  0  0  0  0  0  0  0  0  0
   12.3922   10.1915    3.9025 H   0  0  0  0  0  0  0  0  0  0  0  0
   12.3171   10.3470    2.1361 H   0  0  0  0  0  0  0  0  0  0  0  0
  1  2  1  0
  2  3  1  0
  2  4  1  0
  4  5  1  0
  5  6  1  0
  6  7  1  0
  7  8  1  0
  8  9  2  0
  8 10  1  0
 10 11  1  0
 11 12  1  0
 12 13  1  0
 13 14  1  0
 13 15  2  0
  7 16  1  0
 16 17  1  0
 17  4  1  0
  1 18  1  0
  1 19  1  0
  1 20  1  0
  2 21  1  0
  3 22  1  0
  3 23  1  0
  3 24  1  0
  4 25  1  0
  5 26  1  0
  5 27  1  0
  6 28  1  0
  6 29  1  0
  7 30  1  0
 10 31  1  0
 11 32  1  0
 11 33  1  0
 12 34  1  0
 12 35  1  0
 14 36  1  0
 14 37  1  0
 16 38  1  0
 16 39  1  0
 17 40  1  0
 17 41  1  0
M  CHG  1   3   1
M  END
>  <EmbedRMS>  (136) 
0.16893439910694713

$$$$

     RDKit          3D

 44 44  0  0  0  0  0  0  0  0999 V2000
   14.0199    7.0477    1.2497 C   0  0  0  0  0  0  0  0  0  0  0  0
   13.6123    8.3213    1.9878 C   0  0  0  0  0  0  0  0  0  0  0  0
   14.7175    8.8909    2.7614 N   0  0  0  0  0  4  0  0  0  0  0  0
   12.2837    8.3193    2.7757 C   0  0  0  0  0  0  0  0  0  0  0  0
   11.1972    7.4287    2.1507 C   0  0  0  0  0  0  0  0  0  0  0  0
    9.7697    7.7311    2.5608 C   0  0  0  0  0  0  0  0  0  0  0  0
    9.5198    9.2123    2.6556 C   0  0  0  0  0  0  0  0  0  0  0  0
    8.0932    9.5727    2.6627 C   0  0  0  0  0  0  0  0  0  0  0  0
    7.6005    9.6332    1.5073 O   0  0  0  0  0  0  0  0  0  0  0  0
    7.2714    9.8827    3.8075 N   0  0  0  0  0  0  0  0  0  0  0  0
    5.8397    9.9730    3.5214 C   0  0  0  0  0  0  0  0  0  0  0  0
    5.2282   11.3493    3.5818 C   0  0  0  0  0  0  0  0  0  0  0  0
    5.2344    8.5599    3.5233 C   0  0  0  0  0  0  0  0  0  0  0  0
    4.5834    8.1394    2.2201 C   0  0  0  0  0  0  0  0  0  0  0  0
    4.6400    8.0921    4.6849 O   0  0  0  0  0  0  0  0  0  0  0  0
   10.4292   10.0190    3.5174 C   0  0  0  0  0  0  0  0  0  0  0  0
   11.8863    9.7742    3.1521 C   0  0  0  0  0  0  0  0  0  0  0  0
   13.2741    6.7611    0.4803 H   0  0  0  0  0  0  0  0  0  0  0  0
   14.9895    7.1900    0.7265 H   0  0  0  0  0  0  0  0  0  0  0  0
   14.1288    6.2149    1.9758 H   0  0  0  0  0  0  0  0  0  0  0  0
   13.4395    9.0253    1.1405 H   0  0  0  0  0  0  0  0  0  0  0  0
   14.5411    9.8946    2.9908 H   0  0  0  0  0  0  0  0  0  0  0  0
   14.8539    8.3477    3.6446 H   0  0  0  0  0  0  0  0  0  0  0  0
   15.6059    8.8585    2.2103 H   0  0  0  0  0  0  0  0  0  0  0  0
   12.5019    7.8248    3.7493 H   0  0  0  0  0  0  0  0  0  0  0  0
   11.2292    7.5695    1.0481 H   0  0  0  0  0  0  0  0  0  0  0  0
   11.4173    6.3564    2.3498 H   0  0  0  0  0  0  0  0  0  0  0  0
    9.0724    7.2555    1.8343 H   0  0  0  0  0  0  0  0  0  0  0  0
    9.5774    7.2780    3.5578 H   0  0  0  0  0  0  0  0  0  0  0  0
    9.8492    9.5642    1.6435 H   0  0  0  0  0  0  0  0  0  0  0  0
    7.6418    9.8644    4.7833 H   0  0  0  0  0  0  0  0  0  0  0  0
    5.7573   10.1270    2.4356 H   0  0  0  0  0  0  0  0  0  0  0  0
    4.2047   11.3799    3.1358 H   0  0  0  0  0  0  0  0  0  0  0  0
    5.1158   11.6224    4.6515 H   0  0  0  0  0  0  0  0  0  0  0  0
    5.8762   12.1304    3.1150 H   0  0  0  0  0  0  0  0  0  0  0  0
    6.1238    7.8860    3.4592 H   0  0  0  0  0  0  0  0  0  0  0  0
    5.2878    8.1947    1.3608 H   0  0  0  0  0  0  0  0  0  0  0  0
    3.7063    8.7891    2.0149 H   0  0  0  0  0  0  0  0  0  0  0  0
    4.2241    7.0907    2.2990 H   0  0  0  0  0  0  0  0  0  0  0  0
    5.2239    8.3627    5.4416 H   0  0  0  0  0  0  0  0  0  0  0  0
   10.2674    9.7201    4.5761 H   0  0  0  0  0  0  0  0  0  0  0  0
   10.1969   11.1044    3.4300 H   0  0  0  0  0  0  0  0  0  0  0  0
   12.1100   10.4469    2.2944 H   0  0  0  0  0  0  0  0  0  0  0  0
   12.5104   10.1259    4.0025 H   0  0  0  0  0  0  0  0  0  0  0  0
  1  2  1  0
  2  3  1  0
  2  4  1  0
  4  5  1  0
  5  6  1  0
  6  7  1  0
  7  8  1  0
  8  9  2  0
  8 10  1  0
 10 11  1  0
 11 12  1  0
 11 13  1  0
 13 14  1  0
 13 15  1  0
  7 16  1  0
 16 17  1  0
 17  4  1  0
  1 18  1  0
  1 19  1  0
  1 20  1  0
  2 21  1  0
  3 22  1  0
  3 23  1  0
  3 24  1  0
  4 25  1  0
  5 26  1  0
  5 27  1  0
  6 28  1  0
  6 29  1  0
  7 30  1  0
 10 31  1  0
 11 32  1  0
 12 33  1  0
 12 34  1  0
 12 35  1  0
 13 36  1  0
 14 37  1  0
 14 38  1  0
 14 39  1  0
 15 40  1  0
 16 41  1  0
 16 42  1  0
 17 43  1  0
 17 44  1  0
M  CHG  1   3   1
M  END
>  <EmbedRMS>  (137) 
0.4148031642563665

$$$$

     RDKit          3D

 38 38  0  0  0  0  0  0  0  0999 V2000
   14.0485    7.2193    1.1052 C   0  0  0  0  0  0  0  0  0  0  0  0
   13.6494    7.9557    2.3993 C   0  0  0  0  0  0  0  0  0  0  0  0
   14.6287    9.0157    2.6714 N   0  0  0  0  0  4  0  0  0  0  0  0
   12.1999    8.5121    2.2739 C   0  0  0  0  0  0  0  0  0  0  0  0
   11.1802    7.3659    2.4359 C   0  0  0  0  0  0  0  0  0  0  0  0
    9.7714    7.8716    2.1578 C   0  0  0  0  0  0  0  0  0  0  0  0
    9.4086    8.9939    3.1360 C   0  0  0  0  0  0  0  0  0  0  0  0
    8.0119    9.4795    2.8745 C   0  0  0  0  0  0  0  0  0  0  0  0
    7.6187    9.6893    1.6921 O   0  0  0  0  0  0  0  0  0  0  0  0
    7.1292    9.6965    3.9807 N   0  0  0  0  0  0  0  0  0  0  0  0
    5.7624   10.1694    3.8094 C   0  0  0  0  0  0  0  0  0  0  0  0
    5.7587   11.6573    3.4724 C   0  0  0  0  0  0  0  0  0  0  0  0
    4.4421   12.1064    3.3200 O   0  0  0  0  0  0  0  0  0  0  0  0
   10.4229   10.1485    3.0671 C   0  0  0  0  0  0  0  0  0  0  0  0
   11.8582    9.6379    3.2816 C   0  0  0  0  0  0  0  0  0  0  0  0
   15.0958    6.8574    1.1814 H   0  0  0  0  0  0  0  0  0  0  0  0
   13.9784    7.8974    0.2278 H   0  0  0  0  0  0  0  0  0  0  0  0
   13.4173    6.3269    0.9275 H   0  0  0  0  0  0  0  0  0  0  0  0
   13.6910    7.2251    3.2394 H   0  0  0  0  0  0  0  0  0  0  0  0
   14.4960    9.3935    3.6370 H   0  0  0  0  0  0  0  0  0  0  0  0
   15.6002    8.6298    2.6308 H   0  0  0  0  0  0  0  0  0  0  0  0
   14.5433    9.7863    1.9687 H   0  0  0  0  0  0  0  0  0  0  0  0
   12.0876    8.9473    1.2540 H   0  0  0  0  0  0  0  0  0  0  0  0
   11.2347    6.9393    3.4625 H   0  0  0  0  0  0  0  0  0  0  0  0
   11.3816    6.5452    1.7192 H   0  0  0  0  0  0  0  0  0  0  0  0
    9.0563    7.0278    2.2771 H   0  0  0  0  0  0  0  0  0  0  0  0
    9.7089    8.2307    1.1059 H   0  0  0  0  0  0  0  0  0  0  0  0
    9.4455    8.5679    4.1642 H   0  0  0  0  0  0  0  0  0  0  0  0
    7.4525    9.4673    4.9477 H   0  0  0  0  0  0  0  0  0  0  0  0
    5.2572    9.5890    3.0069 H   0  0  0  0  0  0  0  0  0  0  0  0
    5.2000   10.0100    4.7552 H   0  0  0  0  0  0  0  0  0  0  0  0
    6.2767   12.2336    4.2730 H   0  0  0  0  0  0  0  0  0  0  0  0
    6.3008   11.8316    2.5198 H   0  0  0  0  0  0  0  0  0  0  0  0
    4.0707   12.2170    4.2342 H   0  0  0  0  0  0  0  0  0  0  0  0
   10.3565   10.6518    2.0766 H   0  0  0  0  0  0  0  0  0  0  0  0
   10.1846   10.9008    3.8506 H   0  0  0  0  0  0  0  0  0  0  0  0
   12.5372   10.5052    3.1416 H   0  0  0  0  0  0  0  0  0  0  0  0
   11.9739    9.2660    4.3236 H   0  0  0  0  0  0  0  0  0  0  0  0
  1  2  1  0
  2  3  1  0
  2  4  1  0
  4  5  1  0
  5  6  1  0
  6  7  1  0
  7  8  1  0
  8  9  2  0
  8 10  1  0
 10 11  1  0
 11 12  1  0
 12 13  1  0
  7 14  1  0
 14 15  1  0
 15  4  1  0
  1 16  1  0
  1 17  1  0
  1 18  1  0
  2 19  1  0
  3 20  1  0
  3 21  1  0
  3 22  1  0
  4 23  1  0
  5 24  1  0
  5 25  1  0
  6 26  1  0
  6 27  1  0
  7 28  1  0
 10 29  1  0
 11 30  1  0
 11 31  1  0
 12 32  1  0
 12 33  1  0
 13 34  1  0
 14 35  1  0
 14 36  1  0
 15 37  1  0
 15 38  1  0
M  CHG  1   3   1
M  END
>  <EmbedRMS>  (138) 
0.031392693704421666

$$$$

     RDKit          3D

 44 44  0  0  0  0  0  0  0  0999 V2000
   14.0273    7.0397    1.2342 C   0  0  0  0  0  0  0  0  0  0  0  0
   13.6687    8.3364    1.9397 C   0  0  0  0  0  0  0  0  0  0  0  0
   14.6133    8.7687    2.9619 N   0  0  0  0  0  4  0  0  0  0  0  0
   12.1572    8.5898    2.2127 C   0  0  0  0  0  0  0  0  0  0  0  0
   11.2401    7.3773    2.4539 C   0  0  0  0  0  0  0  0  0  0  0  0
    9.7876    7.8244    2.2163 C   0  0  0  0  0  0  0  0  0  0  0  0
    9.4111    8.9846    3.1576 C   0  0  0  0  0  0  0  0  0  0  0  0
    8.0155    9.4669    2.8796 C   0  0  0  0  0  0  0  0  0  0  0  0
    7.6311    9.6756    1.6937 O   0  0  0  0  0  0  0  0  0  0  0  0
    7.1365    9.7203    3.9800 N   0  0  0  0  0  0  0  0  0  0  0  0
    5.7524   10.1299    3.7933 C   0  0  0  0  0  0  0  0  0  0  0  0
    4.9121    8.9419    3.3299 C   0  0  0  0  0  0  0  0  0  0  0  0
    3.5201    9.3544    3.1309 N   0  0  0  0  0  0  0  0  0  0  0  0
    2.9650    9.4696    1.7835 C   0  0  0  0  0  0  0  0  0  0  0  0
    2.6570    9.5968    4.2527 C   0  0  0  0  0  0  0  0  0  0  0  0
    3.0756    9.4611    5.4335 O   0  0  0  0  0  0  0  0  0  0  0  0
   10.4065   10.1587    3.0899 C   0  0  0  0  0  0  0  0  0  0  0  0
   11.8560    9.6807    3.2551 C   0  0  0  0  0  0  0  0  0  0  0  0
   15.0823    7.0604    0.8851 H   0  0  0  0  0  0  0  0  0  0  0  0
   13.3758    6.8820    0.3477 H   0  0  0  0  0  0  0  0  0  0  0  0
   13.9075    6.1867    1.9347 H   0  0  0  0  0  0  0  0  0  0  0  0
   13.8820    9.0581    1.1114 H   0  0  0  0  0  0  0  0  0  0  0  0
   14.3781    8.3022    3.8674 H   0  0  0  0  0  0  0  0  0  0  0  0
   14.5962    9.8060    3.0876 H   0  0  0  0  0  0  0  0  0  0  0  0
   15.5894    8.5022    2.6965 H   0  0  0  0  0  0  0  0  0  0  0  0
   11.8013    9.0085    1.2382 H   0  0  0  0  0  0  0  0  0  0  0  0
   11.3707    6.9867    3.4869 H   0  0  0  0  0  0  0  0  0  0  0  0
   11.4617    6.5570    1.7409 H   0  0  0  0  0  0  0  0  0  0  0  0
    9.1123    6.9619    2.4079 H   0  0  0  0  0  0  0  0  0  0  0  0
    9.6566    8.1230    1.1520 H   0  0  0  0  0  0  0  0  0  0  0  0
    9.4423    8.5813    4.1950 H   0  0  0  0  0  0  0  0  0  0  0  0
    7.5063    9.6601    4.9558 H   0  0  0  0  0  0  0  0  0  0  0  0
    5.3580   10.5173    4.7566 H   0  0  0  0  0  0  0  0  0  0  0  0
    5.6989   10.9533    3.0481 H   0  0  0  0  0  0  0  0  0  0  0  0
    5.3362    8.5286    2.3899 H   0  0  0  0  0  0  0  0  0  0  0  0
    4.9568    8.1289    4.0873 H   0  0  0  0  0  0  0  0  0  0  0  0
    3.7352    9.2862    1.0049 H   0  0  0  0  0  0  0  0  0  0  0  0
    2.5610   10.4931    1.6332 H   0  0  0  0  0  0  0  0  0  0  0  0
    2.1455    8.7319    1.6522 H   0  0  0  0  0  0  0  0  0  0  0  0
    1.6295    9.8977    4.0910 H   0  0  0  0  0  0  0  0  0  0  0  0
   10.1736   10.8895    3.8952 H   0  0  0  0  0  0  0  0  0  0  0  0
   10.3026   10.6862    2.1151 H   0  0  0  0  0  0  0  0  0  0  0  0
   12.0220    9.2949    4.2848 H   0  0  0  0  0  0  0  0  0  0  0  0
   12.5088   10.5642    3.0950 H   0  0  0  0  0  0  0  0  0  0  0  0
  1  2  1  0
  2  3  1  0
  2  4  1  0
  4  5  1  0
  5  6  1  0
  6  7  1  0
  7  8  1  0
  8  9  2  0
  8 10  1  0
 10 11  1  0
 11 12  1  0
 12 13  1  0
 13 14  1  0
 13 15  1  0
 15 16  2  0
  7 17  1  0
 17 18  1  0
 18  4  1  0
  1 19  1  0
  1 20  1  0
  1 21  1  0
  2 22  1  0
  3 23  1  0
  3 24  1  0
  3 25  1  0
  4 26  1  0
  5 27  1  0
  5 28  1  0
  6 29  1  0
  6 30  1  0
  7 31  1  0
 10 32  1  0
 11 33  1  0
 11 34  1  0
 12 35  1  0
 12 36  1  0
 14 37  1  0
 14 38  1  0
 14 39  1  0
 15 40  1  0
 17 41  1  0
 17 42  1  0
 18 43  1  0
 18 44  1  0
M  CHG  1   3   1
M  END
>  <EmbedRMS>  (139) 
0.18265891910600293

$$$$

     RDKit          3D

 47 47  0  0  0  0  0  0  0  0999 V2000
    4.0214   13.3522    2.5566 C   0  0  0  0  0  0  0  0  0  0  0  0
    4.7756   12.5966    3.6363 C   0  0  0  0  0  0  0  0  0  0  0  0
    4.0143   12.2860    4.7633 O   0  0  0  0  0  0  0  0  0  0  0  0
    5.6875   11.4819    3.0901 C   0  0  0  0  0  0  0  0  0  0  0  0
    5.7402   10.1490    3.8648 C   0  0  0  0  0  0  0  0  0  0  0  0
    4.8838    9.0873    3.1657 C   0  0  0  0  0  0  0  0  0  0  0  0
    7.1269    9.6809    3.9909 N   0  0  0  0  0  0  0  0  0  0  0  0
    8.0073    9.4586    2.8780 C   0  0  0  0  0  0  0  0  0  0  0  0
    7.6149    9.6839    1.6976 O   0  0  0  0  0  0  0  0  0  0  0  0
    9.4180    8.9815    3.1226 C   0  0  0  0  0  0  0  0  0  0  0  0
    9.7831    7.9341    2.0765 C   0  0  0  0  0  0  0  0  0  0  0  0
   11.1467    7.3152    2.3211 C   0  0  0  0  0  0  0  0  0  0  0  0
   12.2319    8.2994    2.7962 C   0  0  0  0  0  0  0  0  0  0  0  0
   13.7093    7.9158    2.4300 C   0  0  0  0  0  0  0  0  0  0  0  0
   13.9321    7.3328    1.0262 C   0  0  0  0  0  0  0  0  0  0  0  0
   14.6472    9.0177    2.6729 N   0  0  0  0  0  4  0  0  0  0  0  0
   11.8827    9.7894    2.9946 C   0  0  0  0  0  0  0  0  0  0  0  0
   10.3895   10.1667    3.0647 C   0  0  0  0  0  0  0  0  0  0  0  0
    4.7172   13.6933    1.7597 H   0  0  0  0  0  0  0  0  0  0  0  0
    3.5168   14.2435    2.9871 H   0  0  0  0  0  0  0  0  0  0  0  0
    3.2514   12.6908    2.1061 H   0  0  0  0  0  0  0  0  0  0  0  0
    5.5043   13.3622    4.0009 H   0  0  0  0  0  0  0  0  0  0  0  0
    3.6737   13.1390    5.1423 H   0  0  0  0  0  0  0  0  0  0  0  0
    6.7187   11.9001    3.0259 H   0  0  0  0  0  0  0  0  0  0  0  0
    5.4221   11.2808    2.0276 H   0  0  0  0  0  0  0  0  0  0  0  0
    5.3401   10.2834    4.8922 H   0  0  0  0  0  0  0  0  0  0  0  0
    5.2281    8.8946    2.1285 H   0  0  0  0  0  0  0  0  0  0  0  0
    3.8245    9.4204    3.1320 H   0  0  0  0  0  0  0  0  0  0  0  0
    4.9308    8.1348    3.7351 H   0  0  0  0  0  0  0  0  0  0  0  0
    7.4995    9.5284    4.9554 H   0  0  0  0  0  0  0  0  0  0  0  0
    9.4800    8.5107    4.1292 H   0  0  0  0  0  0  0  0  0  0  0  0
    9.0195    7.1240    2.0677 H   0  0  0  0  0  0  0  0  0  0  0  0
    9.7857    8.4034    1.0661 H   0  0  0  0  0  0  0  0  0  0  0  0
   11.4300    6.8344    1.3663 H   0  0  0  0  0  0  0  0  0  0  0  0
   11.0337    6.4802    3.0514 H   0  0  0  0  0  0  0  0  0  0  0  0
   12.2358    8.0304    3.8809 H   0  0  0  0  0  0  0  0  0  0  0  0
   14.0068    7.0863    3.1162 H   0  0  0  0  0  0  0  0  0  0  0  0
   15.0165    7.2748    0.7925 H   0  0  0  0  0  0  0  0  0  0  0  0
   13.4416    7.9752    0.2644 H   0  0  0  0  0  0  0  0  0  0  0  0
   13.5360    6.2980    0.9569 H   0  0  0  0  0  0  0  0  0  0  0  0
   14.5066    9.7878    1.9801 H   0  0  0  0  0  0  0  0  0  0  0  0
   14.5395    9.3818    3.6468 H   0  0  0  0  0  0  0  0  0  0  0  0
   15.6306    8.6719    2.5832 H   0  0  0  0  0  0  0  0  0  0  0  0
   12.3902   10.1942    3.9001 H   0  0  0  0  0  0  0  0  0  0  0  0
   12.3092   10.3467    2.1337 H   0  0  0  0  0  0  0  0  0  0  0  0
   10.2157   10.8130    3.9535 H   0  0  0  0  0  0  0  0  0  0  0  0
   10.1461   10.7885    2.1727 H   0  0  0  0  0  0  0  0  0  0  0  0
  1  2  1  0
  2  3  1  0
  2  4  1  0
  4  5  1  0
  5  6  1  0
  5  7  1  0
  7  8  1  0
  8  9  2  0
  8 10  1  0
 10 11  1  0
 11 12  1  0
 12 13  1  0
 13 14  1  0
 14 15  1  0
 14 16  1  0
 13 17  1  0
 17 18  1  0
 18 10  1  0
  1 19  1  0
  1 20  1  0
  1 21  1  0
  2 22  1  0
  3 23  1  0
  4 24  1  0
  4 25  1  0
  5 26  1  0
  6 27  1  0
  6 28  1  0
  6 29  1  0
  7 30  1  0
 10 31  1  0
 11 32  1  0
 11 33  1  0
 12 34  1  0
 12 35  1  0
 13 36  1  0
 14 37  1  0
 15 38  1  0
 15 39  1  0
 15 40  1  0
 16 41  1  0
 16 42  1  0
 16 43  1  0
 17 44  1  0
 17 45  1  0
 18 46  1  0
 18 47  1  0
M  CHG  1  16   1
M  END
>  <EmbedRMS>  (140) 
0.2420585721551156

$$$$

     RDKit          3D

 47 47  0  0  0  0  0  0  0  0999 V2000
    1.9171   12.5917    3.6546 C   0  0  0  0  0  0  0  0  0  0  0  0
    3.2040   12.0812    4.2310 C   0  0  0  0  0  0  0  0  0  0  0  0
    4.3704   12.1340    3.2403 C   0  0  0  0  0  0  0  0  0  0  0  0
    5.5701   11.5575    4.0060 C   0  0  0  0  0  0  0  0  0  0  0  0
    6.6276   12.4313    4.1437 O   0  0  0  0  0  0  0  0  0  0  0  0
    5.8355   10.0651    3.7786 C   0  0  0  0  0  0  0  0  0  0  0  0
    7.2476    9.7138    3.9028 N   0  0  0  0  0  0  0  0  0  0  0  0
    8.0123    9.5271    2.7073 C   0  0  0  0  0  0  0  0  0  0  0  0
    7.4511    9.6723    1.5927 O   0  0  0  0  0  0  0  0  0  0  0  0
    9.4648    9.1978    2.6489 C   0  0  0  0  0  0  0  0  0  0  0  0
    9.7746    7.7157    2.4327 C   0  0  0  0  0  0  0  0  0  0  0  0
   11.2714    7.3628    2.5404 C   0  0  0  0  0  0  0  0  0  0  0  0
   12.1520    8.5850    2.2326 C   0  0  0  0  0  0  0  0  0  0  0  0
   13.6613    8.3382    1.9332 C   0  0  0  0  0  0  0  0  0  0  0  0
   14.0183    7.0430    1.2244 C   0  0  0  0  0  0  0  0  0  0  0  0
   14.6233    8.7712    2.9407 N   0  0  0  0  0  4  0  0  0  0  0  0
   11.8999    9.6855    3.2847 C   0  0  0  0  0  0  0  0  0  0  0  0
   10.4166   10.0801    3.4353 C   0  0  0  0  0  0  0  0  0  0  0  0
    1.6206   11.9803    2.7757 H   0  0  0  0  0  0  0  0  0  0  0  0
    2.0298   13.6512    3.3396 H   0  0  0  0  0  0  0  0  0  0  0  0
    1.1122   12.5308    4.4177 H   0  0  0  0  0  0  0  0  0  0  0  0
    3.4292   12.7064    5.1253 H   0  0  0  0  0  0  0  0  0  0  0  0
    3.0332   11.0320    4.5634 H   0  0  0  0  0  0  0  0  0  0  0  0
    4.1397   11.5518    2.3223 H   0  0  0  0  0  0  0  0  0  0  0  0
    4.5651   13.1903    2.9519 H   0  0  0  0  0  0  0  0  0  0  0  0
    5.2977   11.5062    5.0869 H   0  0  0  0  0  0  0  0  0  0  0  0
    7.0618   12.4727    3.2525 H   0  0  0  0  0  0  0  0  0  0  0  0
    5.4291    9.7449    2.7961 H   0  0  0  0  0  0  0  0  0  0  0  0
    5.2618    9.4534    4.5122 H   0  0  0  0  0  0  0  0  0  0  0  0
    7.7041    9.6772    4.8414 H   0  0  0  0  0  0  0  0  0  0  0  0
    9.7156    9.5879    1.6330 H   0  0  0  0  0  0  0  0  0  0  0  0
    9.2225    7.1211    3.1929 H   0  0  0  0  0  0  0  0  0  0  0  0
    9.3917    7.3951    1.4367 H   0  0  0  0  0  0  0  0  0  0  0  0
   11.5014    6.9996    3.5662 H   0  0  0  0  0  0  0  0  0  0  0  0
   11.4799    6.5298    1.8376 H   0  0  0  0  0  0  0  0  0  0  0  0
   11.7621    8.9763    1.2640 H   0  0  0  0  0  0  0  0  0  0  0  0
   13.8529    9.0637    1.1035 H   0  0  0  0  0  0  0  0  0  0  0  0
   13.3451    6.8734    0.3565 H   0  0  0  0  0  0  0  0  0  0  0  0
   13.9277    6.1915    1.9310 H   0  0  0  0  0  0  0  0  0  0  0  0
   15.0634    7.0757    0.8478 H   0  0  0  0  0  0  0  0  0  0  0  0
   14.4380    8.2636    3.8356 H   0  0  0  0  0  0  0  0  0  0  0  0
   14.5733    9.8023    3.1029 H   0  0  0  0  0  0  0  0  0  0  0  0
   15.5986    8.5511    2.6330 H   0  0  0  0  0  0  0  0  0  0  0  0
   12.2854    9.3458    4.2711 H   0  0  0  0  0  0  0  0  0  0  0  0
   12.4629   10.6004    2.9992 H   0  0  0  0  0  0  0  0  0  0  0  0
   10.1437   10.0118    4.5105 H   0  0  0  0  0  0  0  0  0  0  0  0
   10.2764   11.1456    3.1406 H   0  0  0  0  0  0  0  0  0  0  0  0
  1  2  1  0
  2  3  1  0
  3  4  1  0
  4  5  1  0
  4  6  1  0
  6  7  1  0
  7  8  1  0
  8  9  2  0
  8 10  1  0
 10 11  1  0
 11 12  1  0
 12 13  1  0
 13 14  1  0
 14 15  1  0
 14 16  1  0
 13 17  1  0
 17 18  1  0
 18 10  1  0
  1 19  1  0
  1 20  1  0
  1 21  1  0
  2 22  1  0
  2 23  1  0
  3 24  1  0
  3 25  1  0
  4 26  1  0
  5 27  1  0
  6 28  1  0
  6 29  1  0
  7 30  1  0
 10 31  1  0
 11 32  1  0
 11 33  1  0
 12 34  1  0
 12 35  1  0
 13 36  1  0
 14 37  1  0
 15 38  1  0
 15 39  1  0
 15 40  1  0
 16 41  1  0
 16 42  1  0
 16 43  1  0
 17 44  1  0
 17 45  1  0
 18 46  1  0
 18 47  1  0
M  CHG  1  16   1
M  END
>  <EmbedRMS>  (141) 
0.32366970082969293

$$$$

     RDKit          3D

 44 44  0  0  0  0  0  0  0  0999 V2000
    2.3016    7.1809    3.7627 C   0  0  0  0  0  0  0  0  0  0  0  0
    3.7591    6.7632    3.9122 C   0  0  0  0  0  0  0  0  0  0  0  0
    4.5812    7.9043    4.3035 N   0  0  0  0  0  0  0  0  0  0  0  0
    4.9498    8.9449    3.3900 C   0  0  0  0  0  0  0  0  0  0  0  0
    4.5842    8.8944    2.1823 O   0  0  0  0  0  0  0  0  0  0  0  0
    5.8128   10.0772    3.8718 C   0  0  0  0  0  0  0  0  0  0  0  0
    7.2242    9.6665    3.9293 N   0  0  0  0  0  0  0  0  0  0  0  0
    7.9880    9.5344    2.7186 C   0  0  0  0  0  0  0  0  0  0  0  0
    7.4126    9.7009    1.6163 O   0  0  0  0  0  0  0  0  0  0  0  0
    9.4499    9.2028    2.6235 C   0  0  0  0  0  0  0  0  0  0  0  0
    9.7352    7.7229    2.5355 C   0  0  0  0  0  0  0  0  0  0  0  0
   11.1741    7.4147    2.1503 C   0  0  0  0  0  0  0  0  0  0  0  0
   12.2290    8.2933    2.8211 C   0  0  0  0  0  0  0  0  0  0  0  0
   13.7073    7.9211    2.4414 C   0  0  0  0  0  0  0  0  0  0  0  0
   13.9231    7.3283    1.0387 C   0  0  0  0  0  0  0  0  0  0  0  0
   14.6420    9.0270    2.6703 N   0  0  0  0  0  4  0  0  0  0  0  0
   11.8780    9.7839    2.9960 C   0  0  0  0  0  0  0  0  0  0  0  0
   10.4227   10.0504    3.4130 C   0  0  0  0  0  0  0  0  0  0  0  0
    1.6842    6.2933    3.5103 H   0  0  0  0  0  0  0  0  0  0  0  0
    2.1918    7.9309    2.9518 H   0  0  0  0  0  0  0  0  0  0  0  0
    1.9307    7.6160    4.7150 H   0  0  0  0  0  0  0  0  0  0  0  0
    3.8263    5.9766    4.6948 H   0  0  0  0  0  0  0  0  0  0  0  0
    4.1344    6.3323    2.9589 H   0  0  0  0  0  0  0  0  0  0  0  0
    4.9671    7.9262    5.2746 H   0  0  0  0  0  0  0  0  0  0  0  0
    5.4777   10.3763    4.8880 H   0  0  0  0  0  0  0  0  0  0  0  0
    5.6986   10.9646    3.2118 H   0  0  0  0  0  0  0  0  0  0  0  0
    7.6884    9.5229    4.8539 H   0  0  0  0  0  0  0  0  0  0  0  0
    9.7015    9.5340    1.5852 H   0  0  0  0  0  0  0  0  0  0  0  0
    9.5308    7.2725    3.5314 H   0  0  0  0  0  0  0  0  0  0  0  0
    9.0507    7.2377    1.8038 H   0  0  0  0  0  0  0  0  0  0  0  0
   11.2472    7.5615    1.0511 H   0  0  0  0  0  0  0  0  0  0  0  0
   11.3806    6.3417    2.3602 H   0  0  0  0  0  0  0  0  0  0  0  0
   12.1624    7.9507    3.8811 H   0  0  0  0  0  0  0  0  0  0  0  0
   14.0110    7.0970    3.1302 H   0  0  0  0  0  0  0  0  0  0  0  0
   15.0002    7.1188    0.8659 H   0  0  0  0  0  0  0  0  0  0  0  0
   13.5731    8.0446    0.2655 H   0  0  0  0  0  0  0  0  0  0  0  0
   13.3789    6.3674    0.9251 H   0  0  0  0  0  0  0  0  0  0  0  0
   15.6229    8.7091    2.4932 H   0  0  0  0  0  0  0  0  0  0  0  0
   14.4331    9.8274    2.0307 H   0  0  0  0  0  0  0  0  0  0  0  0
   14.5973    9.3372    3.6676 H   0  0  0  0  0  0  0  0  0  0  0  0
   12.0574   10.2948    2.0252 H   0  0  0  0  0  0  0  0  0  0  0  0
   12.5364   10.2610    3.7525 H   0  0  0  0  0  0  0  0  0  0  0  0
   10.1908   11.1301    3.2782 H   0  0  0  0  0  0  0  0  0  0  0  0
   10.3062    9.8088    4.4918 H   0  0  0  0  0  0  0  0  0  0  0  0
  1  2  1  0
  2  3  1  0
  3  4  1  0
  4  5  2  0
  4  6  1  0
  6  7  1  0
  7  8  1  0
  8  9  2  0
  8 10  1  0
 10 11  1  0
 11 12  1  0
 12 13  1  0
 13 14  1  0
 14 15  1  0
 14 16  1  0
 13 17  1  0
 17 18  1  0
 18 10  1  0
  1 19  1  0
  1 20  1  0
  1 21  1  0
  2 22  1  0
  2 23  1  0
  3 24  1  0
  6 25  1  0
  6 26  1  0
  7 27  1  0
 10 28  1  0
 11 29  1  0
 11 30  1  0
 12 31  1  0
 12 32  1  0
 13 33  1  0
 14 34  1  0
 15 35  1  0
 15 36  1  0
 15 37  1  0
 16 38  1  0
 16 39  1  0
 16 40  1  0
 17 41  1  0
 17 42  1  0
 18 43  1  0
 18 44  1  0
M  CHG  1  16   1
M  END
>  <EmbedRMS>  (142) 
0.2623404901372522

$$$$

     RDKit          3D

 38 38  0  0  0  0  0  0  0  0999 V2000
   14.0485    7.2193    1.1052 C   0  0  0  0  0  0  0  0  0  0  0  0
   13.6494    7.9557    2.3993 C   0  0  0  0  0  0  0  0  0  0  0  0
   14.6287    9.0157    2.6714 N   0  0  0  0  0  4  0  0  0  0  0  0
   12.1999    8.5121    2.2739 C   0  0  0  0  0  0  0  0  0  0  0  0
   11.1802    7.3659    2.4359 C   0  0  0  0  0  0  0  0  0  0  0  0
    9.7714    7.8716    2.1578 C   0  0  0  0  0  0  0  0  0  0  0  0
    9.4086    8.9939    3.1360 C   0  0  0  0  0  0  0  0  0  0  0  0
    8.0119    9.4795    2.8745 C   0  0  0  0  0  0  0  0  0  0  0  0
    7.6187    9.6893    1.6921 O   0  0  0  0  0  0  0  0  0  0  0  0
    7.1292    9.6965    3.9807 N   0  0  0  0  0  0  0  0  0  0  0  0
    5.7624   10.1694    3.8094 C   0  0  0  0  0  0  0  0  0  0  0  0
    5.7587   11.6573    3.4724 C   0  0  0  0  0  0  0  0  0  0  0  0
    4.4421   12.1064    3.3200 O   0  0  0  0  0  0  0  0  0  0  0  0
   10.4229   10.1485    3.0671 C   0  0  0  0  0  0  0  0  0  0  0  0
   11.8582    9.6379    3.2816 C   0  0  0  0  0  0  0  0  0  0  0  0
   15.0958    6.8574    1.1814 H   0  0  0  0  0  0  0  0  0  0  0  0
   13.9784    7.8974    0.2278 H   0  0  0  0  0  0  0  0  0  0  0  0
   13.4173    6.3269    0.9275 H   0  0  0  0  0  0  0  0  0  0  0  0
   13.6910    7.2251    3.2394 H   0  0  0  0  0  0  0  0  0  0  0  0
   14.4960    9.3935    3.6370 H   0  0  0  0  0  0  0  0  0  0  0  0
   15.6002    8.6298    2.6308 H   0  0  0  0  0  0  0  0  0  0  0  0
   14.5433    9.7863    1.9687 H   0  0  0  0  0  0  0  0  0  0  0  0
   12.0876    8.9473    1.2540 H   0  0  0  0  0  0  0  0  0  0  0  0
   11.2347    6.9393    3.4625 H   0  0  0  0  0  0  0  0  0  0  0  0
   11.3816    6.5452    1.7192 H   0  0  0  0  0  0  0  0  0  0  0  0
    9.0563    7.0278    2.2771 H   0  0  0  0  0  0  0  0  0  0  0  0
    9.7089    8.2307    1.1059 H   0  0  0  0  0  0  0  0  0  0  0  0
    9.4455    8.5679    4.1642 H   0  0  0  0  0  0  0  0  0  0  0  0
    7.4525    9.4673    4.9477 H   0  0  0  0  0  0  0  0  0  0  0  0
    5.2572    9.5890    3.0069 H   0  0  0  0  0  0  0  0  0  0  0  0
    5.2000   10.0100    4.7552 H   0  0  0  0  0  0  0  0  0  0  0  0
    6.2767   12.2336    4.2730 H   0  0  0  0  0  0  0  0  0  0  0  0
    6.3008   11.8316    2.5198 H   0  0  0  0  0  0  0  0  0  0  0  0
    4.0707   12.2170    4.2342 H   0  0  0  0  0  0  0  0  0  0  0  0
   10.3565   10.6518    2.0766 H   0  0  0  0  0  0  0  0  0  0  0  0
   10.1846   10.9008    3.8506 H   0  0  0  0  0  0  0  0  0  0  0  0
   12.5372   10.5052    3.1416 H   0  0  0  0  0  0  0  0  0  0  0  0
   11.9739    9.2660    4.3236 H   0  0  0  0  0  0  0  0  0  0  0  0
  1  2  1  0
  2  3  1  0
  2  4  1  0
  4  5  1  0
  5  6  1  0
  6  7  1  0
  7  8  1  0
  8  9  2  0
  8 10  1  0
 10 11  1  0
 11 12  1  0
 12 13  1  0
  7 14  1  0
 14 15  1  0
 15  4  1  0
  1 16  1  0
  1 17  1  0
  1 18  1  0
  2 19  1  0
  3 20  1  0
  3 21  1  0
  3 22  1  0
  4 23  1  0
  5 24  1  0
  5 25  1  0
  6 26  1  0
  6 27  1  0
  7 28  1  0
 10 29  1  0
 11 30  1  0
 11 31  1  0
 12 32  1  0
 12 33  1  0
 13 34  1  0
 14 35  1  0
 14 36  1  0
 15 37  1  0
 15 38  1  0
M  CHG  1   3   1
M  END
>  <EmbedRMS>  (143) 
0.031392693704421666

$$$$

     RDKit          3D

 38 38  0  0  0  0  0  0  0  0999 V2000
   14.0485    7.2193    1.1052 C   0  0  0  0  0  0  0  0  0  0  0  0
   13.6494    7.9557    2.3993 C   0  0  0  0  0  0  0  0  0  0  0  0
   14.6287    9.0157    2.6714 N   0  0  0  0  0  4  0  0  0  0  0  0
   12.1999    8.5121    2.2739 C   0  0  0  0  0  0  0  0  0  0  0  0
   11.1802    7.3659    2.4359 C   0  0  0  0  0  0  0  0  0  0  0  0
    9.7714    7.8716    2.1578 C   0  0  0  0  0  0  0  0  0  0  0  0
    9.4086    8.9939    3.1360 C   0  0  0  0  0  0  0  0  0  0  0  0
    8.0119    9.4795    2.8745 C   0  0  0  0  0  0  0  0  0  0  0  0
    7.6187    9.6893    1.6921 O   0  0  0  0  0  0  0  0  0  0  0  0
    7.1292    9.6965    3.9807 N   0  0  0  0  0  0  0  0  0  0  0  0
    5.7624   10.1694    3.8094 C   0  0  0  0  0  0  0  0  0  0  0  0
    5.7587   11.6573    3.4724 C   0  0  0  0  0  0  0  0  0  0  0  0
    4.4421   12.1064    3.3200 O   0  0  0  0  0  0  0  0  0  0  0  0
   10.4229   10.1485    3.0671 C   0  0  0  0  0  0  0  0  0  0  0  0
   11.8582    9.6379    3.2816 C   0  0  0  0  0  0  0  0  0  0  0  0
   15.0958    6.8574    1.1814 H   0  0  0  0  0  0  0  0  0  0  0  0
   13.9784    7.8974    0.2278 H   0  0  0  0  0  0  0  0  0  0  0  0
   13.4173    6.3269    0.9275 H   0  0  0  0  0  0  0  0  0  0  0  0
   13.6910    7.2251    3.2394 H   0  0  0  0  0  0  0  0  0  0  0  0
   14.4960    9.3935    3.6370 H   0  0  0  0  0  0  0  0  0  0  0  0
   15.6002    8.6298    2.6308 H   0  0  0  0  0  0  0  0  0  0  0  0
   14.5433    9.7863    1.9687 H   0  0  0  0  0  0  0  0  0  0  0  0
   12.0876    8.9473    1.2540 H   0  0  0  0  0  0  0  0  0  0  0  0
   11.2347    6.9393    3.4625 H   0  0  0  0  0  0  0  0  0  0  0  0
   11.3816    6.5452    1.7192 H   0  0  0  0  0  0  0  0  0  0  0  0
    9.0563    7.0278    2.2771 H   0  0  0  0  0  0  0  0  0  0  0  0
    9.7089    8.2307    1.1059 H   0  0  0  0  0  0  0  0  0  0  0  0
    9.4455    8.5679    4.1642 H   0  0  0  0  0  0  0  0  0  0  0  0
    7.4525    9.4673    4.9477 H   0  0  0  0  0  0  0  0  0  0  0  0
    5.2572    9.5890    3.0069 H   0  0  0  0  0  0  0  0  0  0  0  0
    5.2000   10.0100    4.7552 H   0  0  0  0  0  0  0  0  0  0  0  0
    6.2767   12.2336    4.2730 H   0  0  0  0  0  0  0  0  0  0  0  0
    6.3008   11.8316    2.5198 H   0  0  0  0  0  0  0  0  0  0  0  0
    4.0707   12.2170    4.2342 H   0  0  0  0  0  0  0  0  0  0  0  0
   10.3565   10.6518    2.0766 H   0  0  0  0  0  0  0  0  0  0  0  0
   10.1846   10.9008    3.8506 H   0  0  0  0  0  0  0  0  0  0  0  0
   12.5372   10.5052    3.1416 H   0  0  0  0  0  0  0  0  0  0  0  0
   11.9739    9.2660    4.3236 H   0  0  0  0  0  0  0  0  0  0  0  0
  1  2  1  0
  2  3  1  0
  2  4  1  0
  4  5  1  0
  5  6  1  0
  6  7  1  0
  7  8  1  0
  8  9  2  0
  8 10  1  0
 10 11  1  0
 11 12  1  0
 12 13  1  0
  7 14  1  0
 14 15  1  0
 15  4  1  0
  1 16  1  0
  1 17  1  0
  1 18  1  0
  2 19  1  0
  3 20  1  0
  3 21  1  0
  3 22  1  0
  4 23  1  0
  5 24  1  0
  5 25  1  0
  6 26  1  0
  6 27  1  0
  7 28  1  0
 10 29  1  0
 11 30  1  0
 11 31  1  0
 12 32  1  0
 12 33  1  0
 13 34  1  0
 14 35  1  0
 14 36  1  0
 15 37  1  0
 15 38  1  0
M  CHG  1   3   1
M  END
>  <EmbedRMS>  (144) 
0.031392693704421666

$$$$

     RDKit          3D

 44 44  0  0  0  0  0  0  0  0999 V2000
   14.0121    7.0506    1.2525 C   0  0  0  0  0  0  0  0  0  0  0  0
   13.6016    8.3243    1.9896 C   0  0  0  0  0  0  0  0  0  0  0  0
   14.7037    8.8917    2.7690 N   0  0  0  0  0  4  0  0  0  0  0  0
   12.2631    8.3265    2.7679 C   0  0  0  0  0  0  0  0  0  0  0  0
   11.1814    7.4387    2.1356 C   0  0  0  0  0  0  0  0  0  0  0  0
    9.7474    7.7242    2.5476 C   0  0  0  0  0  0  0  0  0  0  0  0
    9.4540    9.1994    2.6430 C   0  0  0  0  0  0  0  0  0  0  0  0
    7.9938    9.5221    2.7258 C   0  0  0  0  0  0  0  0  0  0  0  0
    7.4350    9.6816    1.6176 O   0  0  0  0  0  0  0  0  0  0  0  0
    7.2188    9.6578    3.9295 N   0  0  0  0  0  0  0  0  0  0  0  0
    5.8102   10.0779    3.8664 C   0  0  0  0  0  0  0  0  0  0  0  0
    4.9393    8.9582    3.3431 C   0  0  0  0  0  0  0  0  0  0  0  0
    4.7851    7.9458    4.0801 O   0  0  0  0  0  0  0  0  0  0  0  0
    4.2938    8.9996    2.0460 N   0  0  0  0  0  0  0  0  0  0  0  0
    3.5293    7.8309    1.5965 C   0  0  0  0  0  0  0  0  0  0  0  0
    4.3152   10.2043    1.2080 C   0  0  0  0  0  0  0  0  0  0  0  0
   10.3882   10.0185    3.4877 C   0  0  0  0  0  0  0  0  0  0  0  0
   11.8515    9.7801    3.1235 C   0  0  0  0  0  0  0  0  0  0  0  0
   13.2678    6.7644    0.4814 H   0  0  0  0  0  0  0  0  0  0  0  0
   14.1184    6.2177    1.9790 H   0  0  0  0  0  0  0  0  0  0  0  0
   14.9834    7.1931    0.7324 H   0  0  0  0  0  0  0  0  0  0  0  0
   13.4368    9.0285    1.1410 H   0  0  0  0  0  0  0  0  0  0  0  0
   14.5220    9.8926    3.0062 H   0  0  0  0  0  0  0  0  0  0  0  0
   15.5932    8.8664    2.2191 H   0  0  0  0  0  0  0  0  0  0  0  0
   14.8392    8.3422    3.6484 H   0  0  0  0  0  0  0  0  0  0  0  0
   12.4712    7.8394    3.7472 H   0  0  0  0  0  0  0  0  0  0  0  0
   11.4088    6.3660    2.3234 H   0  0  0  0  0  0  0  0  0  0  0  0
   11.2137    7.5918    1.0347 H   0  0  0  0  0  0  0  0  0  0  0  0
    9.0561    7.2353    1.8247 H   0  0  0  0  0  0  0  0  0  0  0  0
    9.5656    7.2672    3.5449 H   0  0  0  0  0  0  0  0  0  0  0  0
    9.7292    9.5585    1.6197 H   0  0  0  0  0  0  0  0  0  0  0  0
    7.6736    9.5047    4.8572 H   0  0  0  0  0  0  0  0  0  0  0  0
    5.7252   11.0043    3.2641 H   0  0  0  0  0  0  0  0  0  0  0  0
    5.4653   10.3346    4.8910 H   0  0  0  0  0  0  0  0  0  0  0  0
    2.7010    7.6288    2.3080 H   0  0  0  0  0  0  0  0  0  0  0  0
    3.0918    7.9792    0.5870 H   0  0  0  0  0  0  0  0  0  0  0  0
    4.1965    6.9442    1.5522 H   0  0  0  0  0  0  0  0  0  0  0  0
    5.3364   10.4398    0.8665 H   0  0  0  0  0  0  0  0  0  0  0  0
    3.6863   10.0864    0.3010 H   0  0  0  0  0  0  0  0  0  0  0  0
    3.9060   11.0645    1.7784 H   0  0  0  0  0  0  0  0  0  0  0  0
   10.1496   11.1014    3.3914 H   0  0  0  0  0  0  0  0  0  0  0  0
   10.2360    9.7336    4.5515 H   0  0  0  0  0  0  0  0  0  0  0  0
   12.0658   10.4404    2.2542 H   0  0  0  0  0  0  0  0  0  0  0  0
   12.4738   10.1512    3.9668 H   0  0  0  0  0  0  0  0  0  0  0  0
  1  2  1  0
  2  3  1  0
  2  4  1  0
  4  5  1  0
  5  6  1  0
  6  7  1  0
  7  8  1  0
  8  9  2  0
  8 10  1  0
 10 11  1  0
 11 12  1  0
 12 13  2  0
 12 14  1  0
 14 15  1  0
 14 16  1  0
  7 17  1  0
 17 18  1  0
 18  4  1  0
  1 19  1  0
  1 20  1  0
  1 21  1  0
  2 22  1  0
  3 23  1  0
  3 24  1  0
  3 25  1  0
  4 26  1  0
  5 27  1  0
  5 28  1  0
  6 29  1  0
  6 30  1  0
  7 31  1  0
 10 32  1  0
 11 33  1  0
 11 34  1  0
 15 35  1  0
 15 36  1  0
 15 37  1  0
 16 38  1  0
 16 39  1  0
 16 40  1  0
 17 41  1  0
 17 42  1  0
 18 43  1  0
 18 44  1  0
M  CHG  1   3   1
M  END
>  <EmbedRMS>  (145) 
0.2932026556361357

$$$$

     RDKit          3D

 44 44  0  0  0  0  0  0  0  0999 V2000
   14.0491    7.2192    1.1051 C   0  0  0  0  0  0  0  0  0  0  0  0
   13.6500    7.9556    2.3992 C   0  0  0  0  0  0  0  0  0  0  0  0
   14.6293    9.0156    2.6713 N   0  0  0  0  0  4  0  0  0  0  0  0
   12.2006    8.5120    2.2737 C   0  0  0  0  0  0  0  0  0  0  0  0
   11.1810    7.3656    2.4354 C   0  0  0  0  0  0  0  0  0  0  0  0
    9.7725    7.8714    2.1574 C   0  0  0  0  0  0  0  0  0  0  0  0
    9.4108    8.9933    3.1361 C   0  0  0  0  0  0  0  0  0  0  0  0
    8.0151    9.4787    2.8758 C   0  0  0  0  0  0  0  0  0  0  0  0
    7.6204    9.6892    1.6937 O   0  0  0  0  0  0  0  0  0  0  0  0
    7.1346    9.6960    3.9832 N   0  0  0  0  0  0  0  0  0  0  0  0
    5.7678   10.1609    3.8061 C   0  0  0  0  0  0  0  0  0  0  0  0
    5.7622   11.6565    3.4838 C   0  0  0  0  0  0  0  0  0  0  0  0
    4.3436   12.1626    3.2210 C   0  0  0  0  0  0  0  0  0  0  0  0
    3.8501   11.7063    1.8820 C   0  0  0  0  0  0  0  0  0  0  0  0
    4.2143   12.4215    0.7027 N   0  0  0  0  0  0  0  0  0  0  0  0
    3.1435   10.6671    1.7911 O   0  0  0  0  0  0  0  0  0  0  0  0
   10.4241   10.1483    3.0669 C   0  0  0  0  0  0  0  0  0  0  0  0
   11.8592    9.6378    3.2815 C   0  0  0  0  0  0  0  0  0  0  0  0
   15.0964    6.8575    1.1811 H   0  0  0  0  0  0  0  0  0  0  0  0
   13.4181    6.3266    0.9275 H   0  0  0  0  0  0  0  0  0  0  0  0
   13.9786    7.8972    0.2276 H   0  0  0  0  0  0  0  0  0  0  0  0
   13.6916    7.2249    3.2393 H   0  0  0  0  0  0  0  0  0  0  0  0
   14.4966    9.3934    3.6369 H   0  0  0  0  0  0  0  0  0  0  0  0
   14.5439    9.7862    1.9686 H   0  0  0  0  0  0  0  0  0  0  0  0
   15.6007    8.6297    2.6306 H   0  0  0  0  0  0  0  0  0  0  0  0
   12.0884    8.9472    1.2538 H   0  0  0  0  0  0  0  0  0  0  0  0
   11.2356    6.9388    3.4619 H   0  0  0  0  0  0  0  0  0  0  0  0
   11.3824    6.5451    1.7185 H   0  0  0  0  0  0  0  0  0  0  0  0
    9.0572    7.0277    2.2768 H   0  0  0  0  0  0  0  0  0  0  0  0
    9.7098    8.2308    1.1057 H   0  0  0  0  0  0  0  0  0  0  0  0
    9.4484    8.5670    4.1642 H   0  0  0  0  0  0  0  0  0  0  0  0
    7.4577    9.4691    4.9509 H   0  0  0  0  0  0  0  0  0  0  0  0
    5.2810    9.5734    2.9985 H   0  0  0  0  0  0  0  0  0  0  0  0
    5.1987    9.9870    4.7457 H   0  0  0  0  0  0  0  0  0  0  0  0
    6.1818   12.2076    4.3536 H   0  0  0  0  0  0  0  0  0  0  0  0
    6.4088   11.8733    2.6056 H   0  0  0  0  0  0  0  0  0  0  0  0
    3.6527   11.8212    4.0230 H   0  0  0  0  0  0  0  0  0  0  0  0
    4.3478   13.2738    3.2410 H   0  0  0  0  0  0  0  0  0  0  0  0
    3.8840   12.0972   -0.2332 H   0  0  0  0  0  0  0  0  0  0  0  0
    4.8193   13.2706    0.7597 H   0  0  0  0  0  0  0  0  0  0  0  0
   10.1857   10.9005    3.8505 H   0  0  0  0  0  0  0  0  0  0  0  0
   10.3576   10.6515    2.0764 H   0  0  0  0  0  0  0  0  0  0  0  0
   11.9750    9.2659    4.3235 H   0  0  0  0  0  0  0  0  0  0  0  0
   12.5381   10.5051    3.1413 H   0  0  0  0  0  0  0  0  0  0  0  0
  1  2  1  0
  2  3  1  0
  2  4  1  0
  4  5  1  0
  5  6  1  0
  6  7  1  0
  7  8  1  0
  8  9  2  0
  8 10  1  0
 10 11  1  0
 11 12  1  0
 12 13  1  0
 13 14  1  0
 14 15  1  0
 14 16  2  0
  7 17  1  0
 17 18  1  0
 18  4  1  0
  1 19  1  0
  1 20  1  0
  1 21  1  0
  2 22  1  0
  3 23  1  0
  3 24  1  0
  3 25  1  0
  4 26  1  0
  5 27  1  0
  5 28  1  0
  6 29  1  0
  6 30  1  0
  7 31  1  0
 10 32  1  0
 11 33  1  0
 11 34  1  0
 12 35  1  0
 12 36  1  0
 13 37  1  0
 13 38  1  0
 15 39  1  0
 15 40  1  0
 17 41  1  0
 17 42  1  0
 18 43  1  0
 18 44  1  0
M  CHG  1   3   1
M  END
>  <EmbedRMS>  (146) 
0.029995600280996067

$$$$

     RDKit          3D

 45 46  0  0  0  0  0  0  0  0999 V2000
   14.0481    7.2192    1.1050 C   0  0  0  0  0  0  0  0  0  0  0  0
   13.6493    7.9554    2.3992 C   0  0  0  0  0  0  0  0  0  0  0  0
   14.6289    9.0153    2.6713 N   0  0  0  0  0  4  0  0  0  0  0  0
   12.1998    8.5120    2.2742 C   0  0  0  0  0  0  0  0  0  0  0  0
   11.1795    7.3662    2.4363 C   0  0  0  0  0  0  0  0  0  0  0  0
    9.7707    7.8726    2.1586 C   0  0  0  0  0  0  0  0  0  0  0  0
    9.4087    8.9959    3.1362 C   0  0  0  0  0  0  0  0  0  0  0  0
    8.0139    9.4845    2.8736 C   0  0  0  0  0  0  0  0  0  0  0  0
    7.6201    9.6913    1.6908 O   0  0  0  0  0  0  0  0  0  0  0  0
    7.1377    9.7228    3.9801 N   0  0  0  0  0  0  0  0  0  0  0  0
    5.7469   10.1152    3.8010 C   0  0  0  0  0  0  0  0  0  0  0  0
    4.9185    8.9169    3.3359 C   0  0  0  0  0  0  0  0  0  0  0  0
    3.4611    9.3261    3.1246 C   0  0  0  0  0  0  0  0  0  0  0  0
    2.7324    9.8502    4.1966 O   0  0  0  0  0  0  0  0  0  0  0  0
    3.1693    9.9708    1.7979 C   0  0  0  0  0  0  0  0  0  0  0  0
    2.6285    8.7596    1.9895 C   0  0  0  0  0  0  0  0  0  0  0  0
   10.4243   10.1492    3.0677 C   0  0  0  0  0  0  0  0  0  0  0  0
   11.8589    9.6376    3.2822 C   0  0  0  0  0  0  0  0  0  0  0  0
   13.4163    6.3273    0.9269 H   0  0  0  0  0  0  0  0  0  0  0  0
   13.9785    7.8975    0.2278 H   0  0  0  0  0  0  0  0  0  0  0  0
   15.0952    6.8565    1.1812 H   0  0  0  0  0  0  0  0  0  0  0  0
   13.6908    7.2246    3.2392 H   0  0  0  0  0  0  0  0  0  0  0  0
   15.6002    8.6293    2.6301 H   0  0  0  0  0  0  0  0  0  0  0  0
   14.5432    9.7861    1.9689 H   0  0  0  0  0  0  0  0  0  0  0  0
   14.4966    9.3927    3.6372 H   0  0  0  0  0  0  0  0  0  0  0  0
   12.0874    8.9474    1.2543 H   0  0  0  0  0  0  0  0  0  0  0  0
   11.3806    6.5453    1.7197 H   0  0  0  0  0  0  0  0  0  0  0  0
   11.2339    6.9398    3.4630 H   0  0  0  0  0  0  0  0  0  0  0  0
    9.0549    7.0295    2.2786 H   0  0  0  0  0  0  0  0  0  0  0  0
    9.7082    8.2311    1.1065 H   0  0  0  0  0  0  0  0  0  0  0  0
    9.4417    8.5702    4.1648 H   0  0  0  0  0  0  0  0  0  0  0  0
    7.5130    9.6609    4.9536 H   0  0  0  0  0  0  0  0  0  0  0  0
    5.6836   10.9460    3.0645 H   0  0  0  0  0  0  0  0  0  0  0  0
    5.3462   10.4850    4.7703 H   0  0  0  0  0  0  0  0  0  0  0  0
    5.3488    8.4893    2.4040 H   0  0  0  0  0  0  0  0  0  0  0  0
    4.9530    8.1249    4.1142 H   0  0  0  0  0  0  0  0  0  0  0  0
    2.5466    9.0773    4.7892 H   0  0  0  0  0  0  0  0  0  0  0  0
    2.4472   10.8154    1.8440 H   0  0  0  0  0  0  0  0  0  0  0  0
    4.0108    9.9907    1.0701 H   0  0  0  0  0  0  0  0  0  0  0  0
    1.5344    8.7527    2.1882 H   0  0  0  0  0  0  0  0  0  0  0  0
    3.1170    7.9241    1.4422 H   0  0  0  0  0  0  0  0  0  0  0  0
   10.1869   10.9016    3.8513 H   0  0  0  0  0  0  0  0  0  0  0  0
   10.3587   10.6527    2.0773 H   0  0  0  0  0  0  0  0  0  0  0  0
   12.5384   10.5044    3.1427 H   0  0  0  0  0  0  0  0  0  0  0  0
   11.9742    9.2651    4.3241 H   0  0  0  0  0  0  0  0  0  0  0  0
  1  2  1  0
  2  3  1  0
  2  4  1  0
  4  5  1  0
  5  6  1  0
  6  7  1  0
  7  8  1  0
  8  9  2  0
  8 10  1  0
 10 11  1  0
 11 12  1  0
 12 13  1  0
 13 14  1  0
 13 15  1  0
 15 16  1  0
  7 17  1  0
 17 18  1  0
 18  4  1  0
 16 13  1  0
  1 19  1  0
  1 20  1  0
  1 21  1  0
  2 22  1  0
  3 23  1  0
  3 24  1  0
  3 25  1  0
  4 26  1  0
  5 27  1  0
  5 28  1  0
  6 29  1  0
  6 30  1  0
  7 31  1  0
 10 32  1  0
 11 33  1  0
 11 34  1  0
 12 35  1  0
 12 36  1  0
 14 37  1  0
 15 38  1  0
 15 39  1  0
 16 40  1  0
 16 41  1  0
 17 42  1  0
 17 43  1  0
 18 44  1  0
 18 45  1  0
M  CHG  1   3   1
M  END
>  <EmbedRMS>  (147) 
0.47848756221680727

$$$$

     RDKit          3D

 44 44  0  0  0  0  0  0  0  0999 V2000
   14.0121    7.0506    1.2525 C   0  0  0  0  0  0  0  0  0  0  0  0
   13.6016    8.3243    1.9896 C   0  0  0  0  0  0  0  0  0  0  0  0
   14.7037    8.8917    2.7690 N   0  0  0  0  0  4  0  0  0  0  0  0
   12.2631    8.3265    2.7679 C   0  0  0  0  0  0  0  0  0  0  0  0
   11.1814    7.4387    2.1356 C   0  0  0  0  0  0  0  0  0  0  0  0
    9.7474    7.7242    2.5476 C   0  0  0  0  0  0  0  0  0  0  0  0
    9.4540    9.1994    2.6430 C   0  0  0  0  0  0  0  0  0  0  0  0
    7.9938    9.5221    2.7258 C   0  0  0  0  0  0  0  0  0  0  0  0
    7.4350    9.6816    1.6176 O   0  0  0  0  0  0  0  0  0  0  0  0
    7.2188    9.6578    3.9295 N   0  0  0  0  0  0  0  0  0  0  0  0
    5.8102   10.0779    3.8664 C   0  0  0  0  0  0  0  0  0  0  0  0
    4.9393    8.9582    3.3431 C   0  0  0  0  0  0  0  0  0  0  0  0
    4.7851    7.9458    4.0801 O   0  0  0  0  0  0  0  0  0  0  0  0
    4.2938    8.9996    2.0460 N   0  0  0  0  0  0  0  0  0  0  0  0
    3.5293    7.8309    1.5965 C   0  0  0  0  0  0  0  0  0  0  0  0
    4.3152   10.2043    1.2080 C   0  0  0  0  0  0  0  0  0  0  0  0
   10.3882   10.0185    3.4877 C   0  0  0  0  0  0  0  0  0  0  0  0
   11.8515    9.7801    3.1235 C   0  0  0  0  0  0  0  0  0  0  0  0
   13.2678    6.7644    0.4814 H   0  0  0  0  0  0  0  0  0  0  0  0
   14.1184    6.2177    1.9790 H   0  0  0  0  0  0  0  0  0  0  0  0
   14.9834    7.1931    0.7324 H   0  0  0  0  0  0  0  0  0  0  0  0
   13.4368    9.0285    1.1410 H   0  0  0  0  0  0  0  0  0  0  0  0
   14.5220    9.8926    3.0062 H   0  0  0  0  0  0  0  0  0  0  0  0
   15.5932    8.8664    2.2191 H   0  0  0  0  0  0  0  0  0  0  0  0
   14.8392    8.3422    3.6484 H   0  0  0  0  0  0  0  0  0  0  0  0
   12.4712    7.8394    3.7472 H   0  0  0  0  0  0  0  0  0  0  0  0
   11.4088    6.3660    2.3234 H   0  0  0  0  0  0  0  0  0  0  0  0
   11.2137    7.5918    1.0347 H   0  0  0  0  0  0  0  0  0  0  0  0
    9.0561    7.2353    1.8247 H   0  0  0  0  0  0  0  0  0  0  0  0
    9.5656    7.2672    3.5449 H   0  0  0  0  0  0  0  0  0  0  0  0
    9.7292    9.5585    1.6197 H   0  0  0  0  0  0  0  0  0  0  0  0
    7.6736    9.5047    4.8572 H   0  0  0  0  0  0  0  0  0  0  0  0
    5.7252   11.0043    3.2641 H   0  0  0  0  0  0  0  0  0  0  0  0
    5.4653   10.3346    4.8910 H   0  0  0  0  0  0  0  0  0  0  0  0
    2.7010    7.6288    2.3080 H   0  0  0  0  0  0  0  0  0  0  0  0
    3.0918    7.9792    0.5870 H   0  0  0  0  0  0  0  0  0  0  0  0
    4.1965    6.9442    1.5522 H   0  0  0  0  0  0  0  0  0  0  0  0
    5.3364   10.4398    0.8665 H   0  0  0  0  0  0  0  0  0  0  0  0
    3.6863   10.0864    0.3010 H   0  0  0  0  0  0  0  0  0  0  0  0
    3.9060   11.0645    1.7784 H   0  0  0  0  0  0  0  0  0  0  0  0
   10.1496   11.1014    3.3914 H   0  0  0  0  0  0  0  0  0  0  0  0
   10.2360    9.7336    4.5515 H   0  0  0  0  0  0  0  0  0  0  0  0
   12.0658   10.4404    2.2542 H   0  0  0  0  0  0  0  0  0  0  0  0
   12.4738   10.1512    3.9668 H   0  0  0  0  0  0  0  0  0  0  0  0
  1  2  1  0
  2  3  1  0
  2  4  1  0
  4  5  1  0
  5  6  1  0
  6  7  1  0
  7  8  1  0
  8  9  2  0
  8 10  1  0
 10 11  1  0
 11 12  1  0
 12 13  2  0
 12 14  1  0
 14 15  1  0
 14 16  1  0
  7 17  1  0
 17 18  1  0
 18  4  1  0
  1 19  1  0
  1 20  1  0
  1 21  1  0
  2 22  1  0
  3 23  1  0
  3 24  1  0
  3 25  1  0
  4 26  1  0
  5 27  1  0
  5 28  1  0
  6 29  1  0
  6 30  1  0
  7 31  1  0
 10 32  1  0
 11 33  1  0
 11 34  1  0
 15 35  1  0
 15 36  1  0
 15 37  1  0
 16 38  1  0
 16 39  1  0
 16 40  1  0
 17 41  1  0
 17 42  1  0
 18 43  1  0
 18 44  1  0
M  CHG  1   3   1
M  END
>  <EmbedRMS>  (148) 
0.2932026556361357

$$$$

     RDKit          3D

 42 43  0  0  0  0  0  0  0  0999 V2000
   14.0330    7.0540    1.2471 C   0  0  0  0  0  0  0  0  0  0  0  0
   13.6231    8.3263    1.9878 C   0  0  0  0  0  0  0  0  0  0  0  0
   14.7253    8.8947    2.7647 N   0  0  0  0  0  4  0  0  0  0  0  0
   12.2964    8.3187    2.7744 C   0  0  0  0  0  0  0  0  0  0  0  0
   11.2276    7.4167    2.1435 C   0  0  0  0  0  0  0  0  0  0  0  0
    9.8095    7.6829    2.5731 C   0  0  0  0  0  0  0  0  0  0  0  0
    9.5272    9.1505    2.6632 C   0  0  0  0  0  0  0  0  0  0  0  0
    8.0940    9.4103    2.7033 C   0  0  0  0  0  0  0  0  0  0  0  0
    7.5780    9.4659    1.5496 O   0  0  0  0  0  0  0  0  0  0  0  0
    7.2637    9.6830    3.8840 N   0  0  0  0  0  0  0  0  0  0  0  0
    5.8846   10.1856    3.6863 C   0  0  0  0  0  0  0  0  0  0  0  0
    4.8719    9.2381    3.0326 C   0  0  0  0  0  0  0  0  0  0  0  0
    4.1347   10.1068    1.9568 C   0  0  0  0  0  0  0  0  0  0  0  0
    4.5061   11.5093    2.2176 N   0  0  0  0  0  0  0  0  0  0  0  0
    5.5081   11.5460    3.2609 C   0  0  0  0  0  0  0  0  0  0  0  0
    6.1168   12.5973    3.6130 O   0  0  0  0  0  0  0  0  0  0  0  0
   10.4200    9.9970    3.5099 C   0  0  0  0  0  0  0  0  0  0  0  0
   11.8814    9.7716    3.1445 C   0  0  0  0  0  0  0  0  0  0  0  0
   13.2938    6.7731    0.4691 H   0  0  0  0  0  0  0  0  0  0  0  0
   15.0073    7.1962    0.7328 H   0  0  0  0  0  0  0  0  0  0  0  0
   14.1346    6.2175    1.9701 H   0  0  0  0  0  0  0  0  0  0  0  0
   13.4505    9.0328    1.1426 H   0  0  0  0  0  0  0  0  0  0  0  0
   14.5420    9.8942    3.0064 H   0  0  0  0  0  0  0  0  0  0  0  0
   15.6122    8.8750    2.2105 H   0  0  0  0  0  0  0  0  0  0  0  0
   14.8681    8.3422    3.6411 H   0  0  0  0  0  0  0  0  0  0  0  0
   12.5153    7.8285    3.7500 H   0  0  0  0  0  0  0  0  0  0  0  0
   11.4703    6.3464    2.3266 H   0  0  0  0  0  0  0  0  0  0  0  0
   11.2464    7.5744    1.0425 H   0  0  0  0  0  0  0  0  0  0  0  0
    9.1175    7.1792    1.8594 H   0  0  0  0  0  0  0  0  0  0  0  0
    9.6470    7.2298    3.5759 H   0  0  0  0  0  0  0  0  0  0  0  0
    9.8234    9.5144    1.6448 H   0  0  0  0  0  0  0  0  0  0  0  0
    7.6743    9.6462    4.8428 H   0  0  0  0  0  0  0  0  0  0  0  0
    6.2636   10.5382    2.7665 H   0  0  0  0  0  0  0  0  0  0  0  0
    4.1521    8.8924    3.8046 H   0  0  0  0  0  0  0  0  0  0  0  0
    5.3579    8.3532    2.5661 H   0  0  0  0  0  0  0  0  0  0  0  0
    4.4689    9.8209    0.9365 H   0  0  0  0  0  0  0  0  0  0  0  0
    3.0339    9.9836    2.0377 H   0  0  0  0  0  0  0  0  0  0  0  0
    4.1707   12.3349    1.6739 H   0  0  0  0  0  0  0  0  0  0  0  0
   10.1625   11.0746    3.4009 H   0  0  0  0  0  0  0  0  0  0  0  0
   10.2674    9.7145    4.5745 H   0  0  0  0  0  0  0  0  0  0  0  0
   12.0946   10.4418    2.2823 H   0  0  0  0  0  0  0  0  0  0  0  0
   12.5019   10.1361    3.9920 H   0  0  0  0  0  0  0  0  0  0  0  0
  1  2  1  0
  2  3  1  0
  2  4  1  0
  4  5  1  0
  5  6  1  0
  6  7  1  0
  7  8  1  0
  8  9  2  0
  8 10  1  0
 10 11  1  0
 11 12  1  0
 12 13  1  0
 13 14  1  0
 14 15  1  0
 15 16  2  0
  7 17  1  0
 17 18  1  0
 18  4  1  0
 15 11  1  0
  1 19  1  0
  1 20  1  0
  1 21  1  0
  2 22  1  0
  3 23  1  0
  3 24  1  0
  3 25  1  0
  4 26  1  0
  5 27  1  0
  5 28  1  0
  6 29  1  0
  6 30  1  0
  7 31  1  0
 10 32  1  0
 11 33  1  0
 12 34  1  0
 12 35  1  0
 13 36  1  0
 13 37  1  0
 14 38  1  0
 17 39  1  0
 17 40  1  0
 18 41  1  0
 18 42  1  0
M  CHG  1   3   1
M  END
>  <EmbedRMS>  (149) 
0.32492149014301314

$$$$

     RDKit          3D

 44 44  0  0  0  0  0  0  0  0999 V2000
    2.2726   12.2730    1.9197 C   0  0  0  0  0  0  0  0  0  0  0  0
    3.6716   11.7753    2.0767 C   0  0  0  0  0  0  0  0  0  0  0  0
    4.1993   11.0975    1.1535 O   0  0  0  0  0  0  0  0  0  0  0  0
    4.4123   12.0913    3.2636 N   0  0  0  0  0  0  0  0  0  0  0  0
    5.7882   11.6467    3.4755 C   0  0  0  0  0  0  0  0  0  0  0  0
    5.8325   10.1636    3.8751 C   0  0  0  0  0  0  0  0  0  0  0  0
    7.2226    9.6885    3.9384 N   0  0  0  0  0  0  0  0  0  0  0  0
    7.9822    9.5147    2.7306 C   0  0  0  0  0  0  0  0  0  0  0  0
    7.4090    9.6628    1.6229 O   0  0  0  0  0  0  0  0  0  0  0  0
    9.4448    9.1929    2.6561 C   0  0  0  0  0  0  0  0  0  0  0  0
    9.7666    7.7134    2.4316 C   0  0  0  0  0  0  0  0  0  0  0  0
   11.2651    7.3640    2.5402 C   0  0  0  0  0  0  0  0  0  0  0  0
   12.1439    8.5866    2.2323 C   0  0  0  0  0  0  0  0  0  0  0  0
   13.6549    8.3400    1.9333 C   0  0  0  0  0  0  0  0  0  0  0  0
   14.0142    7.0450    1.2245 C   0  0  0  0  0  0  0  0  0  0  0  0
   14.6174    8.7740    2.9401 N   0  0  0  0  0  4  0  0  0  0  0  0
   11.8897    9.6849    3.2851 C   0  0  0  0  0  0  0  0  0  0  0  0
   10.4047   10.0809    3.4318 C   0  0  0  0  0  0  0  0  0  0  0  0
    1.7850   11.7977    1.0420 H   0  0  0  0  0  0  0  0  0  0  0  0
    2.2858   13.3733    1.7753 H   0  0  0  0  0  0  0  0  0  0  0  0
    1.6851   12.0305    2.8298 H   0  0  0  0  0  0  0  0  0  0  0  0
    3.9764   12.7171    3.9782 H   0  0  0  0  0  0  0  0  0  0  0  0
    6.3806   11.8354    2.5554 H   0  0  0  0  0  0  0  0  0  0  0  0
    6.2447   12.2471    4.2922 H   0  0  0  0  0  0  0  0  0  0  0  0
    5.2582    9.5431    3.1538 H   0  0  0  0  0  0  0  0  0  0  0  0
    5.3593   10.0461    4.8739 H   0  0  0  0  0  0  0  0  0  0  0  0
    7.6549    9.4618    4.8617 H   0  0  0  0  0  0  0  0  0  0  0  0
    9.6827    9.5850    1.6377 H   0  0  0  0  0  0  0  0  0  0  0  0
    9.3865    7.3953    1.4337 H   0  0  0  0  0  0  0  0  0  0  0  0
    9.2159    7.1115    3.1869 H   0  0  0  0  0  0  0  0  0  0  0  0
   11.4755    6.5310    1.8379 H   0  0  0  0  0  0  0  0  0  0  0  0
   11.4952    7.0012    3.5662 H   0  0  0  0  0  0  0  0  0  0  0  0
   11.7508    8.9795    1.2653 H   0  0  0  0  0  0  0  0  0  0  0  0
   13.8449    9.0656    1.1033 H   0  0  0  0  0  0  0  0  0  0  0  0
   15.0592    7.0794    0.8478 H   0  0  0  0  0  0  0  0  0  0  0  0
   13.9249    6.1936    1.9314 H   0  0  0  0  0  0  0  0  0  0  0  0
   13.3412    6.8742    0.3568 H   0  0  0  0  0  0  0  0  0  0  0  0
   14.5656    9.8050    3.1029 H   0  0  0  0  0  0  0  0  0  0  0  0
   14.4333    8.2660    3.8350 H   0  0  0  0  0  0  0  0  0  0  0  0
   15.5929    8.5557    2.6317 H   0  0  0  0  0  0  0  0  0  0  0  0
   12.4544   10.6000    3.0036 H   0  0  0  0  0  0  0  0  0  0  0  0
   12.2718    9.3427    4.2720 H   0  0  0  0  0  0  0  0  0  0  0  0
   10.2656   11.1439    3.1275 H   0  0  0  0  0  0  0  0  0  0  0  0
   10.1319   10.0247    4.5078 H   0  0  0  0  0  0  0  0  0  0  0  0
  1  2  1  0
  2  3  2  0
  2  4  1  0
  4  5  1  0
  5  6  1  0
  6  7  1  0
  7  8  1  0
  8  9  2  0
  8 10  1  0
 10 11  1  0
 11 12  1  0
 12 13  1  0
 13 14  1  0
 14 15  1  0
 14 16  1  0
 13 17  1  0
 17 18  1  0
 18 10  1  0
  1 19  1  0
  1 20  1  0
  1 21  1  0
  4 22  1  0
  5 23  1  0
  5 24  1  0
  6 25  1  0
  6 26  1  0
  7 27  1  0
 10 28  1  0
 11 29  1  0
 11 30  1  0
 12 31  1  0
 12 32  1  0
 13 33  1  0
 14 34  1  0
 15 35  1  0
 15 36  1  0
 15 37  1  0
 16 38  1  0
 16 39  1  0
 16 40  1  0
 17 41  1  0
 17 42  1  0
 18 43  1  0
 18 44  1  0
M  CHG  1  16   1
M  END
>  <EmbedRMS>  (150) 
0.2509587523478319

$$$$

     RDKit          3D

 38 38  0  0  0  0  0  0  0  0999 V2000
   14.0485    7.2193    1.1052 C   0  0  0  0  0  0  0  0  0  0  0  0
   13.6494    7.9557    2.3993 C   0  0  0  0  0  0  0  0  0  0  0  0
   14.6287    9.0157    2.6714 N   0  0  0  0  0  4  0  0  0  0  0  0
   12.1999    8.5121    2.2739 C   0  0  0  0  0  0  0  0  0  0  0  0
   11.1802    7.3659    2.4359 C   0  0  0  0  0  0  0  0  0  0  0  0
    9.7714    7.8716    2.1578 C   0  0  0  0  0  0  0  0  0  0  0  0
    9.4086    8.9939    3.1360 C   0  0  0  0  0  0  0  0  0  0  0  0
    8.0119    9.4795    2.8745 C   0  0  0  0  0  0  0  0  0  0  0  0
    7.6187    9.6893    1.6921 O   0  0  0  0  0  0  0  0  0  0  0  0
    7.1292    9.6965    3.9807 N   0  0  0  0  0  0  0  0  0  0  0  0
    5.7624   10.1694    3.8094 C   0  0  0  0  0  0  0  0  0  0  0  0
    5.7587   11.6573    3.4724 C   0  0  0  0  0  0  0  0  0  0  0  0
    4.4421   12.1064    3.3200 O   0  0  0  0  0  0  0  0  0  0  0  0
   10.4229   10.1485    3.0671 C   0  0  0  0  0  0  0  0  0  0  0  0
   11.8582    9.6379    3.2816 C   0  0  0  0  0  0  0  0  0  0  0  0
   15.0958    6.8574    1.1814 H   0  0  0  0  0  0  0  0  0  0  0  0
   13.9784    7.8974    0.2278 H   0  0  0  0  0  0  0  0  0  0  0  0
   13.4173    6.3269    0.9275 H   0  0  0  0  0  0  0  0  0  0  0  0
   13.6910    7.2251    3.2394 H   0  0  0  0  0  0  0  0  0  0  0  0
   14.4960    9.3935    3.6370 H   0  0  0  0  0  0  0  0  0  0  0  0
   15.6002    8.6298    2.6308 H   0  0  0  0  0  0  0  0  0  0  0  0
   14.5433    9.7863    1.9687 H   0  0  0  0  0  0  0  0  0  0  0  0
   12.0876    8.9473    1.2540 H   0  0  0  0  0  0  0  0  0  0  0  0
   11.2347    6.9393    3.4625 H   0  0  0  0  0  0  0  0  0  0  0  0
   11.3816    6.5452    1.7192 H   0  0  0  0  0  0  0  0  0  0  0  0
    9.0563    7.0278    2.2771 H   0  0  0  0  0  0  0  0  0  0  0  0
    9.7089    8.2307    1.1059 H   0  0  0  0  0  0  0  0  0  0  0  0
    9.4455    8.5679    4.1642 H   0  0  0  0  0  0  0  0  0  0  0  0
    7.4525    9.4673    4.9477 H   0  0  0  0  0  0  0  0  0  0  0  0
    5.2572    9.5890    3.0069 H   0  0  0  0  0  0  0  0  0  0  0  0
    5.2000   10.0100    4.7552 H   0  0  0  0  0  0  0  0  0  0  0  0
    6.2767   12.2336    4.2730 H   0  0  0  0  0  0  0  0  0  0  0  0
    6.3008   11.8316    2.5198 H   0  0  0  0  0  0  0  0  0  0  0  0
    4.0707   12.2170    4.2342 H   0  0  0  0  0  0  0  0  0  0  0  0
   10.3565   10.6518    2.0766 H   0  0  0  0  0  0  0  0  0  0  0  0
   10.1846   10.9008    3.8506 H   0  0  0  0  0  0  0  0  0  0  0  0
   12.5372   10.5052    3.1416 H   0  0  0  0  0  0  0  0  0  0  0  0
   11.9739    9.2660    4.3236 H   0  0  0  0  0  0  0  0  0  0  0  0
  1  2  1  0
  2  3  1  0
  2  4  1  0
  4  5  1  0
  5  6  1  0
  6  7  1  0
  7  8  1  0
  8  9  2  0
  8 10  1  0
 10 11  1  0
 11 12  1  0
 12 13  1  0
  7 14  1  0
 14 15  1  0
 15  4  1  0
  1 16  1  0
  1 17  1  0
  1 18  1  0
  2 19  1  0
  3 20  1  0
  3 21  1  0
  3 22  1  0
  4 23  1  0
  5 24  1  0
  5 25  1  0
  6 26  1  0
  6 27  1  0
  7 28  1  0
 10 29  1  0
 11 30  1  0
 11 31  1  0
 12 32  1  0
 12 33  1  0
 13 34  1  0
 14 35  1  0
 14 36  1  0
 15 37  1  0
 15 38  1  0
M  CHG  1   3   1
M  END
>  <EmbedRMS>  (151) 
0.031392693704421666

$$$$

     RDKit          3D

 45 46  0  0  0  0  0  0  0  0999 V2000
   13.9834    7.0993    1.1854 C   0  0  0  0  0  0  0  0  0  0  0  0
   13.5803    8.3576    1.9543 C   0  0  0  0  0  0  0  0  0  0  0  0
   14.7115    8.8843    2.7301 N   0  0  0  0  0  4  0  0  0  0  0  0
   12.2757    8.3215    2.7752 C   0  0  0  0  0  0  0  0  0  0  0  0
   11.1585    7.3124    2.3995 C   0  0  0  0  0  0  0  0  0  0  0  0
    9.8004    7.9235    2.0851 C   0  0  0  0  0  0  0  0  0  0  0  0
    9.4084    8.9901    3.1089 C   0  0  0  0  0  0  0  0  0  0  0  0
    8.0000    9.4696    2.8405 C   0  0  0  0  0  0  0  0  0  0  0  0
    7.6298    9.6813    1.6545 O   0  0  0  0  0  0  0  0  0  0  0  0
    7.0449    9.6494    3.8889 N   0  0  0  0  0  0  0  0  0  0  0  0
    7.3746   10.0597    5.2395 C   0  0  0  0  0  0  0  0  0  0  0  0
    6.7199    9.1789    6.2323 C   0  0  0  0  0  0  0  0  0  0  0  0
    5.3186    8.6475    6.3155 C   0  0  0  0  0  0  0  0  0  0  0  0
    5.5236    8.6127    7.8401 C   0  0  0  0  0  0  0  0  0  0  0  0
    6.7434    9.5320    7.6829 C   0  0  0  0  0  0  0  0  0  0  0  0
    7.9390    9.0616    8.2208 O   0  0  0  0  0  0  0  0  0  0  0  0
   10.3954   10.1508    3.0100 C   0  0  0  0  0  0  0  0  0  0  0  0
   11.8304    9.7179    3.3080 C   0  0  0  0  0  0  0  0  0  0  0  0
   14.9988    7.2134    0.7499 H   0  0  0  0  0  0  0  0  0  0  0  0
   13.9885    6.2224    1.8668 H   0  0  0  0  0  0  0  0  0  0  0  0
   13.2907    6.9109    0.3386 H   0  0  0  0  0  0  0  0  0  0  0  0
   13.3793    9.1018    1.1495 H   0  0  0  0  0  0  0  0  0  0  0  0
   14.4924    9.7903    3.1976 H   0  0  0  0  0  0  0  0  0  0  0  0
   14.9956    8.1902    3.4594 H   0  0  0  0  0  0  0  0  0  0  0  0
   15.5284    9.0543    2.0991 H   0  0  0  0  0  0  0  0  0  0  0  0
   12.6596    7.8394    3.7054 H   0  0  0  0  0  0  0  0  0  0  0  0
   11.4424    6.6799    1.5383 H   0  0  0  0  0  0  0  0  0  0  0  0
   11.0022    6.5998    3.2429 H   0  0  0  0  0  0  0  0  0  0  0  0
    9.0378    7.1128    2.0753 H   0  0  0  0  0  0  0  0  0  0  0  0
    9.8356    8.3630    1.0627 H   0  0  0  0  0  0  0  0  0  0  0  0
    9.4597    8.5335    4.1216 H   0  0  0  0  0  0  0  0  0  0  0  0
    6.0366    9.6911    3.6148 H   0  0  0  0  0  0  0  0  0  0  0  0
    7.0040   11.0968    5.3855 H   0  0  0  0  0  0  0  0  0  0  0  0
    8.4708   10.0861    5.4135 H   0  0  0  0  0  0  0  0  0  0  0  0
    7.3289    8.2431    6.1075 H   0  0  0  0  0  0  0  0  0  0  0  0
    4.5653    9.4049    6.0055 H   0  0  0  0  0  0  0  0  0  0  0  0
    5.1803    7.6409    5.8619 H   0  0  0  0  0  0  0  0  0  0  0  0
    5.7907    7.5971    8.2111 H   0  0  0  0  0  0  0  0  0  0  0  0
    4.6914    9.0940    8.3976 H   0  0  0  0  0  0  0  0  0  0  0  0
    6.5436   10.6095    7.8842 H   0  0  0  0  0  0  0  0  0  0  0  0
    7.8702    9.2182    9.1976 H   0  0  0  0  0  0  0  0  0  0  0  0
   10.3561   10.5855    1.9855 H   0  0  0  0  0  0  0  0  0  0  0  0
   10.1049   10.9564    3.7199 H   0  0  0  0  0  0  0  0  0  0  0  0
   11.9617    9.7460    4.4142 H   0  0  0  0  0  0  0  0  0  0  0  0
   12.4762   10.5256    2.9048 H   0  0  0  0  0  0  0  0  0  0  0  0
  1  2  1  0
  2  3  1  0
  2  4  1  0
  4  5  1  0
  5  6  1  0
  6  7  1  0
  7  8  1  0
  8  9  2  0
  8 10  1  0
 10 11  1  0
 11 12  1  0
 12 13  1  0
 13 14  1  0
 14 15  1  0
 15 16  1  0
  7 17  1  0
 17 18  1  0
 18  4  1  0
 15 12  1  0
  1 19  1  0
  1 20  1  0
  1 21  1  0
  2 22  1  0
  3 23  1  0
  3 24  1  0
  3 25  1  0
  4 26  1  0
  5 27  1  0
  5 28  1  0
  6 29  1  0
  6 30  1  0
  7 31  1  0
 10 32  1  0
 11 33  1  0
 11 34  1  0
 12 35  1  0
 13 36  1  0
 13 37  1  0
 14 38  1  0
 14 39  1  0
 15 40  1  0
 16 41  1  0
 17 42  1  0
 17 43  1  0
 18 44  1  0
 18 45  1  0
M  CHG  1   3   1
M  END
>  <EmbedRMS>  (152) 
0.31363235588531085

$$$$

     RDKit          3D

 44 44  0  0  0  0  0  0  0  0999 V2000
   14.0121    7.0506    1.2525 C   0  0  0  0  0  0  0  0  0  0  0  0
   13.6016    8.3243    1.9896 C   0  0  0  0  0  0  0  0  0  0  0  0
   14.7037    8.8917    2.7690 N   0  0  0  0  0  4  0  0  0  0  0  0
   12.2631    8.3265    2.7679 C   0  0  0  0  0  0  0  0  0  0  0  0
   11.1814    7.4387    2.1356 C   0  0  0  0  0  0  0  0  0  0  0  0
    9.7474    7.7242    2.5476 C   0  0  0  0  0  0  0  0  0  0  0  0
    9.4540    9.1994    2.6430 C   0  0  0  0  0  0  0  0  0  0  0  0
    7.9938    9.5221    2.7258 C   0  0  0  0  0  0  0  0  0  0  0  0
    7.4350    9.6816    1.6176 O   0  0  0  0  0  0  0  0  0  0  0  0
    7.2188    9.6578    3.9295 N   0  0  0  0  0  0  0  0  0  0  0  0
    5.8102   10.0779    3.8664 C   0  0  0  0  0  0  0  0  0  0  0  0
    4.9393    8.9582    3.3431 C   0  0  0  0  0  0  0  0  0  0  0  0
    4.7851    7.9458    4.0801 O   0  0  0  0  0  0  0  0  0  0  0  0
    4.2938    8.9996    2.0460 N   0  0  0  0  0  0  0  0  0  0  0  0
    3.5293    7.8309    1.5965 C   0  0  0  0  0  0  0  0  0  0  0  0
    4.3152   10.2043    1.2080 C   0  0  0  0  0  0  0  0  0  0  0  0
   10.3882   10.0185    3.4877 C   0  0  0  0  0  0  0  0  0  0  0  0
   11.8515    9.7801    3.1235 C   0  0  0  0  0  0  0  0  0  0  0  0
   13.2678    6.7644    0.4814 H   0  0  0  0  0  0  0  0  0  0  0  0
   14.1184    6.2177    1.9790 H   0  0  0  0  0  0  0  0  0  0  0  0
   14.9834    7.1931    0.7324 H   0  0  0  0  0  0  0  0  0  0  0  0
   13.4368    9.0285    1.1410 H   0  0  0  0  0  0  0  0  0  0  0  0
   14.5220    9.8926    3.0062 H   0  0  0  0  0  0  0  0  0  0  0  0
   15.5932    8.8664    2.2191 H   0  0  0  0  0  0  0  0  0  0  0  0
   14.8392    8.3422    3.6484 H   0  0  0  0  0  0  0  0  0  0  0  0
   12.4712    7.8394    3.7472 H   0  0  0  0  0  0  0  0  0  0  0  0
   11.4088    6.3660    2.3234 H   0  0  0  0  0  0  0  0  0  0  0  0
   11.2137    7.5918    1.0347 H   0  0  0  0  0  0  0  0  0  0  0  0
    9.0561    7.2353    1.8247 H   0  0  0  0  0  0  0  0  0  0  0  0
    9.5656    7.2672    3.5449 H   0  0  0  0  0  0  0  0  0  0  0  0
    9.7292    9.5585    1.6197 H   0  0  0  0  0  0  0  0  0  0  0  0
    7.6736    9.5047    4.8572 H   0  0  0  0  0  0  0  0  0  0  0  0
    5.7252   11.0043    3.2641 H   0  0  0  0  0  0  0  0  0  0  0  0
    5.4653   10.3346    4.8910 H   0  0  0  0  0  0  0  0  0  0  0  0
    2.7010    7.6288    2.3080 H   0  0  0  0  0  0  0  0  0  0  0  0
    3.0918    7.9792    0.5870 H   0  0  0  0  0  0  0  0  0  0  0  0
    4.1965    6.9442    1.5522 H   0  0  0  0  0  0  0  0  0  0  0  0
    5.3364   10.4398    0.8665 H   0  0  0  0  0  0  0  0  0  0  0  0
    3.6863   10.0864    0.3010 H   0  0  0  0  0  0  0  0  0  0  0  0
    3.9060   11.0645    1.7784 H   0  0  0  0  0  0  0  0  0  0  0  0
   10.1496   11.1014    3.3914 H   0  0  0  0  0  0  0  0  0  0  0  0
   10.2360    9.7336    4.5515 H   0  0  0  0  0  0  0  0  0  0  0  0
   12.0658   10.4404    2.2542 H   0  0  0  0  0  0  0  0  0  0  0  0
   12.4738   10.1512    3.9668 H   0  0  0  0  0  0  0  0  0  0  0  0
  1  2  1  0
  2  3  1  0
  2  4  1  0
  4  5  1  0
  5  6  1  0
  6  7  1  0
  7  8  1  0
  8  9  2  0
  8 10  1  0
 10 11  1  0
 11 12  1  0
 12 13  2  0
 12 14  1  0
 14 15  1  0
 14 16  1  0
  7 17  1  0
 17 18  1  0
 18  4  1  0
  1 19  1  0
  1 20  1  0
  1 21  1  0
  2 22  1  0
  3 23  1  0
  3 24  1  0
  3 25  1  0
  4 26  1  0
  5 27  1  0
  5 28  1  0
  6 29  1  0
  6 30  1  0
  7 31  1  0
 10 32  1  0
 11 33  1  0
 11 34  1  0
 15 35  1  0
 15 36  1  0
 15 37  1  0
 16 38  1  0
 16 39  1  0
 16 40  1  0
 17 41  1  0
 17 42  1  0
 18 43  1  0
 18 44  1  0
M  CHG  1   3   1
M  END
>  <EmbedRMS>  (153) 
0.2932026556361357

$$$$

     RDKit          3D

 44 44  0  0  0  0  0  0  0  0999 V2000
   14.0121    7.0506    1.2525 C   0  0  0  0  0  0  0  0  0  0  0  0
   13.6016    8.3243    1.9896 C   0  0  0  0  0  0  0  0  0  0  0  0
   14.7037    8.8917    2.7690 N   0  0  0  0  0  4  0  0  0  0  0  0
   12.2631    8.3265    2.7679 C   0  0  0  0  0  0  0  0  0  0  0  0
   11.1814    7.4387    2.1356 C   0  0  0  0  0  0  0  0  0  0  0  0
    9.7474    7.7242    2.5476 C   0  0  0  0  0  0  0  0  0  0  0  0
    9.4540    9.1994    2.6430 C   0  0  0  0  0  0  0  0  0  0  0  0
    7.9938    9.5221    2.7258 C   0  0  0  0  0  0  0  0  0  0  0  0
    7.4350    9.6816    1.6176 O   0  0  0  0  0  0  0  0  0  0  0  0
    7.2188    9.6578    3.9295 N   0  0  0  0  0  0  0  0  0  0  0  0
    5.8102   10.0779    3.8664 C   0  0  0  0  0  0  0  0  0  0  0  0
    4.9393    8.9582    3.3431 C   0  0  0  0  0  0  0  0  0  0  0  0
    4.7851    7.9458    4.0801 O   0  0  0  0  0  0  0  0  0  0  0  0
    4.2938    8.9996    2.0460 N   0  0  0  0  0  0  0  0  0  0  0  0
    3.5293    7.8309    1.5965 C   0  0  0  0  0  0  0  0  0  0  0  0
    4.3152   10.2043    1.2080 C   0  0  0  0  0  0  0  0  0  0  0  0
   10.3882   10.0185    3.4877 C   0  0  0  0  0  0  0  0  0  0  0  0
   11.8515    9.7801    3.1235 C   0  0  0  0  0  0  0  0  0  0  0  0
   13.2678    6.7644    0.4814 H   0  0  0  0  0  0  0  0  0  0  0  0
   14.1184    6.2177    1.9790 H   0  0  0  0  0  0  0  0  0  0  0  0
   14.9834    7.1931    0.7324 H   0  0  0  0  0  0  0  0  0  0  0  0
   13.4368    9.0285    1.1410 H   0  0  0  0  0  0  0  0  0  0  0  0
   14.5220    9.8926    3.0062 H   0  0  0  0  0  0  0  0  0  0  0  0
   15.5932    8.8664    2.2191 H   0  0  0  0  0  0  0  0  0  0  0  0
   14.8392    8.3422    3.6484 H   0  0  0  0  0  0  0  0  0  0  0  0
   12.4712    7.8394    3.7472 H   0  0  0  0  0  0  0  0  0  0  0  0
   11.4088    6.3660    2.3234 H   0  0  0  0  0  0  0  0  0  0  0  0
   11.2137    7.5918    1.0347 H   0  0  0  0  0  0  0  0  0  0  0  0
    9.0561    7.2353    1.8247 H   0  0  0  0  0  0  0  0  0  0  0  0
    9.5656    7.2672    3.5449 H   0  0  0  0  0  0  0  0  0  0  0  0
    9.7292    9.5585    1.6197 H   0  0  0  0  0  0  0  0  0  0  0  0
    7.6736    9.5047    4.8572 H   0  0  0  0  0  0  0  0  0  0  0  0
    5.7252   11.0043    3.2641 H   0  0  0  0  0  0  0  0  0  0  0  0
    5.4653   10.3346    4.8910 H   0  0  0  0  0  0  0  0  0  0  0  0
    2.7010    7.6288    2.3080 H   0  0  0  0  0  0  0  0  0  0  0  0
    3.0918    7.9792    0.5870 H   0  0  0  0  0  0  0  0  0  0  0  0
    4.1965    6.9442    1.5522 H   0  0  0  0  0  0  0  0  0  0  0  0
    5.3364   10.4398    0.8665 H   0  0  0  0  0  0  0  0  0  0  0  0
    3.6863   10.0864    0.3010 H   0  0  0  0  0  0  0  0  0  0  0  0
    3.9060   11.0645    1.7784 H   0  0  0  0  0  0  0  0  0  0  0  0
   10.1496   11.1014    3.3914 H   0  0  0  0  0  0  0  0  0  0  0  0
   10.2360    9.7336    4.5515 H   0  0  0  0  0  0  0  0  0  0  0  0
   12.0658   10.4404    2.2542 H   0  0  0  0  0  0  0  0  0  0  0  0
   12.4738   10.1512    3.9668 H   0  0  0  0  0  0  0  0  0  0  0  0
  1  2  1  0
  2  3  1  0
  2  4  1  0
  4  5  1  0
  5  6  1  0
  6  7  1  0
  7  8  1  0
  8  9  2  0
  8 10  1  0
 10 11  1  0
 11 12  1  0
 12 13  2  0
 12 14  1  0
 14 15  1  0
 14 16  1  0
  7 17  1  0
 17 18  1  0
 18  4  1  0
  1 19  1  0
  1 20  1  0
  1 21  1  0
  2 22  1  0
  3 23  1  0
  3 24  1  0
  3 25  1  0
  4 26  1  0
  5 27  1  0
  5 28  1  0
  6 29  1  0
  6 30  1  0
  7 31  1  0
 10 32  1  0
 11 33  1  0
 11 34  1  0
 15 35  1  0
 15 36  1  0
 15 37  1  0
 16 38  1  0
 16 39  1  0
 16 40  1  0
 17 41  1  0
 17 42  1  0
 18 43  1  0
 18 44  1  0
M  CHG  1   3   1
M  END
>  <EmbedRMS>  (154) 
0.2932026556361357

$$$$

     RDKit          3D

 38 38  0  0  0  0  0  0  0  0999 V2000
   14.0485    7.2193    1.1052 C   0  0  0  0  0  0  0  0  0  0  0  0
   13.6494    7.9557    2.3993 C   0  0  0  0  0  0  0  0  0  0  0  0
   14.6287    9.0157    2.6714 N   0  0  0  0  0  4  0  0  0  0  0  0
   12.1999    8.5121    2.2739 C   0  0  0  0  0  0  0  0  0  0  0  0
   11.1802    7.3659    2.4359 C   0  0  0  0  0  0  0  0  0  0  0  0
    9.7714    7.8716    2.1578 C   0  0  0  0  0  0  0  0  0  0  0  0
    9.4086    8.9939    3.1360 C   0  0  0  0  0  0  0  0  0  0  0  0
    8.0119    9.4795    2.8745 C   0  0  0  0  0  0  0  0  0  0  0  0
    7.6187    9.6893    1.6921 O   0  0  0  0  0  0  0  0  0  0  0  0
    7.1292    9.6965    3.9807 N   0  0  0  0  0  0  0  0  0  0  0  0
    5.7624   10.1694    3.8094 C   0  0  0  0  0  0  0  0  0  0  0  0
    5.7587   11.6573    3.4724 C   0  0  0  0  0  0  0  0  0  0  0  0
    4.4421   12.1064    3.3200 O   0  0  0  0  0  0  0  0  0  0  0  0
   10.4229   10.1485    3.0671 C   0  0  0  0  0  0  0  0  0  0  0  0
   11.8582    9.6379    3.2816 C   0  0  0  0  0  0  0  0  0  0  0  0
   15.0958    6.8574    1.1814 H   0  0  0  0  0  0  0  0  0  0  0  0
   13.9784    7.8974    0.2278 H   0  0  0  0  0  0  0  0  0  0  0  0
   13.4173    6.3269    0.9275 H   0  0  0  0  0  0  0  0  0  0  0  0
   13.6910    7.2251    3.2394 H   0  0  0  0  0  0  0  0  0  0  0  0
   14.4960    9.3935    3.6370 H   0  0  0  0  0  0  0  0  0  0  0  0
   15.6002    8.6298    2.6308 H   0  0  0  0  0  0  0  0  0  0  0  0
   14.5433    9.7863    1.9687 H   0  0  0  0  0  0  0  0  0  0  0  0
   12.0876    8.9473    1.2540 H   0  0  0  0  0  0  0  0  0  0  0  0
   11.2347    6.9393    3.4625 H   0  0  0  0  0  0  0  0  0  0  0  0
   11.3816    6.5452    1.7192 H   0  0  0  0  0  0  0  0  0  0  0  0
    9.0563    7.0278    2.2771 H   0  0  0  0  0  0  0  0  0  0  0  0
    9.7089    8.2307    1.1059 H   0  0  0  0  0  0  0  0  0  0  0  0
    9.4455    8.5679    4.1642 H   0  0  0  0  0  0  0  0  0  0  0  0
    7.4525    9.4673    4.9477 H   0  0  0  0  0  0  0  0  0  0  0  0
    5.2572    9.5890    3.0069 H   0  0  0  0  0  0  0  0  0  0  0  0
    5.2000   10.0100    4.7552 H   0  0  0  0  0  0  0  0  0  0  0  0
    6.2767   12.2336    4.2730 H   0  0  0  0  0  0  0  0  0  0  0  0
    6.3008   11.8316    2.5198 H   0  0  0  0  0  0  0  0  0  0  0  0
    4.0707   12.2170    4.2342 H   0  0  0  0  0  0  0  0  0  0  0  0
   10.3565   10.6518    2.0766 H   0  0  0  0  0  0  0  0  0  0  0  0
   10.1846   10.9008    3.8506 H   0  0  0  0  0  0  0  0  0  0  0  0
   12.5372   10.5052    3.1416 H   0  0  0  0  0  0  0  0  0  0  0  0
   11.9739    9.2660    4.3236 H   0  0  0  0  0  0  0  0  0  0  0  0
  1  2  1  0
  2  3  1  0
  2  4  1  0
  4  5  1  0
  5  6  1  0
  6  7  1  0
  7  8  1  0
  8  9  2  0
  8 10  1  0
 10 11  1  0
 11 12  1  0
 12 13  1  0
  7 14  1  0
 14 15  1  0
 15  4  1  0
  1 16  1  0
  1 17  1  0
  1 18  1  0
  2 19  1  0
  3 20  1  0
  3 21  1  0
  3 22  1  0
  4 23  1  0
  5 24  1  0
  5 25  1  0
  6 26  1  0
  6 27  1  0
  7 28  1  0
 10 29  1  0
 11 30  1  0
 11 31  1  0
 12 32  1  0
 12 33  1  0
 13 34  1  0
 14 35  1  0
 14 36  1  0
 15 37  1  0
 15 38  1  0
M  CHG  1   3   1
M  END
>  <EmbedRMS>  (155) 
0.031392693704421666

$$$$

     RDKit          3D

 44 44  0  0  0  0  0  0  0  0999 V2000
   14.0121    7.0506    1.2525 C   0  0  0  0  0  0  0  0  0  0  0  0
   13.6016    8.3243    1.9896 C   0  0  0  0  0  0  0  0  0  0  0  0
   14.7037    8.8917    2.7690 N   0  0  0  0  0  4  0  0  0  0  0  0
   12.2631    8.3265    2.7679 C   0  0  0  0  0  0  0  0  0  0  0  0
   11.1814    7.4387    2.1356 C   0  0  0  0  0  0  0  0  0  0  0  0
    9.7474    7.7242    2.5476 C   0  0  0  0  0  0  0  0  0  0  0  0
    9.4540    9.1994    2.6430 C   0  0  0  0  0  0  0  0  0  0  0  0
    7.9938    9.5221    2.7258 C   0  0  0  0  0  0  0  0  0  0  0  0
    7.4350    9.6816    1.6176 O   0  0  0  0  0  0  0  0  0  0  0  0
    7.2188    9.6578    3.9295 N   0  0  0  0  0  0  0  0  0  0  0  0
    5.8102   10.0779    3.8664 C   0  0  0  0  0  0  0  0  0  0  0  0
    4.9393    8.9582    3.3431 C   0  0  0  0  0  0  0  0  0  0  0  0
    4.7851    7.9458    4.0801 O   0  0  0  0  0  0  0  0  0  0  0  0
    4.2938    8.9996    2.0460 N   0  0  0  0  0  0  0  0  0  0  0  0
    3.5293    7.8309    1.5965 C   0  0  0  0  0  0  0  0  0  0  0  0
    4.3152   10.2043    1.2080 C   0  0  0  0  0  0  0  0  0  0  0  0
   10.3882   10.0185    3.4877 C   0  0  0  0  0  0  0  0  0  0  0  0
   11.8515    9.7801    3.1235 C   0  0  0  0  0  0  0  0  0  0  0  0
   13.2678    6.7644    0.4814 H   0  0  0  0  0  0  0  0  0  0  0  0
   14.1184    6.2177    1.9790 H   0  0  0  0  0  0  0  0  0  0  0  0
   14.9834    7.1931    0.7324 H   0  0  0  0  0  0  0  0  0  0  0  0
   13.4368    9.0285    1.1410 H   0  0  0  0  0  0  0  0  0  0  0  0
   14.5220    9.8926    3.0062 H   0  0  0  0  0  0  0  0  0  0  0  0
   15.5932    8.8664    2.2191 H   0  0  0  0  0  0  0  0  0  0  0  0
   14.8392    8.3422    3.6484 H   0  0  0  0  0  0  0  0  0  0  0  0
   12.4712    7.8394    3.7472 H   0  0  0  0  0  0  0  0  0  0  0  0
   11.4088    6.3660    2.3234 H   0  0  0  0  0  0  0  0  0  0  0  0
   11.2137    7.5918    1.0347 H   0  0  0  0  0  0  0  0  0  0  0  0
    9.0561    7.2353    1.8247 H   0  0  0  0  0  0  0  0  0  0  0  0
    9.5656    7.2672    3.5449 H   0  0  0  0  0  0  0  0  0  0  0  0
    9.7292    9.5585    1.6197 H   0  0  0  0  0  0  0  0  0  0  0  0
    7.6736    9.5047    4.8572 H   0  0  0  0  0  0  0  0  0  0  0  0
    5.7252   11.0043    3.2641 H   0  0  0  0  0  0  0  0  0  0  0  0
    5.4653   10.3346    4.8910 H   0  0  0  0  0  0  0  0  0  0  0  0
    2.7010    7.6288    2.3080 H   0  0  0  0  0  0  0  0  0  0  0  0
    3.0918    7.9792    0.5870 H   0  0  0  0  0  0  0  0  0  0  0  0
    4.1965    6.9442    1.5522 H   0  0  0  0  0  0  0  0  0  0  0  0
    5.3364   10.4398    0.8665 H   0  0  0  0  0  0  0  0  0  0  0  0
    3.6863   10.0864    0.3010 H   0  0  0  0  0  0  0  0  0  0  0  0
    3.9060   11.0645    1.7784 H   0  0  0  0  0  0  0  0  0  0  0  0
   10.1496   11.1014    3.3914 H   0  0  0  0  0  0  0  0  0  0  0  0
   10.2360    9.7336    4.5515 H   0  0  0  0  0  0  0  0  0  0  0  0
   12.0658   10.4404    2.2542 H   0  0  0  0  0  0  0  0  0  0  0  0
   12.4738   10.1512    3.9668 H   0  0  0  0  0  0  0  0  0  0  0  0
  1  2  1  0
  2  3  1  0
  2  4  1  0
  4  5  1  0
  5  6  1  0
  6  7  1  0
  7  8  1  0
  8  9  2  0
  8 10  1  0
 10 11  1  0
 11 12  1  0
 12 13  2  0
 12 14  1  0
 14 15  1  0
 14 16  1  0
  7 17  1  0
 17 18  1  0
 18  4  1  0
  1 19  1  0
  1 20  1  0
  1 21  1  0
  2 22  1  0
  3 23  1  0
  3 24  1  0
  3 25  1  0
  4 26  1  0
  5 27  1  0
  5 28  1  0
  6 29  1  0
  6 30  1  0
  7 31  1  0
 10 32  1  0
 11 33  1  0
 11 34  1  0
 15 35  1  0
 15 36  1  0
 15 37  1  0
 16 38  1  0
 16 39  1  0
 16 40  1  0
 17 41  1  0
 17 42  1  0
 18 43  1  0
 18 44  1  0
M  CHG  1   3   1
M  END
>  <EmbedRMS>  (156) 
0.2932026556361357

$$$$

     RDKit          3D

 38 38  0  0  0  0  0  0  0  0999 V2000
   14.0485    7.2193    1.1052 C   0  0  0  0  0  0  0  0  0  0  0  0
   13.6494    7.9557    2.3993 C   0  0  0  0  0  0  0  0  0  0  0  0
   14.6287    9.0157    2.6714 N   0  0  0  0  0  4  0  0  0  0  0  0
   12.1999    8.5121    2.2739 C   0  0  0  0  0  0  0  0  0  0  0  0
   11.1802    7.3659    2.4359 C   0  0  0  0  0  0  0  0  0  0  0  0
    9.7714    7.8716    2.1578 C   0  0  0  0  0  0  0  0  0  0  0  0
    9.4086    8.9939    3.1360 C   0  0  0  0  0  0  0  0  0  0  0  0
    8.0119    9.4795    2.8745 C   0  0  0  0  0  0  0  0  0  0  0  0
    7.6187    9.6893    1.6921 O   0  0  0  0  0  0  0  0  0  0  0  0
    7.1292    9.6965    3.9807 N   0  0  0  0  0  0  0  0  0  0  0  0
    5.7624   10.1694    3.8094 C   0  0  0  0  0  0  0  0  0  0  0  0
    5.7587   11.6573    3.4724 C   0  0  0  0  0  0  0  0  0  0  0  0
    4.4421   12.1064    3.3200 O   0  0  0  0  0  0  0  0  0  0  0  0
   10.4229   10.1485    3.0671 C   0  0  0  0  0  0  0  0  0  0  0  0
   11.8582    9.6379    3.2816 C   0  0  0  0  0  0  0  0  0  0  0  0
   15.0958    6.8574    1.1814 H   0  0  0  0  0  0  0  0  0  0  0  0
   13.9784    7.8974    0.2278 H   0  0  0  0  0  0  0  0  0  0  0  0
   13.4173    6.3269    0.9275 H   0  0  0  0  0  0  0  0  0  0  0  0
   13.6910    7.2251    3.2394 H   0  0  0  0  0  0  0  0  0  0  0  0
   14.4960    9.3935    3.6370 H   0  0  0  0  0  0  0  0  0  0  0  0
   15.6002    8.6298    2.6308 H   0  0  0  0  0  0  0  0  0  0  0  0
   14.5433    9.7863    1.9687 H   0  0  0  0  0  0  0  0  0  0  0  0
   12.0876    8.9473    1.2540 H   0  0  0  0  0  0  0  0  0  0  0  0
   11.2347    6.9393    3.4625 H   0  0  0  0  0  0  0  0  0  0  0  0
   11.3816    6.5452    1.7192 H   0  0  0  0  0  0  0  0  0  0  0  0
    9.0563    7.0278    2.2771 H   0  0  0  0  0  0  0  0  0  0  0  0
    9.7089    8.2307    1.1059 H   0  0  0  0  0  0  0  0  0  0  0  0
    9.4455    8.5679    4.1642 H   0  0  0  0  0  0  0  0  0  0  0  0
    7.4525    9.4673    4.9477 H   0  0  0  0  0  0  0  0  0  0  0  0
    5.2572    9.5890    3.0069 H   0  0  0  0  0  0  0  0  0  0  0  0
    5.2000   10.0100    4.7552 H   0  0  0  0  0  0  0  0  0  0  0  0
    6.2767   12.2336    4.2730 H   0  0  0  0  0  0  0  0  0  0  0  0
    6.3008   11.8316    2.5198 H   0  0  0  0  0  0  0  0  0  0  0  0
    4.0707   12.2170    4.2342 H   0  0  0  0  0  0  0  0  0  0  0  0
   10.3565   10.6518    2.0766 H   0  0  0  0  0  0  0  0  0  0  0  0
   10.1846   10.9008    3.8506 H   0  0  0  0  0  0  0  0  0  0  0  0
   12.5372   10.5052    3.1416 H   0  0  0  0  0  0  0  0  0  0  0  0
   11.9739    9.2660    4.3236 H   0  0  0  0  0  0  0  0  0  0  0  0
  1  2  1  0
  2  3  1  0
  2  4  1  0
  4  5  1  0
  5  6  1  0
  6  7  1  0
  7  8  1  0
  8  9  2  0
  8 10  1  0
 10 11  1  0
 11 12  1  0
 12 13  1  0
  7 14  1  0
 14 15  1  0
 15  4  1  0
  1 16  1  0
  1 17  1  0
  1 18  1  0
  2 19  1  0
  3 20  1  0
  3 21  1  0
  3 22  1  0
  4 23  1  0
  5 24  1  0
  5 25  1  0
  6 26  1  0
  6 27  1  0
  7 28  1  0
 10 29  1  0
 11 30  1  0
 11 31  1  0
 12 32  1  0
 12 33  1  0
 13 34  1  0
 14 35  1  0
 14 36  1  0
 15 37  1  0
 15 38  1  0
M  CHG  1   3   1
M  END
>  <EmbedRMS>  (157) 
0.031392693704421666

$$$$

     RDKit          3D

 44 44  0  0  0  0  0  0  0  0999 V2000
   14.0121    7.0506    1.2525 C   0  0  0  0  0  0  0  0  0  0  0  0
   13.6016    8.3243    1.9896 C   0  0  0  0  0  0  0  0  0  0  0  0
   14.7037    8.8917    2.7690 N   0  0  0  0  0  4  0  0  0  0  0  0
   12.2631    8.3265    2.7679 C   0  0  0  0  0  0  0  0  0  0  0  0
   11.1814    7.4387    2.1356 C   0  0  0  0  0  0  0  0  0  0  0  0
    9.7474    7.7242    2.5476 C   0  0  0  0  0  0  0  0  0  0  0  0
    9.4540    9.1994    2.6430 C   0  0  0  0  0  0  0  0  0  0  0  0
    7.9938    9.5221    2.7258 C   0  0  0  0  0  0  0  0  0  0  0  0
    7.4350    9.6816    1.6176 O   0  0  0  0  0  0  0  0  0  0  0  0
    7.2188    9.6578    3.9295 N   0  0  0  0  0  0  0  0  0  0  0  0
    5.8102   10.0779    3.8664 C   0  0  0  0  0  0  0  0  0  0  0  0
    4.9393    8.9582    3.3431 C   0  0  0  0  0  0  0  0  0  0  0  0
    4.7851    7.9458    4.0801 O   0  0  0  0  0  0  0  0  0  0  0  0
    4.2938    8.9996    2.0460 N   0  0  0  0  0  0  0  0  0  0  0  0
    3.5293    7.8309    1.5965 C   0  0  0  0  0  0  0  0  0  0  0  0
    4.3152   10.2043    1.2080 C   0  0  0  0  0  0  0  0  0  0  0  0
   10.3882   10.0185    3.4877 C   0  0  0  0  0  0  0  0  0  0  0  0
   11.8515    9.7801    3.1235 C   0  0  0  0  0  0  0  0  0  0  0  0
   13.2678    6.7644    0.4814 H   0  0  0  0  0  0  0  0  0  0  0  0
   14.1184    6.2177    1.9790 H   0  0  0  0  0  0  0  0  0  0  0  0
   14.9834    7.1931    0.7324 H   0  0  0  0  0  0  0  0  0  0  0  0
   13.4368    9.0285    1.1410 H   0  0  0  0  0  0  0  0  0  0  0  0
   14.5220    9.8926    3.0062 H   0  0  0  0  0  0  0  0  0  0  0  0
   15.5932    8.8664    2.2191 H   0  0  0  0  0  0  0  0  0  0  0  0
   14.8392    8.3422    3.6484 H   0  0  0  0  0  0  0  0  0  0  0  0
   12.4712    7.8394    3.7472 H   0  0  0  0  0  0  0  0  0  0  0  0
   11.4088    6.3660    2.3234 H   0  0  0  0  0  0  0  0  0  0  0  0
   11.2137    7.5918    1.0347 H   0  0  0  0  0  0  0  0  0  0  0  0
    9.0561    7.2353    1.8247 H   0  0  0  0  0  0  0  0  0  0  0  0
    9.5656    7.2672    3.5449 H   0  0  0  0  0  0  0  0  0  0  0  0
    9.7292    9.5585    1.6197 H   0  0  0  0  0  0  0  0  0  0  0  0
    7.6736    9.5047    4.8572 H   0  0  0  0  0  0  0  0  0  0  0  0
    5.7252   11.0043    3.2641 H   0  0  0  0  0  0  0  0  0  0  0  0
    5.4653   10.3346    4.8910 H   0  0  0  0  0  0  0  0  0  0  0  0
    2.7010    7.6288    2.3080 H   0  0  0  0  0  0  0  0  0  0  0  0
    3.0918    7.9792    0.5870 H   0  0  0  0  0  0  0  0  0  0  0  0
    4.1965    6.9442    1.5522 H   0  0  0  0  0  0  0  0  0  0  0  0
    5.3364   10.4398    0.8665 H   0  0  0  0  0  0  0  0  0  0  0  0
    3.6863   10.0864    0.3010 H   0  0  0  0  0  0  0  0  0  0  0  0
    3.9060   11.0645    1.7784 H   0  0  0  0  0  0  0  0  0  0  0  0
   10.1496   11.1014    3.3914 H   0  0  0  0  0  0  0  0  0  0  0  0
   10.2360    9.7336    4.5515 H   0  0  0  0  0  0  0  0  0  0  0  0
   12.0658   10.4404    2.2542 H   0  0  0  0  0  0  0  0  0  0  0  0
   12.4738   10.1512    3.9668 H   0  0  0  0  0  0  0  0  0  0  0  0
  1  2  1  0
  2  3  1  0
  2  4  1  0
  4  5  1  0
  5  6  1  0
  6  7  1  0
  7  8  1  0
  8  9  2  0
  8 10  1  0
 10 11  1  0
 11 12  1  0
 12 13  2  0
 12 14  1  0
 14 15  1  0
 14 16  1  0
  7 17  1  0
 17 18  1  0
 18  4  1  0
  1 19  1  0
  1 20  1  0
  1 21  1  0
  2 22  1  0
  3 23  1  0
  3 24  1  0
  3 25  1  0
  4 26  1  0
  5 27  1  0
  5 28  1  0
  6 29  1  0
  6 30  1  0
  7 31  1  0
 10 32  1  0
 11 33  1  0
 11 34  1  0
 15 35  1  0
 15 36  1  0
 15 37  1  0
 16 38  1  0
 16 39  1  0
 16 40  1  0
 17 41  1  0
 17 42  1  0
 18 43  1  0
 18 44  1  0
M  CHG  1   3   1
M  END
>  <EmbedRMS>  (158) 
0.2932026556361357

$$$$

     RDKit          3D

 47 47  0  0  0  0  0  0  0  0999 V2000
    3.9151   11.5190    1.6949 C   0  0  0  0  0  0  0  0  0  0  0  0
    4.3752   12.1526    3.0156 C   0  0  0  0  0  0  0  0  0  0  0  0
    3.3162   11.9470    4.1076 C   0  0  0  0  0  0  0  0  0  0  0  0
    5.7752   11.6515    3.4366 C   0  0  0  0  0  0  0  0  0  0  0  0
    6.2424   12.4255    4.5123 O   0  0  0  0  0  0  0  0  0  0  0  0
    5.7829   10.1613    3.8285 C   0  0  0  0  0  0  0  0  0  0  0  0
    7.1504    9.6895    3.9943 N   0  0  0  0  0  0  0  0  0  0  0  0
    8.0172    9.4612    2.8796 C   0  0  0  0  0  0  0  0  0  0  0  0
    7.6105    9.6774    1.7016 O   0  0  0  0  0  0  0  0  0  0  0  0
    9.4248    8.9820    3.1197 C   0  0  0  0  0  0  0  0  0  0  0  0
    9.7863    7.9347    2.0736 C   0  0  0  0  0  0  0  0  0  0  0  0
   11.1489    7.3149    2.3192 C   0  0  0  0  0  0  0  0  0  0  0  0
   12.2341    8.2988    2.7954 C   0  0  0  0  0  0  0  0  0  0  0  0
   13.7111    7.9151    2.4296 C   0  0  0  0  0  0  0  0  0  0  0  0
   13.9336    7.3326    1.0256 C   0  0  0  0  0  0  0  0  0  0  0  0
   14.6490    9.0170    2.6727 N   0  0  0  0  0  4  0  0  0  0  0  0
   11.8864    9.7891    2.9950 C   0  0  0  0  0  0  0  0  0  0  0  0
   10.3942   10.1674    3.0618 C   0  0  0  0  0  0  0  0  0  0  0  0
    3.6462   10.4501    1.8224 H   0  0  0  0  0  0  0  0  0  0  0  0
    3.0153   12.0519    1.3199 H   0  0  0  0  0  0  0  0  0  0  0  0
    4.7079   11.6057    0.9217 H   0  0  0  0  0  0  0  0  0  0  0  0
    4.4602   13.2482    2.8374 H   0  0  0  0  0  0  0  0  0  0  0  0
    2.3751   12.4624    3.8196 H   0  0  0  0  0  0  0  0  0  0  0  0
    3.0889   10.8696    4.2517 H   0  0  0  0  0  0  0  0  0  0  0  0
    3.6606   12.3779    5.0714 H   0  0  0  0  0  0  0  0  0  0  0  0
    6.4511   11.8066    2.5636 H   0  0  0  0  0  0  0  0  0  0  0  0
    7.2327   12.3509    4.5179 H   0  0  0  0  0  0  0  0  0  0  0  0
    5.2407   10.0259    4.7891 H   0  0  0  0  0  0  0  0  0  0  0  0
    5.2804    9.5321    3.0661 H   0  0  0  0  0  0  0  0  0  0  0  0
    7.4874    9.4704    4.9589 H   0  0  0  0  0  0  0  0  0  0  0  0
    9.4889    8.5110    4.1262 H   0  0  0  0  0  0  0  0  0  0  0  0
    9.7894    8.4041    1.0633 H   0  0  0  0  0  0  0  0  0  0  0  0
    9.0218    7.1255    2.0653 H   0  0  0  0  0  0  0  0  0  0  0  0
   11.4325    6.8339    1.3647 H   0  0  0  0  0  0  0  0  0  0  0  0
   11.0347    6.4799    3.0494 H   0  0  0  0  0  0  0  0  0  0  0  0
   12.2374    8.0289    3.8800 H   0  0  0  0  0  0  0  0  0  0  0  0
   14.0085    7.0854    3.1155 H   0  0  0  0  0  0  0  0  0  0  0  0
   13.5383    6.2976    0.9562 H   0  0  0  0  0  0  0  0  0  0  0  0
   13.4425    7.9749    0.2641 H   0  0  0  0  0  0  0  0  0  0  0  0
   15.0179    7.2754    0.7915 H   0  0  0  0  0  0  0  0  0  0  0  0
   14.5096    9.7867    1.9793 H   0  0  0  0  0  0  0  0  0  0  0  0
   14.5410    9.3815    3.6464 H   0  0  0  0  0  0  0  0  0  0  0  0
   15.6324    8.6707    2.5838 H   0  0  0  0  0  0  0  0  0  0  0  0
   12.3154   10.3475    2.1360 H   0  0  0  0  0  0  0  0  0  0  0  0
   12.3919   10.1921    3.9024 H   0  0  0  0  0  0  0  0  0  0  0  0
   10.1524   10.7877    2.1682 H   0  0  0  0  0  0  0  0  0  0  0  0
   10.2190   10.8152    3.9494 H   0  0  0  0  0  0  0  0  0  0  0  0
  1  2  1  0
  2  3  1  0
  2  4  1  0
  4  5  1  0
  4  6  1  0
  6  7  1  0
  7  8  1  0
  8  9  2  0
  8 10  1  0
 10 11  1  0
 11 12  1  0
 12 13  1  0
 13 14  1  0
 14 15  1  0
 14 16  1  0
 13 17  1  0
 17 18  1  0
 18 10  1  0
  1 19  1  0
  1 20  1  0
  1 21  1  0
  2 22  1  0
  3 23  1  0
  3 24  1  0
  3 25  1  0
  4 26  1  0
  5 27  1  0
  6 28  1  0
  6 29  1  0
  7 30  1  0
 10 31  1  0
 11 32  1  0
 11 33  1  0
 12 34  1  0
 12 35  1  0
 13 36  1  0
 14 37  1  0
 15 38  1  0
 15 39  1  0
 15 40  1  0
 16 41  1  0
 16 42  1  0
 16 43  1  0
 17 44  1  0
 17 45  1  0
 18 46  1  0
 18 47  1  0
M  CHG  1  16   1
M  END
>  <EmbedRMS>  (159) 
0.16452040208371516

$$$$

     RDKit          3D

 44 44  0  0  0  0  0  0  0  0999 V2000
    4.6319   12.8389    4.8188 C   0  0  0  0  0  0  0  0  0  0  0  0
    5.1755   11.7423    5.7439 C   0  0  0  0  0  0  0  0  0  0  0  0
    6.5815   11.9849    6.0792 N   0  0  0  0  0  0  0  0  0  0  0  0
    4.9867   10.3375    5.1437 C   0  0  0  0  0  0  0  0  0  0  0  0
    5.7840   10.1313    3.8889 C   0  0  0  0  0  0  0  0  0  0  0  0
    5.2576   10.3770    2.7699 O   0  0  0  0  0  0  0  0  0  0  0  0
    7.1446    9.6895    3.9836 N   0  0  0  0  0  0  0  0  0  0  0  0
    8.0079    9.4686    2.8612 C   0  0  0  0  0  0  0  0  0  0  0  0
    7.6060    9.6889    1.6845 O   0  0  0  0  0  0  0  0  0  0  0  0
    9.4148    8.9888    3.1022 C   0  0  0  0  0  0  0  0  0  0  0  0
    9.7997    7.9228    2.0794 C   0  0  0  0  0  0  0  0  0  0  0  0
   11.1581    7.3125    2.3944 C   0  0  0  0  0  0  0  0  0  0  0  0
   12.2752    8.3218    2.7729 C   0  0  0  0  0  0  0  0  0  0  0  0
   13.5806    8.3573    1.9537 C   0  0  0  0  0  0  0  0  0  0  0  0
   13.9840    7.0988    1.1855 C   0  0  0  0  0  0  0  0  0  0  0  0
   14.7110    8.8840    2.7307 N   0  0  0  0  0  4  0  0  0  0  0  0
   11.8311    9.7194    3.3037 C   0  0  0  0  0  0  0  0  0  0  0  0
   10.3963   10.1517    3.0055 C   0  0  0  0  0  0  0  0  0  0  0  0
    3.5653   12.6437    4.5773 H   0  0  0  0  0  0  0  0  0  0  0  0
    5.2124   12.8903    3.8736 H   0  0  0  0  0  0  0  0  0  0  0  0
    4.6981   13.8251    5.3254 H   0  0  0  0  0  0  0  0  0  0  0  0
    4.5824   11.7753    6.6854 H   0  0  0  0  0  0  0  0  0  0  0  0
    6.6365   12.8454    6.6716 H   0  0  0  0  0  0  0  0  0  0  0  0
    7.1253   12.1826    5.2076 H   0  0  0  0  0  0  0  0  0  0  0  0
    5.2872    9.5772    5.8969 H   0  0  0  0  0  0  0  0  0  0  0  0
    3.9090   10.1665    4.9288 H   0  0  0  0  0  0  0  0  0  0  0  0
    7.5307    9.5155    4.9390 H   0  0  0  0  0  0  0  0  0  0  0  0
    9.4764    8.5436    4.1210 H   0  0  0  0  0  0  0  0  0  0  0  0
    9.0361    7.1131    2.0729 H   0  0  0  0  0  0  0  0  0  0  0  0
    9.8320    8.3628    1.0572 H   0  0  0  0  0  0  0  0  0  0  0  0
   11.0019    6.5982    3.2364 H   0  0  0  0  0  0  0  0  0  0  0  0
   11.4428    6.6815    1.5324 H   0  0  0  0  0  0  0  0  0  0  0  0
   12.6570    7.8398    3.7040 H   0  0  0  0  0  0  0  0  0  0  0  0
   13.3809    9.1013    1.1484 H   0  0  0  0  0  0  0  0  0  0  0  0
   13.9867    6.2217    1.8667 H   0  0  0  0  0  0  0  0  0  0  0  0
   15.0005    7.2119    0.7523 H   0  0  0  0  0  0  0  0  0  0  0  0
   13.2932    6.9113    0.3369 H   0  0  0  0  0  0  0  0  0  0  0  0
   14.9940    8.1899    3.4604 H   0  0  0  0  0  0  0  0  0  0  0  0
   15.5287    9.0536    2.1006 H   0  0  0  0  0  0  0  0  0  0  0  0
   14.4916    9.7900    3.1978 H   0  0  0  0  0  0  0  0  0  0  0  0
   11.9639    9.7497    4.4096 H   0  0  0  0  0  0  0  0  0  0  0  0
   12.4764   10.5263    2.8981 H   0  0  0  0  0  0  0  0  0  0  0  0
   10.1025   10.9524    3.7204 H   0  0  0  0  0  0  0  0  0  0  0  0
   10.3555   10.5891    1.9821 H   0  0  0  0  0  0  0  0  0  0  0  0
  1  2  1  0
  2  3  1  0
  2  4  1  0
  4  5  1  0
  5  6  2  0
  5  7  1  0
  7  8  1  0
  8  9  2  0
  8 10  1  0
 10 11  1  0
 11 12  1  0
 12 13  1  0
 13 14  1  0
 14 15  1  0
 14 16  1  0
 13 17  1  0
 17 18  1  0
 18 10  1  0
  1 19  1  0
  1 20  1  0
  1 21  1  0
  2 22  1  0
  3 23  1  0
  3 24  1  0
  4 25  1  0
  4 26  1  0
  7 27  1  0
 10 28  1  0
 11 29  1  0
 11 30  1  0
 12 31  1  0
 12 32  1  0
 13 33  1  0
 14 34  1  0
 15 35  1  0
 15 36  1  0
 15 37  1  0
 16 38  1  0
 16 39  1  0
 16 40  1  0
 17 41  1  0
 17 42  1  0
 18 43  1  0
 18 44  1  0
M  CHG  1  16   1
M  END
>  <EmbedRMS>  (160) 
0.2021617327859544

$$$$

     RDKit          3D

 38 38  0  0  0  0  0  0  0  0999 V2000
   14.0485    7.2193    1.1052 C   0  0  0  0  0  0  0  0  0  0  0  0
   13.6494    7.9557    2.3993 C   0  0  0  0  0  0  0  0  0  0  0  0
   14.6287    9.0157    2.6714 N   0  0  0  0  0  4  0  0  0  0  0  0
   12.1999    8.5121    2.2739 C   0  0  0  0  0  0  0  0  0  0  0  0
   11.1802    7.3659    2.4359 C   0  0  0  0  0  0  0  0  0  0  0  0
    9.7714    7.8716    2.1578 C   0  0  0  0  0  0  0  0  0  0  0  0
    9.4086    8.9939    3.1360 C   0  0  0  0  0  0  0  0  0  0  0  0
    8.0119    9.4795    2.8745 C   0  0  0  0  0  0  0  0  0  0  0  0
    7.6187    9.6893    1.6921 O   0  0  0  0  0  0  0  0  0  0  0  0
    7.1292    9.6965    3.9807 N   0  0  0  0  0  0  0  0  0  0  0  0
    5.7624   10.1694    3.8094 C   0  0  0  0  0  0  0  0  0  0  0  0
    5.7587   11.6573    3.4724 C   0  0  0  0  0  0  0  0  0  0  0  0
    4.4421   12.1064    3.3200 O   0  0  0  0  0  0  0  0  0  0  0  0
   10.4229   10.1485    3.0671 C   0  0  0  0  0  0  0  0  0  0  0  0
   11.8582    9.6379    3.2816 C   0  0  0  0  0  0  0  0  0  0  0  0
   15.0958    6.8574    1.1814 H   0  0  0  0  0  0  0  0  0  0  0  0
   13.9784    7.8974    0.2278 H   0  0  0  0  0  0  0  0  0  0  0  0
   13.4173    6.3269    0.9275 H   0  0  0  0  0  0  0  0  0  0  0  0
   13.6910    7.2251    3.2394 H   0  0  0  0  0  0  0  0  0  0  0  0
   14.4960    9.3935    3.6370 H   0  0  0  0  0  0  0  0  0  0  0  0
   15.6002    8.6298    2.6308 H   0  0  0  0  0  0  0  0  0  0  0  0
   14.5433    9.7863    1.9687 H   0  0  0  0  0  0  0  0  0  0  0  0
   12.0876    8.9473    1.2540 H   0  0  0  0  0  0  0  0  0  0  0  0
   11.2347    6.9393    3.4625 H   0  0  0  0  0  0  0  0  0  0  0  0
   11.3816    6.5452    1.7192 H   0  0  0  0  0  0  0  0  0  0  0  0
    9.0563    7.0278    2.2771 H   0  0  0  0  0  0  0  0  0  0  0  0
    9.7089    8.2307    1.1059 H   0  0  0  0  0  0  0  0  0  0  0  0
    9.4455    8.5679    4.1642 H   0  0  0  0  0  0  0  0  0  0  0  0
    7.4525    9.4673    4.9477 H   0  0  0  0  0  0  0  0  0  0  0  0
    5.2572    9.5890    3.0069 H   0  0  0  0  0  0  0  0  0  0  0  0
    5.2000   10.0100    4.7552 H   0  0  0  0  0  0  0  0  0  0  0  0
    6.2767   12.2336    4.2730 H   0  0  0  0  0  0  0  0  0  0  0  0
    6.3008   11.8316    2.5198 H   0  0  0  0  0  0  0  0  0  0  0  0
    4.0707   12.2170    4.2342 H   0  0  0  0  0  0  0  0  0  0  0  0
   10.3565   10.6518    2.0766 H   0  0  0  0  0  0  0  0  0  0  0  0
   10.1846   10.9008    3.8506 H   0  0  0  0  0  0  0  0  0  0  0  0
   12.5372   10.5052    3.1416 H   0  0  0  0  0  0  0  0  0  0  0  0
   11.9739    9.2660    4.3236 H   0  0  0  0  0  0  0  0  0  0  0  0
  1  2  1  0
  2  3  1  0
  2  4  1  0
  4  5  1  0
  5  6  1  0
  6  7  1  0
  7  8  1  0
  8  9  2  0
  8 10  1  0
 10 11  1  0
 11 12  1  0
 12 13  1  0
  7 14  1  0
 14 15  1  0
 15  4  1  0
  1 16  1  0
  1 17  1  0
  1 18  1  0
  2 19  1  0
  3 20  1  0
  3 21  1  0
  3 22  1  0
  4 23  1  0
  5 24  1  0
  5 25  1  0
  6 26  1  0
  6 27  1  0
  7 28  1  0
 10 29  1  0
 11 30  1  0
 11 31  1  0
 12 32  1  0
 12 33  1  0
 13 34  1  0
 14 35  1  0
 14 36  1  0
 15 37  1  0
 15 38  1  0
M  CHG  1   3   1
M  END
>  <EmbedRMS>  (161) 
0.031392693704421666

$$$$

     RDKit          3D

 44 44  0  0  0  0  0  0  0  0999 V2000
   14.0121    7.0506    1.2525 C   0  0  0  0  0  0  0  0  0  0  0  0
   13.6016    8.3243    1.9896 C   0  0  0  0  0  0  0  0  0  0  0  0
   14.7037    8.8917    2.7690 N   0  0  0  0  0  4  0  0  0  0  0  0
   12.2631    8.3265    2.7679 C   0  0  0  0  0  0  0  0  0  0  0  0
   11.1814    7.4387    2.1356 C   0  0  0  0  0  0  0  0  0  0  0  0
    9.7474    7.7242    2.5476 C   0  0  0  0  0  0  0  0  0  0  0  0
    9.4540    9.1994    2.6430 C   0  0  0  0  0  0  0  0  0  0  0  0
    7.9938    9.5221    2.7258 C   0  0  0  0  0  0  0  0  0  0  0  0
    7.4350    9.6816    1.6176 O   0  0  0  0  0  0  0  0  0  0  0  0
    7.2188    9.6578    3.9295 N   0  0  0  0  0  0  0  0  0  0  0  0
    5.8102   10.0779    3.8664 C   0  0  0  0  0  0  0  0  0  0  0  0
    4.9393    8.9582    3.3431 C   0  0  0  0  0  0  0  0  0  0  0  0
    4.7851    7.9458    4.0801 O   0  0  0  0  0  0  0  0  0  0  0  0
    4.2938    8.9996    2.0460 N   0  0  0  0  0  0  0  0  0  0  0  0
    3.5293    7.8309    1.5965 C   0  0  0  0  0  0  0  0  0  0  0  0
    4.3152   10.2043    1.2080 C   0  0  0  0  0  0  0  0  0  0  0  0
   10.3882   10.0185    3.4877 C   0  0  0  0  0  0  0  0  0  0  0  0
   11.8515    9.7801    3.1235 C   0  0  0  0  0  0  0  0  0  0  0  0
   13.2678    6.7644    0.4814 H   0  0  0  0  0  0  0  0  0  0  0  0
   14.1184    6.2177    1.9790 H   0  0  0  0  0  0  0  0  0  0  0  0
   14.9834    7.1931    0.7324 H   0  0  0  0  0  0  0  0  0  0  0  0
   13.4368    9.0285    1.1410 H   0  0  0  0  0  0  0  0  0  0  0  0
   14.5220    9.8926    3.0062 H   0  0  0  0  0  0  0  0  0  0  0  0
   15.5932    8.8664    2.2191 H   0  0  0  0  0  0  0  0  0  0  0  0
   14.8392    8.3422    3.6484 H   0  0  0  0  0  0  0  0  0  0  0  0
   12.4712    7.8394    3.7472 H   0  0  0  0  0  0  0  0  0  0  0  0
   11.4088    6.3660    2.3234 H   0  0  0  0  0  0  0  0  0  0  0  0
   11.2137    7.5918    1.0347 H   0  0  0  0  0  0  0  0  0  0  0  0
    9.0561    7.2353    1.8247 H   0  0  0  0  0  0  0  0  0  0  0  0
    9.5656    7.2672    3.5449 H   0  0  0  0  0  0  0  0  0  0  0  0
    9.7292    9.5585    1.6197 H   0  0  0  0  0  0  0  0  0  0  0  0
    7.6736    9.5047    4.8572 H   0  0  0  0  0  0  0  0  0  0  0  0
    5.7252   11.0043    3.2641 H   0  0  0  0  0  0  0  0  0  0  0  0
    5.4653   10.3346    4.8910 H   0  0  0  0  0  0  0  0  0  0  0  0
    2.7010    7.6288    2.3080 H   0  0  0  0  0  0  0  0  0  0  0  0
    3.0918    7.9792    0.5870 H   0  0  0  0  0  0  0  0  0  0  0  0
    4.1965    6.9442    1.5522 H   0  0  0  0  0  0  0  0  0  0  0  0
    5.3364   10.4398    0.8665 H   0  0  0  0  0  0  0  0  0  0  0  0
    3.6863   10.0864    0.3010 H   0  0  0  0  0  0  0  0  0  0  0  0
    3.9060   11.0645    1.7784 H   0  0  0  0  0  0  0  0  0  0  0  0
   10.1496   11.1014    3.3914 H   0  0  0  0  0  0  0  0  0  0  0  0
   10.2360    9.7336    4.5515 H   0  0  0  0  0  0  0  0  0  0  0  0
   12.0658   10.4404    2.2542 H   0  0  0  0  0  0  0  0  0  0  0  0
   12.4738   10.1512    3.9668 H   0  0  0  0  0  0  0  0  0  0  0  0
  1  2  1  0
  2  3  1  0
  2  4  1  0
  4  5  1  0
  5  6  1  0
  6  7  1  0
  7  8  1  0
  8  9  2  0
  8 10  1  0
 10 11  1  0
 11 12  1  0
 12 13  2  0
 12 14  1  0
 14 15  1  0
 14 16  1  0
  7 17  1  0
 17 18  1  0
 18  4  1  0
  1 19  1  0
  1 20  1  0
  1 21  1  0
  2 22  1  0
  3 23  1  0
  3 24  1  0
  3 25  1  0
  4 26  1  0
  5 27  1  0
  5 28  1  0
  6 29  1  0
  6 30  1  0
  7 31  1  0
 10 32  1  0
 11 33  1  0
 11 34  1  0
 15 35  1  0
 15 36  1  0
 15 37  1  0
 16 38  1  0
 16 39  1  0
 16 40  1  0
 17 41  1  0
 17 42  1  0
 18 43  1  0
 18 44  1  0
M  CHG  1   3   1
M  END
>  <EmbedRMS>  (162) 
0.2932026556361357

$$$$

     RDKit          3D

 41 41  0  0  0  0  0  0  0  0999 V2000
    6.2087   12.5260    4.6401 C   0  0  0  0  0  0  0  0  0  0  0  0
    5.7640   11.6400    3.4758 C   0  0  0  0  0  0  0  0  0  0  0  0
    4.4679   11.9935    3.0646 O   0  0  0  0  0  0  0  0  0  0  0  0
    5.8328   10.1467    3.8641 C   0  0  0  0  0  0  0  0  0  0  0  0
    7.2282    9.6850    3.9299 N   0  0  0  0  0  0  0  0  0  0  0  0
    7.9894    9.5239    2.7207 C   0  0  0  0  0  0  0  0  0  0  0  0
    7.4161    9.6728    1.6144 O   0  0  0  0  0  0  0  0  0  0  0  0
    9.4505    9.2009    2.6353 C   0  0  0  0  0  0  0  0  0  0  0  0
    9.7454    7.7255    2.5443 C   0  0  0  0  0  0  0  0  0  0  0  0
   11.1802    7.4393    2.1347 C   0  0  0  0  0  0  0  0  0  0  0  0
   12.2615    8.3272    2.7673 C   0  0  0  0  0  0  0  0  0  0  0  0
   13.6008    8.3246    1.9898 C   0  0  0  0  0  0  0  0  0  0  0  0
   14.0116    7.0508    1.2528 C   0  0  0  0  0  0  0  0  0  0  0  0
   14.7027    8.8918    2.7697 N   0  0  0  0  0  4  0  0  0  0  0  0
   11.8490    9.7807    3.1221 C   0  0  0  0  0  0  0  0  0  0  0  0
   10.3844   10.0198    3.4822 C   0  0  0  0  0  0  0  0  0  0  0  0
    7.2594   12.2967    4.9190 H   0  0  0  0  0  0  0  0  0  0  0  0
    5.5569   12.3697    5.5263 H   0  0  0  0  0  0  0  0  0  0  0  0
    6.1519   13.5941    4.3412 H   0  0  0  0  0  0  0  0  0  0  0  0
    6.4447   11.8349    2.6207 H   0  0  0  0  0  0  0  0  0  0  0  0
    3.8513   11.8005    3.8192 H   0  0  0  0  0  0  0  0  0  0  0  0
    5.3439    9.9870    4.8501 H   0  0  0  0  0  0  0  0  0  0  0  0
    5.2758    9.5353    3.1209 H   0  0  0  0  0  0  0  0  0  0  0  0
    7.6600    9.4551    4.8526 H   0  0  0  0  0  0  0  0  0  0  0  0
    9.7227    9.5597    1.6116 H   0  0  0  0  0  0  0  0  0  0  0  0
    9.0553    7.2345    1.8218 H   0  0  0  0  0  0  0  0  0  0  0  0
    9.5627    7.2709    3.5425 H   0  0  0  0  0  0  0  0  0  0  0  0
   11.2138    7.5913    1.0337 H   0  0  0  0  0  0  0  0  0  0  0  0
   11.4070    6.3666    2.3237 H   0  0  0  0  0  0  0  0  0  0  0  0
   12.4690    7.8404    3.7470 H   0  0  0  0  0  0  0  0  0  0  0  0
   13.4366    9.0289    1.1411 H   0  0  0  0  0  0  0  0  0  0  0  0
   14.9834    7.1931    0.7338 H   0  0  0  0  0  0  0  0  0  0  0  0
   14.1169    6.2178    1.9792 H   0  0  0  0  0  0  0  0  0  0  0  0
   13.2679    6.7650    0.4809 H   0  0  0  0  0  0  0  0  0  0  0  0
   14.8391    8.3407    3.6478 H   0  0  0  0  0  0  0  0  0  0  0  0
   14.5198    9.8920    3.0090 H   0  0  0  0  0  0  0  0  0  0  0  0
   15.5918    8.8686    2.2192 H   0  0  0  0  0  0  0  0  0  0  0  0
   12.4693   10.1517    3.9669 H   0  0  0  0  0  0  0  0  0  0  0  0
   12.0657   10.4410    2.2534 H   0  0  0  0  0  0  0  0  0  0  0  0
   10.2293    9.7359    4.5458 H   0  0  0  0  0  0  0  0  0  0  0  0
   10.1463   11.1028    3.3851 H   0  0  0  0  0  0  0  0  0  0  0  0
  1  2  1  0
  2  3  1  0
  2  4  1  0
  4  5  1  0
  5  6  1  0
  6  7  2  0
  6  8  1  0
  8  9  1  0
  9 10  1  0
 10 11  1  0
 11 12  1  0
 12 13  1  0
 12 14  1  0
 11 15  1  0
 15 16  1  0
 16  8  1  0
  1 17  1  0
  1 18  1  0
  1 19  1  0
  2 20  1  0
  3 21  1  0
  4 22  1  0
  4 23  1  0
  5 24  1  0
  8 25  1  0
  9 26  1  0
  9 27  1  0
 10 28  1  0
 10 29  1  0
 11 30  1  0
 12 31  1  0
 13 32  1  0
 13 33  1  0
 13 34  1  0
 14 35  1  0
 14 36  1  0
 14 37  1  0
 15 38  1  0
 15 39  1  0
 16 40  1  0
 16 41  1  0
M  CHG  1  14   1
M  END
>  <EmbedRMS>  (163) 
0.3113970459893027

$$$$

     RDKit          3D

 38 38  0  0  0  0  0  0  0  0999 V2000
   14.0281    7.0397    1.2343 C   0  0  0  0  0  0  0  0  0  0  0  0
   13.6693    8.3364    1.9396 C   0  0  0  0  0  0  0  0  0  0  0  0
   14.6134    8.7687    2.9623 N   0  0  0  0  0  4  0  0  0  0  0  0
   12.1578    8.5899    2.2120 C   0  0  0  0  0  0  0  0  0  0  0  0
   11.2405    7.3772    2.4519 C   0  0  0  0  0  0  0  0  0  0  0  0
    9.7885    7.8243    2.2114 C   0  0  0  0  0  0  0  0  0  0  0  0
    9.4114    8.9838    3.1519 C   0  0  0  0  0  0  0  0  0  0  0  0
    8.0137    9.4644    2.8764 C   0  0  0  0  0  0  0  0  0  0  0  0
    7.6236    9.6755    1.6931 O   0  0  0  0  0  0  0  0  0  0  0  0
    7.1388    9.7055    3.9791 N   0  0  0  0  0  0  0  0  0  0  0  0
    5.7610   10.1385    3.7918 C   0  0  0  0  0  0  0  0  0  0  0  0
    5.0964   10.2807    5.1228 C   0  0  0  0  0  0  0  0  0  0  0  0
    5.2137   11.4974    5.8582 N   0  0  0  0  0  0  0  0  0  0  0  0
    4.4940    9.2972    5.6288 O   0  0  0  0  0  0  0  0  0  0  0  0
   10.4061   10.1586    3.0871 C   0  0  0  0  0  0  0  0  0  0  0  0
   11.8556    9.6808    3.2542 C   0  0  0  0  0  0  0  0  0  0  0  0
   13.3771    6.8823    0.3473 H   0  0  0  0  0  0  0  0  0  0  0  0
   13.9078    6.1867    1.9346 H   0  0  0  0  0  0  0  0  0  0  0  0
   15.0832    7.0603    0.8857 H   0  0  0  0  0  0  0  0  0  0  0  0
   13.8831    9.0582    1.1114 H   0  0  0  0  0  0  0  0  0  0  0  0
   15.5896    8.5022    2.6974 H   0  0  0  0  0  0  0  0  0  0  0  0
   14.3777    8.3021    3.8677 H   0  0  0  0  0  0  0  0  0  0  0  0
   14.5961    9.8060    3.0881 H   0  0  0  0  0  0  0  0  0  0  0  0
   11.8027    9.0089    1.2373 H   0  0  0  0  0  0  0  0  0  0  0  0
   11.3695    6.9868    3.4852 H   0  0  0  0  0  0  0  0  0  0  0  0
   11.4632    6.5568    1.7395 H   0  0  0  0  0  0  0  0  0  0  0  0
    9.6589    8.1233    1.1472 H   0  0  0  0  0  0  0  0  0  0  0  0
    9.1130    6.9617    2.4019 H   0  0  0  0  0  0  0  0  0  0  0  0
    9.4464    8.5784    4.1883 H   0  0  0  0  0  0  0  0  0  0  0  0
    7.5087    9.5678    4.9482 H   0  0  0  0  0  0  0  0  0  0  0  0
    5.7440   11.1125    3.2573 H   0  0  0  0  0  0  0  0  0  0  0  0
    5.2145    9.3890    3.1791 H   0  0  0  0  0  0  0  0  0  0  0  0
    5.7459   12.3067    5.4681 H   0  0  0  0  0  0  0  0  0  0  0  0
    4.7721   11.5883    6.8000 H   0  0  0  0  0  0  0  0  0  0  0  0
   10.1715   10.8883    3.8929 H   0  0  0  0  0  0  0  0  0  0  0  0
   10.3032   10.6869    2.1126 H   0  0  0  0  0  0  0  0  0  0  0  0
   12.5086   10.5642    3.0949 H   0  0  0  0  0  0  0  0  0  0  0  0
   12.0204    9.2949    4.2840 H   0  0  0  0  0  0  0  0  0  0  0  0
  1  2  1  0
  2  3  1  0
  2  4  1  0
  4  5  1  0
  5  6  1  0
  6  7  1  0
  7  8  1  0
  8  9  2  0
  8 10  1  0
 10 11  1  0
 11 12  1  0
 12 13  1  0
 12 14  2  0
  7 15  1  0
 15 16  1  0
 16  4  1  0
  1 17  1  0
  1 18  1  0
  1 19  1  0
  2 20  1  0
  3 21  1  0
  3 22  1  0
  3 23  1  0
  4 24  1  0
  5 25  1  0
  5 26  1  0
  6 27  1  0
  6 28  1  0
  7 29  1  0
 10 30  1  0
 11 31  1  0
 11 32  1  0
 13 33  1  0
 13 34  1  0
 15 35  1  0
 15 36  1  0
 16 37  1  0
 16 38  1  0
M  CHG  1   3   1
M  END
>  <EmbedRMS>  (164) 
0.1933160619529778

$$$$

     RDKit          3D

 35 35  0  0  0  0  0  0  0  0999 V2000
   13.9234    7.3281    1.0385 C   0  0  0  0  0  0  0  0  0  0  0  0
   13.7076    7.9208    2.4413 C   0  0  0  0  0  0  0  0  0  0  0  0
   14.6424    9.0265    2.6703 N   0  0  0  0  0  4  0  0  0  0  0  0
   12.2294    8.2932    2.8207 C   0  0  0  0  0  0  0  0  0  0  0  0
   11.1743    7.4151    2.1496 C   0  0  0  0  0  0  0  0  0  0  0  0
    9.7354    7.7242    2.5340 C   0  0  0  0  0  0  0  0  0  0  0  0
    9.4508    9.2044    2.6210 C   0  0  0  0  0  0  0  0  0  0  0  0
    7.9903    9.5374    2.7232 C   0  0  0  0  0  0  0  0  0  0  0  0
    7.4045    9.6951    1.6247 O   0  0  0  0  0  0  0  0  0  0  0  0
    7.2417    9.6872    3.9402 N   0  0  0  0  0  0  0  0  0  0  0  0
    5.8463   10.1468    3.8960 C   0  0  0  0  0  0  0  0  0  0  0  0
    5.7801   11.4548    3.3903 O   0  0  0  0  0  0  0  0  0  0  0  0
   10.4241   10.0508    3.4113 C   0  0  0  0  0  0  0  0  0  0  0  0
   11.8790    9.7839    2.9949 C   0  0  0  0  0  0  0  0  0  0  0  0
   13.5739    8.0446    0.2653 H   0  0  0  0  0  0  0  0  0  0  0  0
   13.3790    6.3674    0.9247 H   0  0  0  0  0  0  0  0  0  0  0  0
   15.0005    7.1183    0.8659 H   0  0  0  0  0  0  0  0  0  0  0  0
   14.0110    7.0966    3.1300 H   0  0  0  0  0  0  0  0  0  0  0  0
   15.6233    8.7085    2.4934 H   0  0  0  0  0  0  0  0  0  0  0  0
   14.5976    9.3368    3.6676 H   0  0  0  0  0  0  0  0  0  0  0  0
   14.4339    9.8270    2.0307 H   0  0  0  0  0  0  0  0  0  0  0  0
   12.1624    7.9508    3.8807 H   0  0  0  0  0  0  0  0  0  0  0  0
   11.2479    7.5616    1.0504 H   0  0  0  0  0  0  0  0  0  0  0  0
   11.3801    6.3420    2.3598 H   0  0  0  0  0  0  0  0  0  0  0  0
    9.5305    7.2743    3.5300 H   0  0  0  0  0  0  0  0  0  0  0  0
    9.0510    7.2391    1.8021 H   0  0  0  0  0  0  0  0  0  0  0  0
    9.6990    9.5364    1.5822 H   0  0  0  0  0  0  0  0  0  0  0  0
    7.6948    9.4801    4.8581 H   0  0  0  0  0  0  0  0  0  0  0  0
    5.2491    9.4709    3.2480 H   0  0  0  0  0  0  0  0  0  0  0  0
    5.4077   10.1129    4.9184 H   0  0  0  0  0  0  0  0  0  0  0  0
    6.2057   12.0386    4.0709 H   0  0  0  0  0  0  0  0  0  0  0  0
   10.1930   11.1308    3.2770 H   0  0  0  0  0  0  0  0  0  0  0  0
   10.3073    9.8089    4.4900 H   0  0  0  0  0  0  0  0  0  0  0  0
   12.5373   10.2611    3.7514 H   0  0  0  0  0  0  0  0  0  0  0  0
   12.0587   10.2943    2.0238 H   0  0  0  0  0  0  0  0  0  0  0  0
  1  2  1  0
  2  3  1  0
  2  4  1  0
  4  5  1  0
  5  6  1  0
  6  7  1  0
  7  8  1  0
  8  9  2  0
  8 10  1  0
 10 11  1  0
 11 12  1  0
  7 13  1  0
 13 14  1  0
 14  4  1  0
  1 15  1  0
  1 16  1  0
  1 17  1  0
  2 18  1  0
  3 19  1  0
  3 20  1  0
  3 21  1  0
  4 22  1  0
  5 23  1  0
  5 24  1  0
  6 25  1  0
  6 26  1  0
  7 27  1  0
 10 28  1  0
 11 29  1  0
 11 30  1  0
 12 31  1  0
 13 32  1  0
 13 33  1  0
 14 34  1  0
 14 35  1  0
M  CHG  1   3   1
M  END
>  <EmbedRMS>  (165) 
0.2982641845284745

$$$$

     RDKit          3D

 41 41  0  0  0  0  0  0  0  0999 V2000
   14.0112    7.0502    1.2530 C   0  0  0  0  0  0  0  0  0  0  0  0
   13.6006    8.3242    1.9896 C   0  0  0  0  0  0  0  0  0  0  0  0
   14.7025    8.8915    2.7695 N   0  0  0  0  0  4  0  0  0  0  0  0
   12.2611    8.3275    2.7668 C   0  0  0  0  0  0  0  0  0  0  0  0
   11.1789    7.4405    2.1342 C   0  0  0  0  0  0  0  0  0  0  0  0
    9.7438    7.7286    2.5427 C   0  0  0  0  0  0  0  0  0  0  0  0
    9.4497    9.2048    2.6337 C   0  0  0  0  0  0  0  0  0  0  0  0
    7.9879    9.5295    2.7214 C   0  0  0  0  0  0  0  0  0  0  0  0
    7.4128    9.6770    1.6163 O   0  0  0  0  0  0  0  0  0  0  0  0
    7.2353    9.7042    3.9341 N   0  0  0  0  0  0  0  0  0  0  0  0
    5.8340   10.1508    3.8938 C   0  0  0  0  0  0  0  0  0  0  0  0
    5.7099   11.6592    4.1550 C   0  0  0  0  0  0  0  0  0  0  0  0
    6.2760   12.5224    3.0236 C   0  0  0  0  0  0  0  0  0  0  0  0
    7.6715   12.5833    3.1173 O   0  0  0  0  0  0  0  0  0  0  0  0
   10.3857   10.0213    3.4811 C   0  0  0  0  0  0  0  0  0  0  0  0
   11.8496    9.7812    3.1206 C   0  0  0  0  0  0  0  0  0  0  0  0
   14.1168    6.2176    1.9797 H   0  0  0  0  0  0  0  0  0  0  0  0
   13.2672    6.7640    0.4815 H   0  0  0  0  0  0  0  0  0  0  0  0
   14.9828    7.1924    0.7335 H   0  0  0  0  0  0  0  0  0  0  0  0
   13.4368    9.0282    1.1406 H   0  0  0  0  0  0  0  0  0  0  0  0
   14.8376    8.3417    3.6487 H   0  0  0  0  0  0  0  0  0  0  0  0
   14.5205    9.8923    3.0071 H   0  0  0  0  0  0  0  0  0  0  0  0
   15.5921    8.8665    2.2199 H   0  0  0  0  0  0  0  0  0  0  0  0
   12.4679    7.8409    3.7467 H   0  0  0  0  0  0  0  0  0  0  0  0
   11.2133    7.5919    1.0331 H   0  0  0  0  0  0  0  0  0  0  0  0
   11.4044    6.3677    2.3239 H   0  0  0  0  0  0  0  0  0  0  0  0
    9.5597    7.2741    3.5407 H   0  0  0  0  0  0  0  0  0  0  0  0
    9.0536    7.2385    1.8196 H   0  0  0  0  0  0  0  0  0  0  0  0
    9.7211    9.5640    1.6100 H   0  0  0  0  0  0  0  0  0  0  0  0
    7.7202    9.6263    4.8558 H   0  0  0  0  0  0  0  0  0  0  0  0
    5.2756    9.6127    4.6895 H   0  0  0  0  0  0  0  0  0  0  0  0
    5.3471    9.8825    2.9314 H   0  0  0  0  0  0  0  0  0  0  0  0
    6.2064   11.9192    5.1154 H   0  0  0  0  0  0  0  0  0  0  0  0
    4.6296   11.8978    4.2654 H   0  0  0  0  0  0  0  0  0  0  0  0
    5.8625   13.5509    3.1198 H   0  0  0  0  0  0  0  0  0  0  0  0
    5.9690   12.1143    2.0344 H   0  0  0  0  0  0  0  0  0  0  0  0
    7.9776   13.1131    2.3361 H   0  0  0  0  0  0  0  0  0  0  0  0
   10.2319    9.7363    4.5446 H   0  0  0  0  0  0  0  0  0  0  0  0
   10.1501   11.1047    3.3855 H   0  0  0  0  0  0  0  0  0  0  0  0
   12.0661   10.4408    2.2513 H   0  0  0  0  0  0  0  0  0  0  0  0
   12.4705   10.1525    3.9649 H   0  0  0  0  0  0  0  0  0  0  0  0
  1  2  1  0
  2  3  1  0
  2  4  1  0
  4  5  1  0
  5  6  1  0
  6  7  1  0
  7  8  1  0
  8  9  2  0
  8 10  1  0
 10 11  1  0
 11 12  1  0
 12 13  1  0
 13 14  1  0
  7 15  1  0
 15 16  1  0
 16  4  1  0
  1 17  1  0
  1 18  1  0
  1 19  1  0
  2 20  1  0
  3 21  1  0
  3 22  1  0
  3 23  1  0
  4 24  1  0
  5 25  1  0
  5 26  1  0
  6 27  1  0
  6 28  1  0
  7 29  1  0
 10 30  1  0
 11 31  1  0
 11 32  1  0
 12 33  1  0
 12 34  1  0
 13 35  1  0
 13 36  1  0
 14 37  1  0
 15 38  1  0
 15 39  1  0
 16 40  1  0
 16 41  1  0
M  CHG  1   3   1
M  END
>  <EmbedRMS>  (166) 
0.31188721664002633

$$$$

     RDKit          3D

 42 43  0  0  0  0  0  0  0  0999 V2000
   14.0330    7.0540    1.2471 C   0  0  0  0  0  0  0  0  0  0  0  0
   13.6231    8.3263    1.9878 C   0  0  0  0  0  0  0  0  0  0  0  0
   14.7253    8.8947    2.7647 N   0  0  0  0  0  4  0  0  0  0  0  0
   12.2964    8.3187    2.7744 C   0  0  0  0  0  0  0  0  0  0  0  0
   11.2276    7.4167    2.1435 C   0  0  0  0  0  0  0  0  0  0  0  0
    9.8095    7.6829    2.5731 C   0  0  0  0  0  0  0  0  0  0  0  0
    9.5272    9.1505    2.6632 C   0  0  0  0  0  0  0  0  0  0  0  0
    8.0940    9.4103    2.7033 C   0  0  0  0  0  0  0  0  0  0  0  0
    7.5780    9.4659    1.5496 O   0  0  0  0  0  0  0  0  0  0  0  0
    7.2637    9.6830    3.8840 N   0  0  0  0  0  0  0  0  0  0  0  0
    5.8846   10.1856    3.6863 C   0  0  0  0  0  0  0  0  0  0  0  0
    4.8719    9.2381    3.0326 C   0  0  0  0  0  0  0  0  0  0  0  0
    4.1347   10.1068    1.9568 C   0  0  0  0  0  0  0  0  0  0  0  0
    4.5061   11.5093    2.2176 N   0  0  0  0  0  0  0  0  0  0  0  0
    5.5081   11.5460    3.2609 C   0  0  0  0  0  0  0  0  0  0  0  0
    6.1168   12.5973    3.6130 O   0  0  0  0  0  0  0  0  0  0  0  0
   10.4200    9.9970    3.5099 C   0  0  0  0  0  0  0  0  0  0  0  0
   11.8814    9.7716    3.1445 C   0  0  0  0  0  0  0  0  0  0  0  0
   13.2938    6.7731    0.4691 H   0  0  0  0  0  0  0  0  0  0  0  0
   15.0073    7.1962    0.7328 H   0  0  0  0  0  0  0  0  0  0  0  0
   14.1346    6.2175    1.9701 H   0  0  0  0  0  0  0  0  0  0  0  0
   13.4505    9.0328    1.1426 H   0  0  0  0  0  0  0  0  0  0  0  0
   14.5420    9.8942    3.0064 H   0  0  0  0  0  0  0  0  0  0  0  0
   15.6122    8.8750    2.2105 H   0  0  0  0  0  0  0  0  0  0  0  0
   14.8681    8.3422    3.6411 H   0  0  0  0  0  0  0  0  0  0  0  0
   12.5153    7.8285    3.7500 H   0  0  0  0  0  0  0  0  0  0  0  0
   11.4703    6.3464    2.3266 H   0  0  0  0  0  0  0  0  0  0  0  0
   11.2464    7.5744    1.0425 H   0  0  0  0  0  0  0  0  0  0  0  0
    9.1175    7.1792    1.8594 H   0  0  0  0  0  0  0  0  0  0  0  0
    9.6470    7.2298    3.5759 H   0  0  0  0  0  0  0  0  0  0  0  0
    9.8234    9.5144    1.6448 H   0  0  0  0  0  0  0  0  0  0  0  0
    7.6743    9.6462    4.8428 H   0  0  0  0  0  0  0  0  0  0  0  0
    6.2636   10.5382    2.7665 H   0  0  0  0  0  0  0  0  0  0  0  0
    4.1521    8.8924    3.8046 H   0  0  0  0  0  0  0  0  0  0  0  0
    5.3579    8.3532    2.5661 H   0  0  0  0  0  0  0  0  0  0  0  0
    4.4689    9.8209    0.9365 H   0  0  0  0  0  0  0  0  0  0  0  0
    3.0339    9.9836    2.0377 H   0  0  0  0  0  0  0  0  0  0  0  0
    4.1707   12.3349    1.6739 H   0  0  0  0  0  0  0  0  0  0  0  0
   10.1625   11.0746    3.4009 H   0  0  0  0  0  0  0  0  0  0  0  0
   10.2674    9.7145    4.5745 H   0  0  0  0  0  0  0  0  0  0  0  0
   12.0946   10.4418    2.2823 H   0  0  0  0  0  0  0  0  0  0  0  0
   12.5019   10.1361    3.9920 H   0  0  0  0  0  0  0  0  0  0  0  0
  1  2  1  0
  2  3  1  0
  2  4  1  0
  4  5  1  0
  5  6  1  0
  6  7  1  0
  7  8  1  0
  8  9  2  0
  8 10  1  0
 10 11  1  0
 11 12  1  0
 12 13  1  0
 13 14  1  0
 14 15  1  0
 15 16  2  0
  7 17  1  0
 17 18  1  0
 18  4  1  0
 15 11  1  0
  1 19  1  0
  1 20  1  0
  1 21  1  0
  2 22  1  0
  3 23  1  0
  3 24  1  0
  3 25  1  0
  4 26  1  0
  5 27  1  0
  5 28  1  0
  6 29  1  0
  6 30  1  0
  7 31  1  0
 10 32  1  0
 11 33  1  0
 12 34  1  0
 12 35  1  0
 13 36  1  0
 13 37  1  0
 14 38  1  0
 17 39  1  0
 17 40  1  0
 18 41  1  0
 18 42  1  0
M  CHG  1   3   1
M  END
>  <EmbedRMS>  (167) 
0.32492149014301314

$$$$

     RDKit          3D

 44 44  0  0  0  0  0  0  0  0999 V2000
   14.0121    7.0506    1.2525 C   0  0  0  0  0  0  0  0  0  0  0  0
   13.6016    8.3243    1.9896 C   0  0  0  0  0  0  0  0  0  0  0  0
   14.7037    8.8917    2.7690 N   0  0  0  0  0  4  0  0  0  0  0  0
   12.2631    8.3265    2.7679 C   0  0  0  0  0  0  0  0  0  0  0  0
   11.1814    7.4387    2.1356 C   0  0  0  0  0  0  0  0  0  0  0  0
    9.7474    7.7242    2.5476 C   0  0  0  0  0  0  0  0  0  0  0  0
    9.4540    9.1994    2.6430 C   0  0  0  0  0  0  0  0  0  0  0  0
    7.9938    9.5221    2.7258 C   0  0  0  0  0  0  0  0  0  0  0  0
    7.4350    9.6816    1.6176 O   0  0  0  0  0  0  0  0  0  0  0  0
    7.2188    9.6578    3.9295 N   0  0  0  0  0  0  0  0  0  0  0  0
    5.8102   10.0779    3.8664 C   0  0  0  0  0  0  0  0  0  0  0  0
    4.9393    8.9582    3.3431 C   0  0  0  0  0  0  0  0  0  0  0  0
    4.7851    7.9458    4.0801 O   0  0  0  0  0  0  0  0  0  0  0  0
    4.2938    8.9996    2.0460 N   0  0  0  0  0  0  0  0  0  0  0  0
    3.5293    7.8309    1.5965 C   0  0  0  0  0  0  0  0  0  0  0  0
    4.3152   10.2043    1.2080 C   0  0  0  0  0  0  0  0  0  0  0  0
   10.3882   10.0185    3.4877 C   0  0  0  0  0  0  0  0  0  0  0  0
   11.8515    9.7801    3.1235 C   0  0  0  0  0  0  0  0  0  0  0  0
   13.2678    6.7644    0.4814 H   0  0  0  0  0  0  0  0  0  0  0  0
   14.1184    6.2177    1.9790 H   0  0  0  0  0  0  0  0  0  0  0  0
   14.9834    7.1931    0.7324 H   0  0  0  0  0  0  0  0  0  0  0  0
   13.4368    9.0285    1.1410 H   0  0  0  0  0  0  0  0  0  0  0  0
   14.5220    9.8926    3.0062 H   0  0  0  0  0  0  0  0  0  0  0  0
   15.5932    8.8664    2.2191 H   0  0  0  0  0  0  0  0  0  0  0  0
   14.8392    8.3422    3.6484 H   0  0  0  0  0  0  0  0  0  0  0  0
   12.4712    7.8394    3.7472 H   0  0  0  0  0  0  0  0  0  0  0  0
   11.4088    6.3660    2.3234 H   0  0  0  0  0  0  0  0  0  0  0  0
   11.2137    7.5918    1.0347 H   0  0  0  0  0  0  0  0  0  0  0  0
    9.0561    7.2353    1.8247 H   0  0  0  0  0  0  0  0  0  0  0  0
    9.5656    7.2672    3.5449 H   0  0  0  0  0  0  0  0  0  0  0  0
    9.7292    9.5585    1.6197 H   0  0  0  0  0  0  0  0  0  0  0  0
    7.6736    9.5047    4.8572 H   0  0  0  0  0  0  0  0  0  0  0  0
    5.7252   11.0043    3.2641 H   0  0  0  0  0  0  0  0  0  0  0  0
    5.4653   10.3346    4.8910 H   0  0  0  0  0  0  0  0  0  0  0  0
    2.7010    7.6288    2.3080 H   0  0  0  0  0  0  0  0  0  0  0  0
    3.0918    7.9792    0.5870 H   0  0  0  0  0  0  0  0  0  0  0  0
    4.1965    6.9442    1.5522 H   0  0  0  0  0  0  0  0  0  0  0  0
    5.3364   10.4398    0.8665 H   0  0  0  0  0  0  0  0  0  0  0  0
    3.6863   10.0864    0.3010 H   0  0  0  0  0  0  0  0  0  0  0  0
    3.9060   11.0645    1.7784 H   0  0  0  0  0  0  0  0  0  0  0  0
   10.1496   11.1014    3.3914 H   0  0  0  0  0  0  0  0  0  0  0  0
   10.2360    9.7336    4.5515 H   0  0  0  0  0  0  0  0  0  0  0  0
   12.0658   10.4404    2.2542 H   0  0  0  0  0  0  0  0  0  0  0  0
   12.4738   10.1512    3.9668 H   0  0  0  0  0  0  0  0  0  0  0  0
  1  2  1  0
  2  3  1  0
  2  4  1  0
  4  5  1  0
  5  6  1  0
  6  7  1  0
  7  8  1  0
  8  9  2  0
  8 10  1  0
 10 11  1  0
 11 12  1  0
 12 13  2  0
 12 14  1  0
 14 15  1  0
 14 16  1  0
  7 17  1  0
 17 18  1  0
 18  4  1  0
  1 19  1  0
  1 20  1  0
  1 21  1  0
  2 22  1  0
  3 23  1  0
  3 24  1  0
  3 25  1  0
  4 26  1  0
  5 27  1  0
  5 28  1  0
  6 29  1  0
  6 30  1  0
  7 31  1  0
 10 32  1  0
 11 33  1  0
 11 34  1  0
 15 35  1  0
 15 36  1  0
 15 37  1  0
 16 38  1  0
 16 39  1  0
 16 40  1  0
 17 41  1  0
 17 42  1  0
 18 43  1  0
 18 44  1  0
M  CHG  1   3   1
M  END
>  <EmbedRMS>  (168) 
0.2932026556361357

$$$$

     RDKit          3D

 44 44  0  0  0  0  0  0  0  0999 V2000
   14.0273    7.0397    1.2342 C   0  0  0  0  0  0  0  0  0  0  0  0
   13.6687    8.3364    1.9397 C   0  0  0  0  0  0  0  0  0  0  0  0
   14.6133    8.7687    2.9619 N   0  0  0  0  0  4  0  0  0  0  0  0
   12.1572    8.5898    2.2127 C   0  0  0  0  0  0  0  0  0  0  0  0
   11.2401    7.3773    2.4539 C   0  0  0  0  0  0  0  0  0  0  0  0
    9.7876    7.8244    2.2163 C   0  0  0  0  0  0  0  0  0  0  0  0
    9.4111    8.9846    3.1576 C   0  0  0  0  0  0  0  0  0  0  0  0
    8.0155    9.4669    2.8796 C   0  0  0  0  0  0  0  0  0  0  0  0
    7.6311    9.6756    1.6937 O   0  0  0  0  0  0  0  0  0  0  0  0
    7.1365    9.7203    3.9800 N   0  0  0  0  0  0  0  0  0  0  0  0
    5.7524   10.1299    3.7933 C   0  0  0  0  0  0  0  0  0  0  0  0
    4.9121    8.9419    3.3299 C   0  0  0  0  0  0  0  0  0  0  0  0
    3.5201    9.3544    3.1309 N   0  0  0  0  0  0  0  0  0  0  0  0
    2.9650    9.4696    1.7835 C   0  0  0  0  0  0  0  0  0  0  0  0
    2.6570    9.5968    4.2527 C   0  0  0  0  0  0  0  0  0  0  0  0
    3.0756    9.4611    5.4335 O   0  0  0  0  0  0  0  0  0  0  0  0
   10.4065   10.1587    3.0899 C   0  0  0  0  0  0  0  0  0  0  0  0
   11.8560    9.6807    3.2551 C   0  0  0  0  0  0  0  0  0  0  0  0
   15.0823    7.0604    0.8851 H   0  0  0  0  0  0  0  0  0  0  0  0
   13.3758    6.8820    0.3477 H   0  0  0  0  0  0  0  0  0  0  0  0
   13.9075    6.1867    1.9347 H   0  0  0  0  0  0  0  0  0  0  0  0
   13.8820    9.0581    1.1114 H   0  0  0  0  0  0  0  0  0  0  0  0
   14.3781    8.3022    3.8674 H   0  0  0  0  0  0  0  0  0  0  0  0
   14.5962    9.8060    3.0876 H   0  0  0  0  0  0  0  0  0  0  0  0
   15.5894    8.5022    2.6965 H   0  0  0  0  0  0  0  0  0  0  0  0
   11.8013    9.0085    1.2382 H   0  0  0  0  0  0  0  0  0  0  0  0
   11.3707    6.9867    3.4869 H   0  0  0  0  0  0  0  0  0  0  0  0
   11.4617    6.5570    1.7409 H   0  0  0  0  0  0  0  0  0  0  0  0
    9.1123    6.9619    2.4079 H   0  0  0  0  0  0  0  0  0  0  0  0
    9.6566    8.1230    1.1520 H   0  0  0  0  0  0  0  0  0  0  0  0
    9.4423    8.5813    4.1950 H   0  0  0  0  0  0  0  0  0  0  0  0
    7.5063    9.6601    4.9558 H   0  0  0  0  0  0  0  0  0  0  0  0
    5.3580   10.5173    4.7566 H   0  0  0  0  0  0  0  0  0  0  0  0
    5.6989   10.9533    3.0481 H   0  0  0  0  0  0  0  0  0  0  0  0
    5.3362    8.5286    2.3899 H   0  0  0  0  0  0  0  0  0  0  0  0
    4.9568    8.1289    4.0873 H   0  0  0  0  0  0  0  0  0  0  0  0
    3.7352    9.2862    1.0049 H   0  0  0  0  0  0  0  0  0  0  0  0
    2.5610   10.4931    1.6332 H   0  0  0  0  0  0  0  0  0  0  0  0
    2.1455    8.7319    1.6522 H   0  0  0  0  0  0  0  0  0  0  0  0
    1.6295    9.8977    4.0910 H   0  0  0  0  0  0  0  0  0  0  0  0
   10.1736   10.8895    3.8952 H   0  0  0  0  0  0  0  0  0  0  0  0
   10.3026   10.6862    2.1151 H   0  0  0  0  0  0  0  0  0  0  0  0
   12.0220    9.2949    4.2848 H   0  0  0  0  0  0  0  0  0  0  0  0
   12.5088   10.5642    3.0950 H   0  0  0  0  0  0  0  0  0  0  0  0
  1  2  1  0
  2  3  1  0
  2  4  1  0
  4  5  1  0
  5  6  1  0
  6  7  1  0
  7  8  1  0
  8  9  2  0
  8 10  1  0
 10 11  1  0
 11 12  1  0
 12 13  1  0
 13 14  1  0
 13 15  1  0
 15 16  2  0
  7 17  1  0
 17 18  1  0
 18  4  1  0
  1 19  1  0
  1 20  1  0
  1 21  1  0
  2 22  1  0
  3 23  1  0
  3 24  1  0
  3 25  1  0
  4 26  1  0
  5 27  1  0
  5 28  1  0
  6 29  1  0
  6 30  1  0
  7 31  1  0
 10 32  1  0
 11 33  1  0
 11 34  1  0
 12 35  1  0
 12 36  1  0
 14 37  1  0
 14 38  1  0
 14 39  1  0
 15 40  1  0
 17 41  1  0
 17 42  1  0
 18 43  1  0
 18 44  1  0
M  CHG  1   3   1
M  END
>  <EmbedRMS>  (169) 
0.18265891910600293

$$$$

     RDKit          3D

 44 44  0  0  0  0  0  0  0  0999 V2000
   14.0121    7.0506    1.2525 C   0  0  0  0  0  0  0  0  0  0  0  0
   13.6016    8.3243    1.9896 C   0  0  0  0  0  0  0  0  0  0  0  0
   14.7037    8.8917    2.7690 N   0  0  0  0  0  4  0  0  0  0  0  0
   12.2631    8.3265    2.7679 C   0  0  0  0  0  0  0  0  0  0  0  0
   11.1814    7.4387    2.1356 C   0  0  0  0  0  0  0  0  0  0  0  0
    9.7474    7.7242    2.5476 C   0  0  0  0  0  0  0  0  0  0  0  0
    9.4540    9.1994    2.6430 C   0  0  0  0  0  0  0  0  0  0  0  0
    7.9938    9.5221    2.7258 C   0  0  0  0  0  0  0  0  0  0  0  0
    7.4350    9.6816    1.6176 O   0  0  0  0  0  0  0  0  0  0  0  0
    7.2188    9.6578    3.9295 N   0  0  0  0  0  0  0  0  0  0  0  0
    5.8102   10.0779    3.8664 C   0  0  0  0  0  0  0  0  0  0  0  0
    4.9393    8.9582    3.3431 C   0  0  0  0  0  0  0  0  0  0  0  0
    4.7851    7.9458    4.0801 O   0  0  0  0  0  0  0  0  0  0  0  0
    4.2938    8.9996    2.0460 N   0  0  0  0  0  0  0  0  0  0  0  0
    3.5293    7.8309    1.5965 C   0  0  0  0  0  0  0  0  0  0  0  0
    4.3152   10.2043    1.2080 C   0  0  0  0  0  0  0  0  0  0  0  0
   10.3882   10.0185    3.4877 C   0  0  0  0  0  0  0  0  0  0  0  0
   11.8515    9.7801    3.1235 C   0  0  0  0  0  0  0  0  0  0  0  0
   13.2678    6.7644    0.4814 H   0  0  0  0  0  0  0  0  0  0  0  0
   14.1184    6.2177    1.9790 H   0  0  0  0  0  0  0  0  0  0  0  0
   14.9834    7.1931    0.7324 H   0  0  0  0  0  0  0  0  0  0  0  0
   13.4368    9.0285    1.1410 H   0  0  0  0  0  0  0  0  0  0  0  0
   14.5220    9.8926    3.0062 H   0  0  0  0  0  0  0  0  0  0  0  0
   15.5932    8.8664    2.2191 H   0  0  0  0  0  0  0  0  0  0  0  0
   14.8392    8.3422    3.6484 H   0  0  0  0  0  0  0  0  0  0  0  0
   12.4712    7.8394    3.7472 H   0  0  0  0  0  0  0  0  0  0  0  0
   11.4088    6.3660    2.3234 H   0  0  0  0  0  0  0  0  0  0  0  0
   11.2137    7.5918    1.0347 H   0  0  0  0  0  0  0  0  0  0  0  0
    9.0561    7.2353    1.8247 H   0  0  0  0  0  0  0  0  0  0  0  0
    9.5656    7.2672    3.5449 H   0  0  0  0  0  0  0  0  0  0  0  0
    9.7292    9.5585    1.6197 H   0  0  0  0  0  0  0  0  0  0  0  0
    7.6736    9.5047    4.8572 H   0  0  0  0  0  0  0  0  0  0  0  0
    5.7252   11.0043    3.2641 H   0  0  0  0  0  0  0  0  0  0  0  0
    5.4653   10.3346    4.8910 H   0  0  0  0  0  0  0  0  0  0  0  0
    2.7010    7.6288    2.3080 H   0  0  0  0  0  0  0  0  0  0  0  0
    3.0918    7.9792    0.5870 H   0  0  0  0  0  0  0  0  0  0  0  0
    4.1965    6.9442    1.5522 H   0  0  0  0  0  0  0  0  0  0  0  0
    5.3364   10.4398    0.8665 H   0  0  0  0  0  0  0  0  0  0  0  0
    3.6863   10.0864    0.3010 H   0  0  0  0  0  0  0  0  0  0  0  0
    3.9060   11.0645    1.7784 H   0  0  0  0  0  0  0  0  0  0  0  0
   10.1496   11.1014    3.3914 H   0  0  0  0  0  0  0  0  0  0  0  0
   10.2360    9.7336    4.5515 H   0  0  0  0  0  0  0  0  0  0  0  0
   12.0658   10.4404    2.2542 H   0  0  0  0  0  0  0  0  0  0  0  0
   12.4738   10.1512    3.9668 H   0  0  0  0  0  0  0  0  0  0  0  0
  1  2  1  0
  2  3  1  0
  2  4  1  0
  4  5  1  0
  5  6  1  0
  6  7  1  0
  7  8  1  0
  8  9  2  0
  8 10  1  0
 10 11  1  0
 11 12  1  0
 12 13  2  0
 12 14  1  0
 14 15  1  0
 14 16  1  0
  7 17  1  0
 17 18  1  0
 18  4  1  0
  1 19  1  0
  1 20  1  0
  1 21  1  0
  2 22  1  0
  3 23  1  0
  3 24  1  0
  3 25  1  0
  4 26  1  0
  5 27  1  0
  5 28  1  0
  6 29  1  0
  6 30  1  0
  7 31  1  0
 10 32  1  0
 11 33  1  0
 11 34  1  0
 15 35  1  0
 15 36  1  0
 15 37  1  0
 16 38  1  0
 16 39  1  0
 16 40  1  0
 17 41  1  0
 17 42  1  0
 18 43  1  0
 18 44  1  0
M  CHG  1   3   1
M  END
>  <EmbedRMS>  (170) 
0.2932026556361357

$$$$

     RDKit          3D

 44 44  0  0  0  0  0  0  0  0999 V2000
   14.0121    7.0506    1.2525 C   0  0  0  0  0  0  0  0  0  0  0  0
   13.6016    8.3243    1.9896 C   0  0  0  0  0  0  0  0  0  0  0  0
   14.7037    8.8917    2.7690 N   0  0  0  0  0  4  0  0  0  0  0  0
   12.2631    8.3265    2.7679 C   0  0  0  0  0  0  0  0  0  0  0  0
   11.1814    7.4387    2.1356 C   0  0  0  0  0  0  0  0  0  0  0  0
    9.7474    7.7242    2.5476 C   0  0  0  0  0  0  0  0  0  0  0  0
    9.4540    9.1994    2.6430 C   0  0  0  0  0  0  0  0  0  0  0  0
    7.9938    9.5221    2.7258 C   0  0  0  0  0  0  0  0  0  0  0  0
    7.4350    9.6816    1.6176 O   0  0  0  0  0  0  0  0  0  0  0  0
    7.2188    9.6578    3.9295 N   0  0  0  0  0  0  0  0  0  0  0  0
    5.8102   10.0779    3.8664 C   0  0  0  0  0  0  0  0  0  0  0  0
    4.9393    8.9582    3.3431 C   0  0  0  0  0  0  0  0  0  0  0  0
    4.7851    7.9458    4.0801 O   0  0  0  0  0  0  0  0  0  0  0  0
    4.2938    8.9996    2.0460 N   0  0  0  0  0  0  0  0  0  0  0  0
    3.5293    7.8309    1.5965 C   0  0  0  0  0  0  0  0  0  0  0  0
    4.3152   10.2043    1.2080 C   0  0  0  0  0  0  0  0  0  0  0  0
   10.3882   10.0185    3.4877 C   0  0  0  0  0  0  0  0  0  0  0  0
   11.8515    9.7801    3.1235 C   0  0  0  0  0  0  0  0  0  0  0  0
   13.2678    6.7644    0.4814 H   0  0  0  0  0  0  0  0  0  0  0  0
   14.1184    6.2177    1.9790 H   0  0  0  0  0  0  0  0  0  0  0  0
   14.9834    7.1931    0.7324 H   0  0  0  0  0  0  0  0  0  0  0  0
   13.4368    9.0285    1.1410 H   0  0  0  0  0  0  0  0  0  0  0  0
   14.5220    9.8926    3.0062 H   0  0  0  0  0  0  0  0  0  0  0  0
   15.5932    8.8664    2.2191 H   0  0  0  0  0  0  0  0  0  0  0  0
   14.8392    8.3422    3.6484 H   0  0  0  0  0  0  0  0  0  0  0  0
   12.4712    7.8394    3.7472 H   0  0  0  0  0  0  0  0  0  0  0  0
   11.4088    6.3660    2.3234 H   0  0  0  0  0  0  0  0  0  0  0  0
   11.2137    7.5918    1.0347 H   0  0  0  0  0  0  0  0  0  0  0  0
    9.0561    7.2353    1.8247 H   0  0  0  0  0  0  0  0  0  0  0  0
    9.5656    7.2672    3.5449 H   0  0  0  0  0  0  0  0  0  0  0  0
    9.7292    9.5585    1.6197 H   0  0  0  0  0  0  0  0  0  0  0  0
    7.6736    9.5047    4.8572 H   0  0  0  0  0  0  0  0  0  0  0  0
    5.7252   11.0043    3.2641 H   0  0  0  0  0  0  0  0  0  0  0  0
    5.4653   10.3346    4.8910 H   0  0  0  0  0  0  0  0  0  0  0  0
    2.7010    7.6288    2.3080 H   0  0  0  0  0  0  0  0  0  0  0  0
    3.0918    7.9792    0.5870 H   0  0  0  0  0  0  0  0  0  0  0  0
    4.1965    6.9442    1.5522 H   0  0  0  0  0  0  0  0  0  0  0  0
    5.3364   10.4398    0.8665 H   0  0  0  0  0  0  0  0  0  0  0  0
    3.6863   10.0864    0.3010 H   0  0  0  0  0  0  0  0  0  0  0  0
    3.9060   11.0645    1.7784 H   0  0  0  0  0  0  0  0  0  0  0  0
   10.1496   11.1014    3.3914 H   0  0  0  0  0  0  0  0  0  0  0  0
   10.2360    9.7336    4.5515 H   0  0  0  0  0  0  0  0  0  0  0  0
   12.0658   10.4404    2.2542 H   0  0  0  0  0  0  0  0  0  0  0  0
   12.4738   10.1512    3.9668 H   0  0  0  0  0  0  0  0  0  0  0  0
  1  2  1  0
  2  3  1  0
  2  4  1  0
  4  5  1  0
  5  6  1  0
  6  7  1  0
  7  8  1  0
  8  9  2  0
  8 10  1  0
 10 11  1  0
 11 12  1  0
 12 13  2  0
 12 14  1  0
 14 15  1  0
 14 16  1  0
  7 17  1  0
 17 18  1  0
 18  4  1  0
  1 19  1  0
  1 20  1  0
  1 21  1  0
  2 22  1  0
  3 23  1  0
  3 24  1  0
  3 25  1  0
  4 26  1  0
  5 27  1  0
  5 28  1  0
  6 29  1  0
  6 30  1  0
  7 31  1  0
 10 32  1  0
 11 33  1  0
 11 34  1  0
 15 35  1  0
 15 36  1  0
 15 37  1  0
 16 38  1  0
 16 39  1  0
 16 40  1  0
 17 41  1  0
 17 42  1  0
 18 43  1  0
 18 44  1  0
M  CHG  1   3   1
M  END
>  <EmbedRMS>  (171) 
0.2932026556361357

$$$$

     RDKit          3D

 44 44  0  0  0  0  0  0  0  0999 V2000
   14.0121    7.0506    1.2525 C   0  0  0  0  0  0  0  0  0  0  0  0
   13.6016    8.3243    1.9896 C   0  0  0  0  0  0  0  0  0  0  0  0
   14.7037    8.8917    2.7690 N   0  0  0  0  0  4  0  0  0  0  0  0
   12.2631    8.3265    2.7679 C   0  0  0  0  0  0  0  0  0  0  0  0
   11.1814    7.4387    2.1356 C   0  0  0  0  0  0  0  0  0  0  0  0
    9.7474    7.7242    2.5476 C   0  0  0  0  0  0  0  0  0  0  0  0
    9.4540    9.1994    2.6430 C   0  0  0  0  0  0  0  0  0  0  0  0
    7.9938    9.5221    2.7258 C   0  0  0  0  0  0  0  0  0  0  0  0
    7.4350    9.6816    1.6176 O   0  0  0  0  0  0  0  0  0  0  0  0
    7.2188    9.6578    3.9295 N   0  0  0  0  0  0  0  0  0  0  0  0
    5.8102   10.0779    3.8664 C   0  0  0  0  0  0  0  0  0  0  0  0
    4.9393    8.9582    3.3431 C   0  0  0  0  0  0  0  0  0  0  0  0
    4.7851    7.9458    4.0801 O   0  0  0  0  0  0  0  0  0  0  0  0
    4.2938    8.9996    2.0460 N   0  0  0  0  0  0  0  0  0  0  0  0
    3.5293    7.8309    1.5965 C   0  0  0  0  0  0  0  0  0  0  0  0
    4.3152   10.2043    1.2080 C   0  0  0  0  0  0  0  0  0  0  0  0
   10.3882   10.0185    3.4877 C   0  0  0  0  0  0  0  0  0  0  0  0
   11.8515    9.7801    3.1235 C   0  0  0  0  0  0  0  0  0  0  0  0
   13.2678    6.7644    0.4814 H   0  0  0  0  0  0  0  0  0  0  0  0
   14.1184    6.2177    1.9790 H   0  0  0  0  0  0  0  0  0  0  0  0
   14.9834    7.1931    0.7324 H   0  0  0  0  0  0  0  0  0  0  0  0
   13.4368    9.0285    1.1410 H   0  0  0  0  0  0  0  0  0  0  0  0
   14.5220    9.8926    3.0062 H   0  0  0  0  0  0  0  0  0  0  0  0
   15.5932    8.8664    2.2191 H   0  0  0  0  0  0  0  0  0  0  0  0
   14.8392    8.3422    3.6484 H   0  0  0  0  0  0  0  0  0  0  0  0
   12.4712    7.8394    3.7472 H   0  0  0  0  0  0  0  0  0  0  0  0
   11.4088    6.3660    2.3234 H   0  0  0  0  0  0  0  0  0  0  0  0
   11.2137    7.5918    1.0347 H   0  0  0  0  0  0  0  0  0  0  0  0
    9.0561    7.2353    1.8247 H   0  0  0  0  0  0  0  0  0  0  0  0
    9.5656    7.2672    3.5449 H   0  0  0  0  0  0  0  0  0  0  0  0
    9.7292    9.5585    1.6197 H   0  0  0  0  0  0  0  0  0  0  0  0
    7.6736    9.5047    4.8572 H   0  0  0  0  0  0  0  0  0  0  0  0
    5.7252   11.0043    3.2641 H   0  0  0  0  0  0  0  0  0  0  0  0
    5.4653   10.3346    4.8910 H   0  0  0  0  0  0  0  0  0  0  0  0
    2.7010    7.6288    2.3080 H   0  0  0  0  0  0  0  0  0  0  0  0
    3.0918    7.9792    0.5870 H   0  0  0  0  0  0  0  0  0  0  0  0
    4.1965    6.9442    1.5522 H   0  0  0  0  0  0  0  0  0  0  0  0
    5.3364   10.4398    0.8665 H   0  0  0  0  0  0  0  0  0  0  0  0
    3.6863   10.0864    0.3010 H   0  0  0  0  0  0  0  0  0  0  0  0
    3.9060   11.0645    1.7784 H   0  0  0  0  0  0  0  0  0  0  0  0
   10.1496   11.1014    3.3914 H   0  0  0  0  0  0  0  0  0  0  0  0
   10.2360    9.7336    4.5515 H   0  0  0  0  0  0  0  0  0  0  0  0
   12.0658   10.4404    2.2542 H   0  0  0  0  0  0  0  0  0  0  0  0
   12.4738   10.1512    3.9668 H   0  0  0  0  0  0  0  0  0  0  0  0
  1  2  1  0
  2  3  1  0
  2  4  1  0
  4  5  1  0
  5  6  1  0
  6  7  1  0
  7  8  1  0
  8  9  2  0
  8 10  1  0
 10 11  1  0
 11 12  1  0
 12 13  2  0
 12 14  1  0
 14 15  1  0
 14 16  1  0
  7 17  1  0
 17 18  1  0
 18  4  1  0
  1 19  1  0
  1 20  1  0
  1 21  1  0
  2 22  1  0
  3 23  1  0
  3 24  1  0
  3 25  1  0
  4 26  1  0
  5 27  1  0
  5 28  1  0
  6 29  1  0
  6 30  1  0
  7 31  1  0
 10 32  1  0
 11 33  1  0
 11 34  1  0
 15 35  1  0
 15 36  1  0
 15 37  1  0
 16 38  1  0
 16 39  1  0
 16 40  1  0
 17 41  1  0
 17 42  1  0
 18 43  1  0
 18 44  1  0
M  CHG  1   3   1
M  END
>  <EmbedRMS>  (172) 
0.2932026556361357

$$$$

     RDKit          3D

 47 47  0  0  0  0  0  0  0  0999 V2000
    3.9151   11.5190    1.6949 C   0  0  0  0  0  0  0  0  0  0  0  0
    4.3752   12.1526    3.0156 C   0  0  0  0  0  0  0  0  0  0  0  0
    3.3162   11.9470    4.1076 C   0  0  0  0  0  0  0  0  0  0  0  0
    5.7752   11.6515    3.4366 C   0  0  0  0  0  0  0  0  0  0  0  0
    6.2424   12.4255    4.5123 O   0  0  0  0  0  0  0  0  0  0  0  0
    5.7829   10.1613    3.8285 C   0  0  0  0  0  0  0  0  0  0  0  0
    7.1504    9.6895    3.9943 N   0  0  0  0  0  0  0  0  0  0  0  0
    8.0172    9.4612    2.8796 C   0  0  0  0  0  0  0  0  0  0  0  0
    7.6105    9.6774    1.7016 O   0  0  0  0  0  0  0  0  0  0  0  0
    9.4248    8.9820    3.1197 C   0  0  0  0  0  0  0  0  0  0  0  0
    9.7863    7.9347    2.0736 C   0  0  0  0  0  0  0  0  0  0  0  0
   11.1489    7.3149    2.3192 C   0  0  0  0  0  0  0  0  0  0  0  0
   12.2341    8.2988    2.7954 C   0  0  0  0  0  0  0  0  0  0  0  0
   13.7111    7.9151    2.4296 C   0  0  0  0  0  0  0  0  0  0  0  0
   13.9336    7.3326    1.0256 C   0  0  0  0  0  0  0  0  0  0  0  0
   14.6490    9.0170    2.6727 N   0  0  0  0  0  4  0  0  0  0  0  0
   11.8864    9.7891    2.9950 C   0  0  0  0  0  0  0  0  0  0  0  0
   10.3942   10.1674    3.0618 C   0  0  0  0  0  0  0  0  0  0  0  0
    3.6462   10.4501    1.8224 H   0  0  0  0  0  0  0  0  0  0  0  0
    3.0153   12.0519    1.3199 H   0  0  0  0  0  0  0  0  0  0  0  0
    4.7079   11.6057    0.9217 H   0  0  0  0  0  0  0  0  0  0  0  0
    4.4602   13.2482    2.8374 H   0  0  0  0  0  0  0  0  0  0  0  0
    2.3751   12.4624    3.8196 H   0  0  0  0  0  0  0  0  0  0  0  0
    3.0889   10.8696    4.2517 H   0  0  0  0  0  0  0  0  0  0  0  0
    3.6606   12.3779    5.0714 H   0  0  0  0  0  0  0  0  0  0  0  0
    6.4511   11.8066    2.5636 H   0  0  0  0  0  0  0  0  0  0  0  0
    7.2327   12.3509    4.5179 H   0  0  0  0  0  0  0  0  0  0  0  0
    5.2407   10.0259    4.7891 H   0  0  0  0  0  0  0  0  0  0  0  0
    5.2804    9.5321    3.0661 H   0  0  0  0  0  0  0  0  0  0  0  0
    7.4874    9.4704    4.9589 H   0  0  0  0  0  0  0  0  0  0  0  0
    9.4889    8.5110    4.1262 H   0  0  0  0  0  0  0  0  0  0  0  0
    9.7894    8.4041    1.0633 H   0  0  0  0  0  0  0  0  0  0  0  0
    9.0218    7.1255    2.0653 H   0  0  0  0  0  0  0  0  0  0  0  0
   11.4325    6.8339    1.3647 H   0  0  0  0  0  0  0  0  0  0  0  0
   11.0347    6.4799    3.0494 H   0  0  0  0  0  0  0  0  0  0  0  0
   12.2374    8.0289    3.8800 H   0  0  0  0  0  0  0  0  0  0  0  0
   14.0085    7.0854    3.1155 H   0  0  0  0  0  0  0  0  0  0  0  0
   13.5383    6.2976    0.9562 H   0  0  0  0  0  0  0  0  0  0  0  0
   13.4425    7.9749    0.2641 H   0  0  0  0  0  0  0  0  0  0  0  0
   15.0179    7.2754    0.7915 H   0  0  0  0  0  0  0  0  0  0  0  0
   14.5096    9.7867    1.9793 H   0  0  0  0  0  0  0  0  0  0  0  0
   14.5410    9.3815    3.6464 H   0  0  0  0  0  0  0  0  0  0  0  0
   15.6324    8.6707    2.5838 H   0  0  0  0  0  0  0  0  0  0  0  0
   12.3154   10.3475    2.1360 H   0  0  0  0  0  0  0  0  0  0  0  0
   12.3919   10.1921    3.9024 H   0  0  0  0  0  0  0  0  0  0  0  0
   10.1524   10.7877    2.1682 H   0  0  0  0  0  0  0  0  0  0  0  0
   10.2190   10.8152    3.9494 H   0  0  0  0  0  0  0  0  0  0  0  0
  1  2  1  0
  2  3  1  0
  2  4  1  0
  4  5  1  0
  4  6  1  0
  6  7  1  0
  7  8  1  0
  8  9  2  0
  8 10  1  0
 10 11  1  0
 11 12  1  0
 12 13  1  0
 13 14  1  0
 14 15  1  0
 14 16  1  0
 13 17  1  0
 17 18  1  0
 18 10  1  0
  1 19  1  0
  1 20  1  0
  1 21  1  0
  2 22  1  0
  3 23  1  0
  3 24  1  0
  3 25  1  0
  4 26  1  0
  5 27  1  0
  6 28  1  0
  6 29  1  0
  7 30  1  0
 10 31  1  0
 11 32  1  0
 11 33  1  0
 12 34  1  0
 12 35  1  0
 13 36  1  0
 14 37  1  0
 15 38  1  0
 15 39  1  0
 15 40  1  0
 16 41  1  0
 16 42  1  0
 16 43  1  0
 17 44  1  0
 17 45  1  0
 18 46  1  0
 18 47  1  0
M  CHG  1  16   1
M  END
>  <EmbedRMS>  (173) 
0.16452040208371516

$$$$

     RDKit          3D

 47 47  0  0  0  0  0  0  0  0999 V2000
    1.9171   12.5917    3.6546 C   0  0  0  0  0  0  0  0  0  0  0  0
    3.2040   12.0812    4.2310 C   0  0  0  0  0  0  0  0  0  0  0  0
    4.3704   12.1340    3.2403 C   0  0  0  0  0  0  0  0  0  0  0  0
    5.5701   11.5575    4.0060 C   0  0  0  0  0  0  0  0  0  0  0  0
    6.6276   12.4313    4.1437 O   0  0  0  0  0  0  0  0  0  0  0  0
    5.8355   10.0651    3.7786 C   0  0  0  0  0  0  0  0  0  0  0  0
    7.2476    9.7138    3.9028 N   0  0  0  0  0  0  0  0  0  0  0  0
    8.0123    9.5271    2.7073 C   0  0  0  0  0  0  0  0  0  0  0  0
    7.4511    9.6723    1.5927 O   0  0  0  0  0  0  0  0  0  0  0  0
    9.4648    9.1978    2.6489 C   0  0  0  0  0  0  0  0  0  0  0  0
    9.7746    7.7157    2.4327 C   0  0  0  0  0  0  0  0  0  0  0  0
   11.2714    7.3628    2.5404 C   0  0  0  0  0  0  0  0  0  0  0  0
   12.1520    8.5850    2.2326 C   0  0  0  0  0  0  0  0  0  0  0  0
   13.6613    8.3382    1.9332 C   0  0  0  0  0  0  0  0  0  0  0  0
   14.0183    7.0430    1.2244 C   0  0  0  0  0  0  0  0  0  0  0  0
   14.6233    8.7712    2.9407 N   0  0  0  0  0  4  0  0  0  0  0  0
   11.8999    9.6855    3.2847 C   0  0  0  0  0  0  0  0  0  0  0  0
   10.4166   10.0801    3.4353 C   0  0  0  0  0  0  0  0  0  0  0  0
    1.6206   11.9803    2.7757 H   0  0  0  0  0  0  0  0  0  0  0  0
    2.0298   13.6512    3.3396 H   0  0  0  0  0  0  0  0  0  0  0  0
    1.1122   12.5308    4.4177 H   0  0  0  0  0  0  0  0  0  0  0  0
    3.4292   12.7064    5.1253 H   0  0  0  0  0  0  0  0  0  0  0  0
    3.0332   11.0320    4.5634 H   0  0  0  0  0  0  0  0  0  0  0  0
    4.1397   11.5518    2.3223 H   0  0  0  0  0  0  0  0  0  0  0  0
    4.5651   13.1903    2.9519 H   0  0  0  0  0  0  0  0  0  0  0  0
    5.2977   11.5062    5.0869 H   0  0  0  0  0  0  0  0  0  0  0  0
    7.0618   12.4727    3.2525 H   0  0  0  0  0  0  0  0  0  0  0  0
    5.4291    9.7449    2.7961 H   0  0  0  0  0  0  0  0  0  0  0  0
    5.2618    9.4534    4.5122 H   0  0  0  0  0  0  0  0  0  0  0  0
    7.7041    9.6772    4.8414 H   0  0  0  0  0  0  0  0  0  0  0  0
    9.7156    9.5879    1.6330 H   0  0  0  0  0  0  0  0  0  0  0  0
    9.2225    7.1211    3.1929 H   0  0  0  0  0  0  0  0  0  0  0  0
    9.3917    7.3951    1.4367 H   0  0  0  0  0  0  0  0  0  0  0  0
   11.5014    6.9996    3.5662 H   0  0  0  0  0  0  0  0  0  0  0  0
   11.4799    6.5298    1.8376 H   0  0  0  0  0  0  0  0  0  0  0  0
   11.7621    8.9763    1.2640 H   0  0  0  0  0  0  0  0  0  0  0  0
   13.8529    9.0637    1.1035 H   0  0  0  0  0  0  0  0  0  0  0  0
   13.3451    6.8734    0.3565 H   0  0  0  0  0  0  0  0  0  0  0  0
   13.9277    6.1915    1.9310 H   0  0  0  0  0  0  0  0  0  0  0  0
   15.0634    7.0757    0.8478 H   0  0  0  0  0  0  0  0  0  0  0  0
   14.4380    8.2636    3.8356 H   0  0  0  0  0  0  0  0  0  0  0  0
   14.5733    9.8023    3.1029 H   0  0  0  0  0  0  0  0  0  0  0  0
   15.5986    8.5511    2.6330 H   0  0  0  0  0  0  0  0  0  0  0  0
   12.2854    9.3458    4.2711 H   0  0  0  0  0  0  0  0  0  0  0  0
   12.4629   10.6004    2.9992 H   0  0  0  0  0  0  0  0  0  0  0  0
   10.1437   10.0118    4.5105 H   0  0  0  0  0  0  0  0  0  0  0  0
   10.2764   11.1456    3.1406 H   0  0  0  0  0  0  0  0  0  0  0  0
  1  2  1  0
  2  3  1  0
  3  4  1  0
  4  5  1  0
  4  6  1  0
  6  7  1  0
  7  8  1  0
  8  9  2  0
  8 10  1  0
 10 11  1  0
 11 12  1  0
 12 13  1  0
 13 14  1  0
 14 15  1  0
 14 16  1  0
 13 17  1  0
 17 18  1  0
 18 10  1  0
  1 19  1  0
  1 20  1  0
  1 21  1  0
  2 22  1  0
  2 23  1  0
  3 24  1  0
  3 25  1  0
  4 26  1  0
  5 27  1  0
  6 28  1  0
  6 29  1  0
  7 30  1  0
 10 31  1  0
 11 32  1  0
 11 33  1  0
 12 34  1  0
 12 35  1  0
 13 36  1  0
 14 37  1  0
 15 38  1  0
 15 39  1  0
 15 40  1  0
 16 41  1  0
 16 42  1  0
 16 43  1  0
 17 44  1  0
 17 45  1  0
 18 46  1  0
 18 47  1  0
M  CHG  1  16   1
M  END
>  <EmbedRMS>  (174) 
0.32366970082969293

$$$$

     RDKit          3D

 38 38  0  0  0  0  0  0  0  0999 V2000
   14.0485    7.2193    1.1052 C   0  0  0  0  0  0  0  0  0  0  0  0
   13.6494    7.9557    2.3993 C   0  0  0  0  0  0  0  0  0  0  0  0
   14.6287    9.0157    2.6714 N   0  0  0  0  0  4  0  0  0  0  0  0
   12.1999    8.5121    2.2739 C   0  0  0  0  0  0  0  0  0  0  0  0
   11.1802    7.3659    2.4359 C   0  0  0  0  0  0  0  0  0  0  0  0
    9.7714    7.8716    2.1578 C   0  0  0  0  0  0  0  0  0  0  0  0
    9.4086    8.9939    3.1360 C   0  0  0  0  0  0  0  0  0  0  0  0
    8.0119    9.4795    2.8745 C   0  0  0  0  0  0  0  0  0  0  0  0
    7.6187    9.6893    1.6921 O   0  0  0  0  0  0  0  0  0  0  0  0
    7.1292    9.6965    3.9807 N   0  0  0  0  0  0  0  0  0  0  0  0
    5.7624   10.1694    3.8094 C   0  0  0  0  0  0  0  0  0  0  0  0
    5.7587   11.6573    3.4724 C   0  0  0  0  0  0  0  0  0  0  0  0
    4.4421   12.1064    3.3200 O   0  0  0  0  0  0  0  0  0  0  0  0
   10.4229   10.1485    3.0671 C   0  0  0  0  0  0  0  0  0  0  0  0
   11.8582    9.6379    3.2816 C   0  0  0  0  0  0  0  0  0  0  0  0
   15.0958    6.8574    1.1814 H   0  0  0  0  0  0  0  0  0  0  0  0
   13.9784    7.8974    0.2278 H   0  0  0  0  0  0  0  0  0  0  0  0
   13.4173    6.3269    0.9275 H   0  0  0  0  0  0  0  0  0  0  0  0
   13.6910    7.2251    3.2394 H   0  0  0  0  0  0  0  0  0  0  0  0
   14.4960    9.3935    3.6370 H   0  0  0  0  0  0  0  0  0  0  0  0
   15.6002    8.6298    2.6308 H   0  0  0  0  0  0  0  0  0  0  0  0
   14.5433    9.7863    1.9687 H   0  0  0  0  0  0  0  0  0  0  0  0
   12.0876    8.9473    1.2540 H   0  0  0  0  0  0  0  0  0  0  0  0
   11.2347    6.9393    3.4625 H   0  0  0  0  0  0  0  0  0  0  0  0
   11.3816    6.5452    1.7192 H   0  0  0  0  0  0  0  0  0  0  0  0
    9.0563    7.0278    2.2771 H   0  0  0  0  0  0  0  0  0  0  0  0
    9.7089    8.2307    1.1059 H   0  0  0  0  0  0  0  0  0  0  0  0
    9.4455    8.5679    4.1642 H   0  0  0  0  0  0  0  0  0  0  0  0
    7.4525    9.4673    4.9477 H   0  0  0  0  0  0  0  0  0  0  0  0
    5.2572    9.5890    3.0069 H   0  0  0  0  0  0  0  0  0  0  0  0
    5.2000   10.0100    4.7552 H   0  0  0  0  0  0  0  0  0  0  0  0
    6.2767   12.2336    4.2730 H   0  0  0  0  0  0  0  0  0  0  0  0
    6.3008   11.8316    2.5198 H   0  0  0  0  0  0  0  0  0  0  0  0
    4.0707   12.2170    4.2342 H   0  0  0  0  0  0  0  0  0  0  0  0
   10.3565   10.6518    2.0766 H   0  0  0  0  0  0  0  0  0  0  0  0
   10.1846   10.9008    3.8506 H   0  0  0  0  0  0  0  0  0  0  0  0
   12.5372   10.5052    3.1416 H   0  0  0  0  0  0  0  0  0  0  0  0
   11.9739    9.2660    4.3236 H   0  0  0  0  0  0  0  0  0  0  0  0
  1  2  1  0
  2  3  1  0
  2  4  1  0
  4  5  1  0
  5  6  1  0
  6  7  1  0
  7  8  1  0
  8  9  2  0
  8 10  1  0
 10 11  1  0
 11 12  1  0
 12 13  1  0
  7 14  1  0
 14 15  1  0
 15  4  1  0
  1 16  1  0
  1 17  1  0
  1 18  1  0
  2 19  1  0
  3 20  1  0
  3 21  1  0
  3 22  1  0
  4 23  1  0
  5 24  1  0
  5 25  1  0
  6 26  1  0
  6 27  1  0
  7 28  1  0
 10 29  1  0
 11 30  1  0
 11 31  1  0
 12 32  1  0
 12 33  1  0
 13 34  1  0
 14 35  1  0
 14 36  1  0
 15 37  1  0
 15 38  1  0
M  CHG  1   3   1
M  END
>  <EmbedRMS>  (175) 
0.031392693704421666

$$$$

     RDKit          3D

 44 44  0  0  0  0  0  0  0  0999 V2000
   14.0121    7.0506    1.2525 C   0  0  0  0  0  0  0  0  0  0  0  0
   13.6016    8.3243    1.9896 C   0  0  0  0  0  0  0  0  0  0  0  0
   14.7037    8.8917    2.7690 N   0  0  0  0  0  4  0  0  0  0  0  0
   12.2631    8.3265    2.7679 C   0  0  0  0  0  0  0  0  0  0  0  0
   11.1814    7.4387    2.1356 C   0  0  0  0  0  0  0  0  0  0  0  0
    9.7474    7.7242    2.5476 C   0  0  0  0  0  0  0  0  0  0  0  0
    9.4540    9.1994    2.6430 C   0  0  0  0  0  0  0  0  0  0  0  0
    7.9938    9.5221    2.7258 C   0  0  0  0  0  0  0  0  0  0  0  0
    7.4350    9.6816    1.6176 O   0  0  0  0  0  0  0  0  0  0  0  0
    7.2188    9.6578    3.9295 N   0  0  0  0  0  0  0  0  0  0  0  0
    5.8102   10.0779    3.8664 C   0  0  0  0  0  0  0  0  0  0  0  0
    4.9393    8.9582    3.3431 C   0  0  0  0  0  0  0  0  0  0  0  0
    4.7851    7.9458    4.0801 O   0  0  0  0  0  0  0  0  0  0  0  0
    4.2938    8.9996    2.0460 N   0  0  0  0  0  0  0  0  0  0  0  0
    3.5293    7.8309    1.5965 C   0  0  0  0  0  0  0  0  0  0  0  0
    4.3152   10.2043    1.2080 C   0  0  0  0  0  0  0  0  0  0  0  0
   10.3882   10.0185    3.4877 C   0  0  0  0  0  0  0  0  0  0  0  0
   11.8515    9.7801    3.1235 C   0  0  0  0  0  0  0  0  0  0  0  0
   13.2678    6.7644    0.4814 H   0  0  0  0  0  0  0  0  0  0  0  0
   14.1184    6.2177    1.9790 H   0  0  0  0  0  0  0  0  0  0  0  0
   14.9834    7.1931    0.7324 H   0  0  0  0  0  0  0  0  0  0  0  0
   13.4368    9.0285    1.1410 H   0  0  0  0  0  0  0  0  0  0  0  0
   14.5220    9.8926    3.0062 H   0  0  0  0  0  0  0  0  0  0  0  0
   15.5932    8.8664    2.2191 H   0  0  0  0  0  0  0  0  0  0  0  0
   14.8392    8.3422    3.6484 H   0  0  0  0  0  0  0  0  0  0  0  0
   12.4712    7.8394    3.7472 H   0  0  0  0  0  0  0  0  0  0  0  0
   11.4088    6.3660    2.3234 H   0  0  0  0  0  0  0  0  0  0  0  0
   11.2137    7.5918    1.0347 H   0  0  0  0  0  0  0  0  0  0  0  0
    9.0561    7.2353    1.8247 H   0  0  0  0  0  0  0  0  0  0  0  0
    9.5656    7.2672    3.5449 H   0  0  0  0  0  0  0  0  0  0  0  0
    9.7292    9.5585    1.6197 H   0  0  0  0  0  0  0  0  0  0  0  0
    7.6736    9.5047    4.8572 H   0  0  0  0  0  0  0  0  0  0  0  0
    5.7252   11.0043    3.2641 H   0  0  0  0  0  0  0  0  0  0  0  0
    5.4653   10.3346    4.8910 H   0  0  0  0  0  0  0  0  0  0  0  0
    2.7010    7.6288    2.3080 H   0  0  0  0  0  0  0  0  0  0  0  0
    3.0918    7.9792    0.5870 H   0  0  0  0  0  0  0  0  0  0  0  0
    4.1965    6.9442    1.5522 H   0  0  0  0  0  0  0  0  0  0  0  0
    5.3364   10.4398    0.8665 H   0  0  0  0  0  0  0  0  0  0  0  0
    3.6863   10.0864    0.3010 H   0  0  0  0  0  0  0  0  0  0  0  0
    3.9060   11.0645    1.7784 H   0  0  0  0  0  0  0  0  0  0  0  0
   10.1496   11.1014    3.3914 H   0  0  0  0  0  0  0  0  0  0  0  0
   10.2360    9.7336    4.5515 H   0  0  0  0  0  0  0  0  0  0  0  0
   12.0658   10.4404    2.2542 H   0  0  0  0  0  0  0  0  0  0  0  0
   12.4738   10.1512    3.9668 H   0  0  0  0  0  0  0  0  0  0  0  0
  1  2  1  0
  2  3  1  0
  2  4  1  0
  4  5  1  0
  5  6  1  0
  6  7  1  0
  7  8  1  0
  8  9  2  0
  8 10  1  0
 10 11  1  0
 11 12  1  0
 12 13  2  0
 12 14  1  0
 14 15  1  0
 14 16  1  0
  7 17  1  0
 17 18  1  0
 18  4  1  0
  1 19  1  0
  1 20  1  0
  1 21  1  0
  2 22  1  0
  3 23  1  0
  3 24  1  0
  3 25  1  0
  4 26  1  0
  5 27  1  0
  5 28  1  0
  6 29  1  0
  6 30  1  0
  7 31  1  0
 10 32  1  0
 11 33  1  0
 11 34  1  0
 15 35  1  0
 15 36  1  0
 15 37  1  0
 16 38  1  0
 16 39  1  0
 16 40  1  0
 17 41  1  0
 17 42  1  0
 18 43  1  0
 18 44  1  0
M  CHG  1   3   1
M  END
>  <EmbedRMS>  (176) 
0.2932026556361357

$$$$

     RDKit          3D

 38 38  0  0  0  0  0  0  0  0999 V2000
   14.0485    7.2193    1.1052 C   0  0  0  0  0  0  0  0  0  0  0  0
   13.6494    7.9557    2.3993 C   0  0  0  0  0  0  0  0  0  0  0  0
   14.6287    9.0157    2.6714 N   0  0  0  0  0  4  0  0  0  0  0  0
   12.1999    8.5121    2.2739 C   0  0  0  0  0  0  0  0  0  0  0  0
   11.1802    7.3659    2.4359 C   0  0  0  0  0  0  0  0  0  0  0  0
    9.7714    7.8716    2.1578 C   0  0  0  0  0  0  0  0  0  0  0  0
    9.4086    8.9939    3.1360 C   0  0  0  0  0  0  0  0  0  0  0  0
    8.0119    9.4795    2.8745 C   0  0  0  0  0  0  0  0  0  0  0  0
    7.6187    9.6893    1.6921 O   0  0  0  0  0  0  0  0  0  0  0  0
    7.1292    9.6965    3.9807 N   0  0  0  0  0  0  0  0  0  0  0  0
    5.7624   10.1694    3.8094 C   0  0  0  0  0  0  0  0  0  0  0  0
    5.7587   11.6573    3.4724 C   0  0  0  0  0  0  0  0  0  0  0  0
    4.4421   12.1064    3.3200 O   0  0  0  0  0  0  0  0  0  0  0  0
   10.4229   10.1485    3.0671 C   0  0  0  0  0  0  0  0  0  0  0  0
   11.8582    9.6379    3.2816 C   0  0  0  0  0  0  0  0  0  0  0  0
   15.0958    6.8574    1.1814 H   0  0  0  0  0  0  0  0  0  0  0  0
   13.9784    7.8974    0.2278 H   0  0  0  0  0  0  0  0  0  0  0  0
   13.4173    6.3269    0.9275 H   0  0  0  0  0  0  0  0  0  0  0  0
   13.6910    7.2251    3.2394 H   0  0  0  0  0  0  0  0  0  0  0  0
   14.4960    9.3935    3.6370 H   0  0  0  0  0  0  0  0  0  0  0  0
   15.6002    8.6298    2.6308 H   0  0  0  0  0  0  0  0  0  0  0  0
   14.5433    9.7863    1.9687 H   0  0  0  0  0  0  0  0  0  0  0  0
   12.0876    8.9473    1.2540 H   0  0  0  0  0  0  0  0  0  0  0  0
   11.2347    6.9393    3.4625 H   0  0  0  0  0  0  0  0  0  0  0  0
   11.3816    6.5452    1.7192 H   0  0  0  0  0  0  0  0  0  0  0  0
    9.0563    7.0278    2.2771 H   0  0  0  0  0  0  0  0  0  0  0  0
    9.7089    8.2307    1.1059 H   0  0  0  0  0  0  0  0  0  0  0  0
    9.4455    8.5679    4.1642 H   0  0  0  0  0  0  0  0  0  0  0  0
    7.4525    9.4673    4.9477 H   0  0  0  0  0  0  0  0  0  0  0  0
    5.2572    9.5890    3.0069 H   0  0  0  0  0  0  0  0  0  0  0  0
    5.2000   10.0100    4.7552 H   0  0  0  0  0  0  0  0  0  0  0  0
    6.2767   12.2336    4.2730 H   0  0  0  0  0  0  0  0  0  0  0  0
    6.3008   11.8316    2.5198 H   0  0  0  0  0  0  0  0  0  0  0  0
    4.0707   12.2170    4.2342 H   0  0  0  0  0  0  0  0  0  0  0  0
   10.3565   10.6518    2.0766 H   0  0  0  0  0  0  0  0  0  0  0  0
   10.1846   10.9008    3.8506 H   0  0  0  0  0  0  0  0  0  0  0  0
   12.5372   10.5052    3.1416 H   0  0  0  0  0  0  0  0  0  0  0  0
   11.9739    9.2660    4.3236 H   0  0  0  0  0  0  0  0  0  0  0  0
  1  2  1  0
  2  3  1  0
  2  4  1  0
  4  5  1  0
  5  6  1  0
  6  7  1  0
  7  8  1  0
  8  9  2  0
  8 10  1  0
 10 11  1  0
 11 12  1  0
 12 13  1  0
  7 14  1  0
 14 15  1  0
 15  4  1  0
  1 16  1  0
  1 17  1  0
  1 18  1  0
  2 19  1  0
  3 20  1  0
  3 21  1  0
  3 22  1  0
  4 23  1  0
  5 24  1  0
  5 25  1  0
  6 26  1  0
  6 27  1  0
  7 28  1  0
 10 29  1  0
 11 30  1  0
 11 31  1  0
 12 32  1  0
 12 33  1  0
 13 34  1  0
 14 35  1  0
 14 36  1  0
 15 37  1  0
 15 38  1  0
M  CHG  1   3   1
M  END
>  <EmbedRMS>  (177) 
0.031392693704421666

$$$$

     RDKit          3D

 44 44  0  0  0  0  0  0  0  0999 V2000
    5.1672    8.5806    6.8686 C   0  0  0  0  0  0  0  0  0  0  0  0
    4.4007    9.1342    5.6720 C   0  0  0  0  0  0  0  0  0  0  0  0
    5.1036   10.2795    5.0854 N   0  0  0  0  0  0  0  0  0  0  0  0
    5.1717   11.5161    5.8148 C   0  0  0  0  0  0  0  0  0  0  0  0
    5.7911   12.5095    5.3496 O   0  0  0  0  0  0  0  0  0  0  0  0
    5.7615   10.1433    3.7831 C   0  0  0  0  0  0  0  0  0  0  0  0
    7.1398    9.7185    3.9760 N   0  0  0  0  0  0  0  0  0  0  0  0
    8.0142    9.4662    2.8757 C   0  0  0  0  0  0  0  0  0  0  0  0
    7.6251    9.6727    1.6913 O   0  0  0  0  0  0  0  0  0  0  0  0
    9.4107    8.9843    3.1535 C   0  0  0  0  0  0  0  0  0  0  0  0
    9.7881    7.8243    2.2131 C   0  0  0  0  0  0  0  0  0  0  0  0
   11.2402    7.3772    2.4529 C   0  0  0  0  0  0  0  0  0  0  0  0
   12.1575    8.5899    2.2124 C   0  0  0  0  0  0  0  0  0  0  0  0
   13.6689    8.3364    1.9397 C   0  0  0  0  0  0  0  0  0  0  0  0
   14.0277    7.0398    1.2343 C   0  0  0  0  0  0  0  0  0  0  0  0
   14.6133    8.7687    2.9622 N   0  0  0  0  0  4  0  0  0  0  0  0
   11.8555    9.6807    3.2548 C   0  0  0  0  0  0  0  0  0  0  0  0
   10.4060   10.1586    3.0883 C   0  0  0  0  0  0  0  0  0  0  0  0
    6.1794    8.2497    6.5550 H   0  0  0  0  0  0  0  0  0  0  0  0
    5.2630    9.3498    7.6632 H   0  0  0  0  0  0  0  0  0  0  0  0
    4.6227    7.7079    7.2866 H   0  0  0  0  0  0  0  0  0  0  0  0
    4.2780    8.3188    4.9265 H   0  0  0  0  0  0  0  0  0  0  0  0
    3.3833    9.4467    5.9927 H   0  0  0  0  0  0  0  0  0  0  0  0
    4.6813   11.6079    6.7754 H   0  0  0  0  0  0  0  0  0  0  0  0
    5.7369   11.1076    3.2307 H   0  0  0  0  0  0  0  0  0  0  0  0
    5.2296    9.3942    3.1573 H   0  0  0  0  0  0  0  0  0  0  0  0
    7.5079    9.6114    4.9486 H   0  0  0  0  0  0  0  0  0  0  0  0
    9.4429    8.5798    4.1904 H   0  0  0  0  0  0  0  0  0  0  0  0
    9.6582    8.1228    1.1487 H   0  0  0  0  0  0  0  0  0  0  0  0
    9.1127    6.9617    2.4041 H   0  0  0  0  0  0  0  0  0  0  0  0
   11.4627    6.5568    1.7404 H   0  0  0  0  0  0  0  0  0  0  0  0
   11.3696    6.9870    3.4861 H   0  0  0  0  0  0  0  0  0  0  0  0
   11.8020    9.0088    1.2379 H   0  0  0  0  0  0  0  0  0  0  0  0
   13.8825    9.0582    1.1115 H   0  0  0  0  0  0  0  0  0  0  0  0
   13.9076    6.1867    1.9346 H   0  0  0  0  0  0  0  0  0  0  0  0
   15.0827    7.0605    0.8855 H   0  0  0  0  0  0  0  0  0  0  0  0
   13.3765    6.8822    0.3475 H   0  0  0  0  0  0  0  0  0  0  0  0
   15.5894    8.5024    2.6970 H   0  0  0  0  0  0  0  0  0  0  0  0
   14.3779    8.3021    3.8676 H   0  0  0  0  0  0  0  0  0  0  0  0
   14.5960    9.8060    3.0880 H   0  0  0  0  0  0  0  0  0  0  0  0
   12.5085   10.5641    3.0955 H   0  0  0  0  0  0  0  0  0  0  0  0
   12.0206    9.2946    4.2846 H   0  0  0  0  0  0  0  0  0  0  0  0
   10.3030   10.6871    2.1139 H   0  0  0  0  0  0  0  0  0  0  0  0
   10.1719   10.8885    3.8941 H   0  0  0  0  0  0  0  0  0  0  0  0
  1  2  1  0
  2  3  1  0
  3  4  1  0
  4  5  2  0
  3  6  1  0
  6  7  1  0
  7  8  1  0
  8  9  2  0
  8 10  1  0
 10 11  1  0
 11 12  1  0
 12 13  1  0
 13 14  1  0
 14 15  1  0
 14 16  1  0
 13 17  1  0
 17 18  1  0
 18 10  1  0
  1 19  1  0
  1 20  1  0
  1 21  1  0
  2 22  1  0
  2 23  1  0
  4 24  1  0
  6 25  1  0
  6 26  1  0
  7 27  1  0
 10 28  1  0
 11 29  1  0
 11 30  1  0
 12 31  1  0
 12 32  1  0
 13 33  1  0
 14 34  1  0
 15 35  1  0
 15 36  1  0
 15 37  1  0
 16 38  1  0
 16 39  1  0
 16 40  1  0
 17 41  1  0
 17 42  1  0
 18 43  1  0
 18 44  1  0
M  CHG  1  16   1
M  END
>  <EmbedRMS>  (178) 
0.18249057696814966

$$$$

     RDKit          3D

 38 38  0  0  0  0  0  0  0  0999 V2000
   14.0281    7.0397    1.2343 C   0  0  0  0  0  0  0  0  0  0  0  0
   13.6693    8.3364    1.9396 C   0  0  0  0  0  0  0  0  0  0  0  0
   14.6134    8.7687    2.9623 N   0  0  0  0  0  4  0  0  0  0  0  0
   12.1578    8.5899    2.2120 C   0  0  0  0  0  0  0  0  0  0  0  0
   11.2405    7.3772    2.4519 C   0  0  0  0  0  0  0  0  0  0  0  0
    9.7885    7.8243    2.2114 C   0  0  0  0  0  0  0  0  0  0  0  0
    9.4114    8.9838    3.1519 C   0  0  0  0  0  0  0  0  0  0  0  0
    8.0137    9.4644    2.8764 C   0  0  0  0  0  0  0  0  0  0  0  0
    7.6236    9.6755    1.6931 O   0  0  0  0  0  0  0  0  0  0  0  0
    7.1388    9.7055    3.9791 N   0  0  0  0  0  0  0  0  0  0  0  0
    5.7610   10.1385    3.7918 C   0  0  0  0  0  0  0  0  0  0  0  0
    5.0964   10.2807    5.1228 C   0  0  0  0  0  0  0  0  0  0  0  0
    5.2137   11.4974    5.8582 N   0  0  0  0  0  0  0  0  0  0  0  0
    4.4940    9.2972    5.6288 O   0  0  0  0  0  0  0  0  0  0  0  0
   10.4061   10.1586    3.0871 C   0  0  0  0  0  0  0  0  0  0  0  0
   11.8556    9.6808    3.2542 C   0  0  0  0  0  0  0  0  0  0  0  0
   13.3771    6.8823    0.3473 H   0  0  0  0  0  0  0  0  0  0  0  0
   13.9078    6.1867    1.9346 H   0  0  0  0  0  0  0  0  0  0  0  0
   15.0832    7.0603    0.8857 H   0  0  0  0  0  0  0  0  0  0  0  0
   13.8831    9.0582    1.1114 H   0  0  0  0  0  0  0  0  0  0  0  0
   15.5896    8.5022    2.6974 H   0  0  0  0  0  0  0  0  0  0  0  0
   14.3777    8.3021    3.8677 H   0  0  0  0  0  0  0  0  0  0  0  0
   14.5961    9.8060    3.0881 H   0  0  0  0  0  0  0  0  0  0  0  0
   11.8027    9.0089    1.2373 H   0  0  0  0  0  0  0  0  0  0  0  0
   11.3695    6.9868    3.4852 H   0  0  0  0  0  0  0  0  0  0  0  0
   11.4632    6.5568    1.7395 H   0  0  0  0  0  0  0  0  0  0  0  0
    9.6589    8.1233    1.1472 H   0  0  0  0  0  0  0  0  0  0  0  0
    9.1130    6.9617    2.4019 H   0  0  0  0  0  0  0  0  0  0  0  0
    9.4464    8.5784    4.1883 H   0  0  0  0  0  0  0  0  0  0  0  0
    7.5087    9.5678    4.9482 H   0  0  0  0  0  0  0  0  0  0  0  0
    5.7440   11.1125    3.2573 H   0  0  0  0  0  0  0  0  0  0  0  0
    5.2145    9.3890    3.1791 H   0  0  0  0  0  0  0  0  0  0  0  0
    5.7459   12.3067    5.4681 H   0  0  0  0  0  0  0  0  0  0  0  0
    4.7721   11.5883    6.8000 H   0  0  0  0  0  0  0  0  0  0  0  0
   10.1715   10.8883    3.8929 H   0  0  0  0  0  0  0  0  0  0  0  0
   10.3032   10.6869    2.1126 H   0  0  0  0  0  0  0  0  0  0  0  0
   12.5086   10.5642    3.0949 H   0  0  0  0  0  0  0  0  0  0  0  0
   12.0204    9.2949    4.2840 H   0  0  0  0  0  0  0  0  0  0  0  0
  1  2  1  0
  2  3  1  0
  2  4  1  0
  4  5  1  0
  5  6  1  0
  6  7  1  0
  7  8  1  0
  8  9  2  0
  8 10  1  0
 10 11  1  0
 11 12  1  0
 12 13  1  0
 12 14  2  0
  7 15  1  0
 15 16  1  0
 16  4  1  0
  1 17  1  0
  1 18  1  0
  1 19  1  0
  2 20  1  0
  3 21  1  0
  3 22  1  0
  3 23  1  0
  4 24  1  0
  5 25  1  0
  5 26  1  0
  6 27  1  0
  6 28  1  0
  7 29  1  0
 10 30  1  0
 11 31  1  0
 11 32  1  0
 13 33  1  0
 13 34  1  0
 15 35  1  0
 15 36  1  0
 16 37  1  0
 16 38  1  0
M  CHG  1   3   1
M  END
>  <EmbedRMS>  (179) 
0.1933160619529778

$$$$

     RDKit          3D

 42 43  0  0  0  0  0  0  0  0999 V2000
   13.9258    7.3289    1.0376 C   0  0  0  0  0  0  0  0  0  0  0  0
   13.7137    7.9206    2.4413 C   0  0  0  0  0  0  0  0  0  0  0  0
   14.6478    9.0270    2.6686 N   0  0  0  0  0  4  0  0  0  0  0  0
   12.2375    8.2918    2.8247 C   0  0  0  0  0  0  0  0  0  0  0  0
   11.1828    7.4129    2.1543 C   0  0  0  0  0  0  0  0  0  0  0  0
    9.7479    7.7186    2.5469 C   0  0  0  0  0  0  0  0  0  0  0  0
    9.4695    9.1982    2.6471 C   0  0  0  0  0  0  0  0  0  0  0  0
    8.0128    9.5269    2.7132 C   0  0  0  0  0  0  0  0  0  0  0  0
    7.4882    9.6203    1.5848 O   0  0  0  0  0  0  0  0  0  0  0  0
    7.2184    9.6986    3.9082 N   0  0  0  0  0  0  0  0  0  0  0  0
    5.8318   10.1323    3.9142 C   0  0  0  0  0  0  0  0  0  0  0  0
    5.2332   10.2341    5.0227 O   0  0  0  0  0  0  0  0  0  0  0  0
    5.0553   10.4888    2.6478 C   0  0  0  0  0  0  0  0  0  0  0  0
    3.6832    9.8519    2.5741 C   0  0  0  0  0  0  0  0  0  0  0  0
    3.0007   11.1427    2.6542 N   0  0  0  0  0  0  0  0  0  0  0  0
    4.3043   11.7988    2.7436 C   0  0  0  0  0  0  0  0  0  0  0  0
   10.4358   10.0483    3.4335 C   0  0  0  0  0  0  0  0  0  0  0  0
   11.8882    9.7832    3.0077 C   0  0  0  0  0  0  0  0  0  0  0  0
   15.0027    7.1207    0.8615 H   0  0  0  0  0  0  0  0  0  0  0  0
   13.3828    6.3673    0.9248 H   0  0  0  0  0  0  0  0  0  0  0  0
   13.5731    8.0453    0.2658 H   0  0  0  0  0  0  0  0  0  0  0  0
   14.0200    7.0962    3.1285 H   0  0  0  0  0  0  0  0  0  0  0  0
   14.6074    9.3350    3.6668 H   0  0  0  0  0  0  0  0  0  0  0  0
   14.4358    9.8285    2.0313 H   0  0  0  0  0  0  0  0  0  0  0  0
   15.6283    8.7106    2.4868 H   0  0  0  0  0  0  0  0  0  0  0  0
   12.1735    7.9457    3.8838 H   0  0  0  0  0  0  0  0  0  0  0  0
   11.2515    7.5631    1.0552 H   0  0  0  0  0  0  0  0  0  0  0  0
   11.3913    6.3396    2.3606 H   0  0  0  0  0  0  0  0  0  0  0  0
    9.5465    7.2617    3.5405 H   0  0  0  0  0  0  0  0  0  0  0  0
    9.0611    7.2385    1.8137 H   0  0  0  0  0  0  0  0  0  0  0  0
    9.7418    9.5318    1.6132 H   0  0  0  0  0  0  0  0  0  0  0  0
    7.6819    9.5211    4.8273 H   0  0  0  0  0  0  0  0  0  0  0  0
    5.5190   10.4595    1.6576 H   0  0  0  0  0  0  0  0  0  0  0  0
    3.4918    9.3665    1.5917 H   0  0  0  0  0  0  0  0  0  0  0  0
    3.4319    9.1850    3.4315 H   0  0  0  0  0  0  0  0  0  0  0  0
    2.5305   11.2113    3.5883 H   0  0  0  0  0  0  0  0  0  0  0  0
    4.4388   12.3444    3.7066 H   0  0  0  0  0  0  0  0  0  0  0  0
    4.4723   12.4572    1.8624 H   0  0  0  0  0  0  0  0  0  0  0  0
   10.2005   11.1276    3.3001 H   0  0  0  0  0  0  0  0  0  0  0  0
   10.3237    9.8044    4.5122 H   0  0  0  0  0  0  0  0  0  0  0  0
   12.5498   10.2564    3.7637 H   0  0  0  0  0  0  0  0  0  0  0  0
   12.0643   10.2988    2.0387 H   0  0  0  0  0  0  0  0  0  0  0  0
  1  2  1  0
  2  3  1  0
  2  4  1  0
  4  5  1  0
  5  6  1  0
  6  7  1  0
  7  8  1  0
  8  9  2  0
  8 10  1  0
 10 11  1  0
 11 12  2  0
 11 13  1  0
 13 14  1  0
 14 15  1  0
 15 16  1  0
  7 17  1  0
 17 18  1  0
 18  4  1  0
 16 13  1  0
  1 19  1  0
  1 20  1  0
  1 21  1  0
  2 22  1  0
  3 23  1  0
  3 24  1  0
  3 25  1  0
  4 26  1  0
  5 27  1  0
  5 28  1  0
  6 29  1  0
  6 30  1  0
  7 31  1  0
 10 32  1  0
 13 33  1  0
 14 34  1  0
 14 35  1  0
 15 36  1  0
 16 37  1  0
 16 38  1  0
 17 39  1  0
 17 40  1  0
 18 41  1  0
 18 42  1  0
M  CHG  1   3   1
M  END
>  <EmbedRMS>  (180) 
0.26184544597951215

$$$$

     RDKit          3D

 35 35  0  0  0  0  0  0  0  0999 V2000
   13.9234    7.3281    1.0385 C   0  0  0  0  0  0  0  0  0  0  0  0
   13.7076    7.9208    2.4413 C   0  0  0  0  0  0  0  0  0  0  0  0
   14.6424    9.0265    2.6703 N   0  0  0  0  0  4  0  0  0  0  0  0
   12.2294    8.2932    2.8207 C   0  0  0  0  0  0  0  0  0  0  0  0
   11.1743    7.4151    2.1496 C   0  0  0  0  0  0  0  0  0  0  0  0
    9.7354    7.7242    2.5340 C   0  0  0  0  0  0  0  0  0  0  0  0
    9.4508    9.2044    2.6210 C   0  0  0  0  0  0  0  0  0  0  0  0
    7.9903    9.5374    2.7232 C   0  0  0  0  0  0  0  0  0  0  0  0
    7.4045    9.6951    1.6247 O   0  0  0  0  0  0  0  0  0  0  0  0
    7.2417    9.6872    3.9402 N   0  0  0  0  0  0  0  0  0  0  0  0
    5.8463   10.1468    3.8960 C   0  0  0  0  0  0  0  0  0  0  0  0
    5.7801   11.4548    3.3903 O   0  0  0  0  0  0  0  0  0  0  0  0
   10.4241   10.0508    3.4113 C   0  0  0  0  0  0  0  0  0  0  0  0
   11.8790    9.7839    2.9949 C   0  0  0  0  0  0  0  0  0  0  0  0
   13.5739    8.0446    0.2653 H   0  0  0  0  0  0  0  0  0  0  0  0
   13.3790    6.3674    0.9247 H   0  0  0  0  0  0  0  0  0  0  0  0
   15.0005    7.1183    0.8659 H   0  0  0  0  0  0  0  0  0  0  0  0
   14.0110    7.0966    3.1300 H   0  0  0  0  0  0  0  0  0  0  0  0
   15.6233    8.7085    2.4934 H   0  0  0  0  0  0  0  0  0  0  0  0
   14.5976    9.3368    3.6676 H   0  0  0  0  0  0  0  0  0  0  0  0
   14.4339    9.8270    2.0307 H   0  0  0  0  0  0  0  0  0  0  0  0
   12.1624    7.9508    3.8807 H   0  0  0  0  0  0  0  0  0  0  0  0
   11.2479    7.5616    1.0504 H   0  0  0  0  0  0  0  0  0  0  0  0
   11.3801    6.3420    2.3598 H   0  0  0  0  0  0  0  0  0  0  0  0
    9.5305    7.2743    3.5300 H   0  0  0  0  0  0  0  0  0  0  0  0
    9.0510    7.2391    1.8021 H   0  0  0  0  0  0  0  0  0  0  0  0
    9.6990    9.5364    1.5822 H   0  0  0  0  0  0  0  0  0  0  0  0
    7.6948    9.4801    4.8581 H   0  0  0  0  0  0  0  0  0  0  0  0
    5.2491    9.4709    3.2480 H   0  0  0  0  0  0  0  0  0  0  0  0
    5.4077   10.1129    4.9184 H   0  0  0  0  0  0  0  0  0  0  0  0
    6.2057   12.0386    4.0709 H   0  0  0  0  0  0  0  0  0  0  0  0
   10.1930   11.1308    3.2770 H   0  0  0  0  0  0  0  0  0  0  0  0
   10.3073    9.8089    4.4900 H   0  0  0  0  0  0  0  0  0  0  0  0
   12.5373   10.2611    3.7514 H   0  0  0  0  0  0  0  0  0  0  0  0
   12.0587   10.2943    2.0238 H   0  0  0  0  0  0  0  0  0  0  0  0
  1  2  1  0
  2  3  1  0
  2  4  1  0
  4  5  1  0
  5  6  1  0
  6  7  1  0
  7  8  1  0
  8  9  2  0
  8 10  1  0
 10 11  1  0
 11 12  1  0
  7 13  1  0
 13 14  1  0
 14  4  1  0
  1 15  1  0
  1 16  1  0
  1 17  1  0
  2 18  1  0
  3 19  1  0
  3 20  1  0
  3 21  1  0
  4 22  1  0
  5 23  1  0
  5 24  1  0
  6 25  1  0
  6 26  1  0
  7 27  1  0
 10 28  1  0
 11 29  1  0
 11 30  1  0
 12 31  1  0
 13 32  1  0
 13 33  1  0
 14 34  1  0
 14 35  1  0
M  CHG  1   3   1
M  END
>  <EmbedRMS>  (181) 
0.2982641845284745

$$$$

     RDKit          3D

 44 44  0  0  0  0  0  0  0  0999 V2000
   14.0121    7.0506    1.2525 C   0  0  0  0  0  0  0  0  0  0  0  0
   13.6016    8.3243    1.9896 C   0  0  0  0  0  0  0  0  0  0  0  0
   14.7037    8.8917    2.7690 N   0  0  0  0  0  4  0  0  0  0  0  0
   12.2631    8.3265    2.7679 C   0  0  0  0  0  0  0  0  0  0  0  0
   11.1814    7.4387    2.1356 C   0  0  0  0  0  0  0  0  0  0  0  0
    9.7474    7.7242    2.5476 C   0  0  0  0  0  0  0  0  0  0  0  0
    9.4540    9.1994    2.6430 C   0  0  0  0  0  0  0  0  0  0  0  0
    7.9938    9.5221    2.7258 C   0  0  0  0  0  0  0  0  0  0  0  0
    7.4350    9.6816    1.6176 O   0  0  0  0  0  0  0  0  0  0  0  0
    7.2188    9.6578    3.9295 N   0  0  0  0  0  0  0  0  0  0  0  0
    5.8102   10.0779    3.8664 C   0  0  0  0  0  0  0  0  0  0  0  0
    4.9393    8.9582    3.3431 C   0  0  0  0  0  0  0  0  0  0  0  0
    4.7851    7.9458    4.0801 O   0  0  0  0  0  0  0  0  0  0  0  0
    4.2938    8.9996    2.0460 N   0  0  0  0  0  0  0  0  0  0  0  0
    3.5293    7.8309    1.5965 C   0  0  0  0  0  0  0  0  0  0  0  0
    4.3152   10.2043    1.2080 C   0  0  0  0  0  0  0  0  0  0  0  0
   10.3882   10.0185    3.4877 C   0  0  0  0  0  0  0  0  0  0  0  0
   11.8515    9.7801    3.1235 C   0  0  0  0  0  0  0  0  0  0  0  0
   13.2678    6.7644    0.4814 H   0  0  0  0  0  0  0  0  0  0  0  0
   14.1184    6.2177    1.9790 H   0  0  0  0  0  0  0  0  0  0  0  0
   14.9834    7.1931    0.7324 H   0  0  0  0  0  0  0  0  0  0  0  0
   13.4368    9.0285    1.1410 H   0  0  0  0  0  0  0  0  0  0  0  0
   14.5220    9.8926    3.0062 H   0  0  0  0  0  0  0  0  0  0  0  0
   15.5932    8.8664    2.2191 H   0  0  0  0  0  0  0  0  0  0  0  0
   14.8392    8.3422    3.6484 H   0  0  0  0  0  0  0  0  0  0  0  0
   12.4712    7.8394    3.7472 H   0  0  0  0  0  0  0  0  0  0  0  0
   11.4088    6.3660    2.3234 H   0  0  0  0  0  0  0  0  0  0  0  0
   11.2137    7.5918    1.0347 H   0  0  0  0  0  0  0  0  0  0  0  0
    9.0561    7.2353    1.8247 H   0  0  0  0  0  0  0  0  0  0  0  0
    9.5656    7.2672    3.5449 H   0  0  0  0  0  0  0  0  0  0  0  0
    9.7292    9.5585    1.6197 H   0  0  0  0  0  0  0  0  0  0  0  0
    7.6736    9.5047    4.8572 H   0  0  0  0  0  0  0  0  0  0  0  0
    5.7252   11.0043    3.2641 H   0  0  0  0  0  0  0  0  0  0  0  0
    5.4653   10.3346    4.8910 H   0  0  0  0  0  0  0  0  0  0  0  0
    2.7010    7.6288    2.3080 H   0  0  0  0  0  0  0  0  0  0  0  0
    3.0918    7.9792    0.5870 H   0  0  0  0  0  0  0  0  0  0  0  0
    4.1965    6.9442    1.5522 H   0  0  0  0  0  0  0  0  0  0  0  0
    5.3364   10.4398    0.8665 H   0  0  0  0  0  0  0  0  0  0  0  0
    3.6863   10.0864    0.3010 H   0  0  0  0  0  0  0  0  0  0  0  0
    3.9060   11.0645    1.7784 H   0  0  0  0  0  0  0  0  0  0  0  0
   10.1496   11.1014    3.3914 H   0  0  0  0  0  0  0  0  0  0  0  0
   10.2360    9.7336    4.5515 H   0  0  0  0  0  0  0  0  0  0  0  0
   12.0658   10.4404    2.2542 H   0  0  0  0  0  0  0  0  0  0  0  0
   12.4738   10.1512    3.9668 H   0  0  0  0  0  0  0  0  0  0  0  0
  1  2  1  0
  2  3  1  0
  2  4  1  0
  4  5  1  0
  5  6  1  0
  6  7  1  0
  7  8  1  0
  8  9  2  0
  8 10  1  0
 10 11  1  0
 11 12  1  0
 12 13  2  0
 12 14  1  0
 14 15  1  0
 14 16  1  0
  7 17  1  0
 17 18  1  0
 18  4  1  0
  1 19  1  0
  1 20  1  0
  1 21  1  0
  2 22  1  0
  3 23  1  0
  3 24  1  0
  3 25  1  0
  4 26  1  0
  5 27  1  0
  5 28  1  0
  6 29  1  0
  6 30  1  0
  7 31  1  0
 10 32  1  0
 11 33  1  0
 11 34  1  0
 15 35  1  0
 15 36  1  0
 15 37  1  0
 16 38  1  0
 16 39  1  0
 16 40  1  0
 17 41  1  0
 17 42  1  0
 18 43  1  0
 18 44  1  0
M  CHG  1   3   1
M  END
>  <EmbedRMS>  (182) 
0.2932026556361357

$$$$

     RDKit          3D

 44 44  0  0  0  0  0  0  0  0999 V2000
   14.0121    7.0506    1.2525 C   0  0  0  0  0  0  0  0  0  0  0  0
   13.6016    8.3243    1.9896 C   0  0  0  0  0  0  0  0  0  0  0  0
   14.7037    8.8917    2.7690 N   0  0  0  0  0  4  0  0  0  0  0  0
   12.2631    8.3265    2.7679 C   0  0  0  0  0  0  0  0  0  0  0  0
   11.1814    7.4387    2.1356 C   0  0  0  0  0  0  0  0  0  0  0  0
    9.7474    7.7242    2.5476 C   0  0  0  0  0  0  0  0  0  0  0  0
    9.4540    9.1994    2.6430 C   0  0  0  0  0  0  0  0  0  0  0  0
    7.9938    9.5221    2.7258 C   0  0  0  0  0  0  0  0  0  0  0  0
    7.4350    9.6816    1.6176 O   0  0  0  0  0  0  0  0  0  0  0  0
    7.2188    9.6578    3.9295 N   0  0  0  0  0  0  0  0  0  0  0  0
    5.8102   10.0779    3.8664 C   0  0  0  0  0  0  0  0  0  0  0  0
    4.9393    8.9582    3.3431 C   0  0  0  0  0  0  0  0  0  0  0  0
    4.7851    7.9458    4.0801 O   0  0  0  0  0  0  0  0  0  0  0  0
    4.2938    8.9996    2.0460 N   0  0  0  0  0  0  0  0  0  0  0  0
    3.5293    7.8309    1.5965 C   0  0  0  0  0  0  0  0  0  0  0  0
    4.3152   10.2043    1.2080 C   0  0  0  0  0  0  0  0  0  0  0  0
   10.3882   10.0185    3.4877 C   0  0  0  0  0  0  0  0  0  0  0  0
   11.8515    9.7801    3.1235 C   0  0  0  0  0  0  0  0  0  0  0  0
   13.2678    6.7644    0.4814 H   0  0  0  0  0  0  0  0  0  0  0  0
   14.1184    6.2177    1.9790 H   0  0  0  0  0  0  0  0  0  0  0  0
   14.9834    7.1931    0.7324 H   0  0  0  0  0  0  0  0  0  0  0  0
   13.4368    9.0285    1.1410 H   0  0  0  0  0  0  0  0  0  0  0  0
   14.5220    9.8926    3.0062 H   0  0  0  0  0  0  0  0  0  0  0  0
   15.5932    8.8664    2.2191 H   0  0  0  0  0  0  0  0  0  0  0  0
   14.8392    8.3422    3.6484 H   0  0  0  0  0  0  0  0  0  0  0  0
   12.4712    7.8394    3.7472 H   0  0  0  0  0  0  0  0  0  0  0  0
   11.4088    6.3660    2.3234 H   0  0  0  0  0  0  0  0  0  0  0  0
   11.2137    7.5918    1.0347 H   0  0  0  0  0  0  0  0  0  0  0  0
    9.0561    7.2353    1.8247 H   0  0  0  0  0  0  0  0  0  0  0  0
    9.5656    7.2672    3.5449 H   0  0  0  0  0  0  0  0  0  0  0  0
    9.7292    9.5585    1.6197 H   0  0  0  0  0  0  0  0  0  0  0  0
    7.6736    9.5047    4.8572 H   0  0  0  0  0  0  0  0  0  0  0  0
    5.7252   11.0043    3.2641 H   0  0  0  0  0  0  0  0  0  0  0  0
    5.4653   10.3346    4.8910 H   0  0  0  0  0  0  0  0  0  0  0  0
    2.7010    7.6288    2.3080 H   0  0  0  0  0  0  0  0  0  0  0  0
    3.0918    7.9792    0.5870 H   0  0  0  0  0  0  0  0  0  0  0  0
    4.1965    6.9442    1.5522 H   0  0  0  0  0  0  0  0  0  0  0  0
    5.3364   10.4398    0.8665 H   0  0  0  0  0  0  0  0  0  0  0  0
    3.6863   10.0864    0.3010 H   0  0  0  0  0  0  0  0  0  0  0  0
    3.9060   11.0645    1.7784 H   0  0  0  0  0  0  0  0  0  0  0  0
   10.1496   11.1014    3.3914 H   0  0  0  0  0  0  0  0  0  0  0  0
   10.2360    9.7336    4.5515 H   0  0  0  0  0  0  0  0  0  0  0  0
   12.0658   10.4404    2.2542 H   0  0  0  0  0  0  0  0  0  0  0  0
   12.4738   10.1512    3.9668 H   0  0  0  0  0  0  0  0  0  0  0  0
  1  2  1  0
  2  3  1  0
  2  4  1  0
  4  5  1  0
  5  6  1  0
  6  7  1  0
  7  8  1  0
  8  9  2  0
  8 10  1  0
 10 11  1  0
 11 12  1  0
 12 13  2  0
 12 14  1  0
 14 15  1  0
 14 16  1  0
  7 17  1  0
 17 18  1  0
 18  4  1  0
  1 19  1  0
  1 20  1  0
  1 21  1  0
  2 22  1  0
  3 23  1  0
  3 24  1  0
  3 25  1  0
  4 26  1  0
  5 27  1  0
  5 28  1  0
  6 29  1  0
  6 30  1  0
  7 31  1  0
 10 32  1  0
 11 33  1  0
 11 34  1  0
 15 35  1  0
 15 36  1  0
 15 37  1  0
 16 38  1  0
 16 39  1  0
 16 40  1  0
 17 41  1  0
 17 42  1  0
 18 43  1  0
 18 44  1  0
M  CHG  1   3   1
M  END
>  <EmbedRMS>  (183) 
0.2932026556361357

$$$$

     RDKit          3D

 43 43  0  0  0  0  0  0  0  0999 V2000
   14.0486    7.2192    1.1049 C   0  0  0  0  0  0  0  0  0  0  0  0
   13.6498    7.9555    2.3991 C   0  0  0  0  0  0  0  0  0  0  0  0
   14.6292    9.0155    2.6711 N   0  0  0  0  0  4  0  0  0  0  0  0
   12.2003    8.5119    2.2740 C   0  0  0  0  0  0  0  0  0  0  0  0
   11.1806    7.3656    2.4361 C   0  0  0  0  0  0  0  0  0  0  0  0
    9.7715    7.8716    2.1606 C   0  0  0  0  0  0  0  0  0  0  0  0
    9.4110    8.9932    3.1408 C   0  0  0  0  0  0  0  0  0  0  0  0
    8.0154    9.4795    2.8824 C   0  0  0  0  0  0  0  0  0  0  0  0
    7.6265    9.6909    1.7007 O   0  0  0  0  0  0  0  0  0  0  0  0
    7.1372    9.7055    3.9915 N   0  0  0  0  0  0  0  0  0  0  0  0
    5.7489   10.1172    3.8341 C   0  0  0  0  0  0  0  0  0  0  0  0
    4.9206    8.9668    3.3361 C   0  0  0  0  0  0  0  0  0  0  0  0
    4.7598    7.9701    4.0939 O   0  0  0  0  0  0  0  0  0  0  0  0
    4.3162    8.9766    2.0263 N   0  0  0  0  0  0  0  0  0  0  0  0
    3.5457    7.8246    1.5687 C   0  0  0  0  0  0  0  0  0  0  0  0
    4.4000   10.0964    1.1798 N   0  0  0  0  0  0  0  0  0  0  0  0
   10.4245   10.1481    3.0692 C   0  0  0  0  0  0  0  0  0  0  0  0
   11.8597    9.6377    3.2820 C   0  0  0  0  0  0  0  0  0  0  0  0
   13.4173    6.3267    0.9274 H   0  0  0  0  0  0  0  0  0  0  0  0
   15.0959    6.8572    1.1808 H   0  0  0  0  0  0  0  0  0  0  0  0
   13.9782    7.8972    0.2276 H   0  0  0  0  0  0  0  0  0  0  0  0
   13.6915    7.2248    3.2391 H   0  0  0  0  0  0  0  0  0  0  0  0
   14.4969    9.3930    3.6368 H   0  0  0  0  0  0  0  0  0  0  0  0
   15.6006    8.6295    2.6300 H   0  0  0  0  0  0  0  0  0  0  0  0
   14.5436    9.7862    1.9685 H   0  0  0  0  0  0  0  0  0  0  0  0
   12.0877    8.9472    1.2541 H   0  0  0  0  0  0  0  0  0  0  0  0
   11.2364    6.9380    3.4622 H   0  0  0  0  0  0  0  0  0  0  0  0
   11.3810    6.5456    1.7183 H   0  0  0  0  0  0  0  0  0  0  0  0
    9.0562    7.0280    2.2804 H   0  0  0  0  0  0  0  0  0  0  0  0
    9.7076    8.2315    1.1090 H   0  0  0  0  0  0  0  0  0  0  0  0
    9.4489    8.5666    4.1688 H   0  0  0  0  0  0  0  0  0  0  0  0
    7.5037    9.5849    4.9629 H   0  0  0  0  0  0  0  0  0  0  0  0
    5.3481   10.4280    4.8230 H   0  0  0  0  0  0  0  0  0  0  0  0
    5.7005   11.0098    3.1804 H   0  0  0  0  0  0  0  0  0  0  0  0
    4.1976    6.9261    1.5358 H   0  0  0  0  0  0  0  0  0  0  0  0
    3.1406    8.0053    0.5501 H   0  0  0  0  0  0  0  0  0  0  0  0
    2.6962    7.6406    2.2599 H   0  0  0  0  0  0  0  0  0  0  0  0
    3.9806   10.9157    1.6753 H   0  0  0  0  0  0  0  0  0  0  0  0
    5.4011   10.2906    0.9685 H   0  0  0  0  0  0  0  0  0  0  0  0
   10.3568   10.6506    2.0784 H   0  0  0  0  0  0  0  0  0  0  0  0
   10.1876   10.9008    3.8526 H   0  0  0  0  0  0  0  0  0  0  0  0
   11.9766    9.2658    4.3239 H   0  0  0  0  0  0  0  0  0  0  0  0
   12.5384   10.5050    3.1412 H   0  0  0  0  0  0  0  0  0  0  0  0
  1  2  1  0
  2  3  1  0
  2  4  1  0
  4  5  1  0
  5  6  1  0
  6  7  1  0
  7  8  1  0
  8  9  2  0
  8 10  1  0
 10 11  1  0
 11 12  1  0
 12 13  2  0
 12 14  1  0
 14 15  1  0
 14 16  1  0
  7 17  1  0
 17 18  1  0
 18  4  1  0
  1 19  1  0
  1 20  1  0
  1 21  1  0
  2 22  1  0
  3 23  1  0
  3 24  1  0
  3 25  1  0
  4 26  1  0
  5 27  1  0
  5 28  1  0
  6 29  1  0
  6 30  1  0
  7 31  1  0
 10 32  1  0
 11 33  1  0
 11 34  1  0
 15 35  1  0
 15 36  1  0
 15 37  1  0
 16 38  1  0
 16 39  1  0
 17 40  1  0
 17 41  1  0
 18 42  1  0
 18 43  1  0
M  CHG  1   3   1
M  END
>  <EmbedRMS>  (184) 
0.03549653548714213

$$$$

     RDKit          3D

 38 38  0  0  0  0  0  0  0  0999 V2000
   14.0485    7.2193    1.1052 C   0  0  0  0  0  0  0  0  0  0  0  0
   13.6494    7.9557    2.3993 C   0  0  0  0  0  0  0  0  0  0  0  0
   14.6287    9.0157    2.6714 N   0  0  0  0  0  4  0  0  0  0  0  0
   12.1999    8.5121    2.2739 C   0  0  0  0  0  0  0  0  0  0  0  0
   11.1802    7.3659    2.4359 C   0  0  0  0  0  0  0  0  0  0  0  0
    9.7714    7.8716    2.1578 C   0  0  0  0  0  0  0  0  0  0  0  0
    9.4086    8.9939    3.1360 C   0  0  0  0  0  0  0  0  0  0  0  0
    8.0119    9.4795    2.8745 C   0  0  0  0  0  0  0  0  0  0  0  0
    7.6187    9.6893    1.6921 O   0  0  0  0  0  0  0  0  0  0  0  0
    7.1292    9.6965    3.9807 N   0  0  0  0  0  0  0  0  0  0  0  0
    5.7624   10.1694    3.8094 C   0  0  0  0  0  0  0  0  0  0  0  0
    5.7587   11.6573    3.4724 C   0  0  0  0  0  0  0  0  0  0  0  0
    4.4421   12.1064    3.3200 O   0  0  0  0  0  0  0  0  0  0  0  0
   10.4229   10.1485    3.0671 C   0  0  0  0  0  0  0  0  0  0  0  0
   11.8582    9.6379    3.2816 C   0  0  0  0  0  0  0  0  0  0  0  0
   15.0958    6.8574    1.1814 H   0  0  0  0  0  0  0  0  0  0  0  0
   13.9784    7.8974    0.2278 H   0  0  0  0  0  0  0  0  0  0  0  0
   13.4173    6.3269    0.9275 H   0  0  0  0  0  0  0  0  0  0  0  0
   13.6910    7.2251    3.2394 H   0  0  0  0  0  0  0  0  0  0  0  0
   14.4960    9.3935    3.6370 H   0  0  0  0  0  0  0  0  0  0  0  0
   15.6002    8.6298    2.6308 H   0  0  0  0  0  0  0  0  0  0  0  0
   14.5433    9.7863    1.9687 H   0  0  0  0  0  0  0  0  0  0  0  0
   12.0876    8.9473    1.2540 H   0  0  0  0  0  0  0  0  0  0  0  0
   11.2347    6.9393    3.4625 H   0  0  0  0  0  0  0  0  0  0  0  0
   11.3816    6.5452    1.7192 H   0  0  0  0  0  0  0  0  0  0  0  0
    9.0563    7.0278    2.2771 H   0  0  0  0  0  0  0  0  0  0  0  0
    9.7089    8.2307    1.1059 H   0  0  0  0  0  0  0  0  0  0  0  0
    9.4455    8.5679    4.1642 H   0  0  0  0  0  0  0  0  0  0  0  0
    7.4525    9.4673    4.9477 H   0  0  0  0  0  0  0  0  0  0  0  0
    5.2572    9.5890    3.0069 H   0  0  0  0  0  0  0  0  0  0  0  0
    5.2000   10.0100    4.7552 H   0  0  0  0  0  0  0  0  0  0  0  0
    6.2767   12.2336    4.2730 H   0  0  0  0  0  0  0  0  0  0  0  0
    6.3008   11.8316    2.5198 H   0  0  0  0  0  0  0  0  0  0  0  0
    4.0707   12.2170    4.2342 H   0  0  0  0  0  0  0  0  0  0  0  0
   10.3565   10.6518    2.0766 H   0  0  0  0  0  0  0  0  0  0  0  0
   10.1846   10.9008    3.8506 H   0  0  0  0  0  0  0  0  0  0  0  0
   12.5372   10.5052    3.1416 H   0  0  0  0  0  0  0  0  0  0  0  0
   11.9739    9.2660    4.3236 H   0  0  0  0  0  0  0  0  0  0  0  0
  1  2  1  0
  2  3  1  0
  2  4  1  0
  4  5  1  0
  5  6  1  0
  6  7  1  0
  7  8  1  0
  8  9  2  0
  8 10  1  0
 10 11  1  0
 11 12  1  0
 12 13  1  0
  7 14  1  0
 14 15  1  0
 15  4  1  0
  1 16  1  0
  1 17  1  0
  1 18  1  0
  2 19  1  0
  3 20  1  0
  3 21  1  0
  3 22  1  0
  4 23  1  0
  5 24  1  0
  5 25  1  0
  6 26  1  0
  6 27  1  0
  7 28  1  0
 10 29  1  0
 11 30  1  0
 11 31  1  0
 12 32  1  0
 12 33  1  0
 13 34  1  0
 14 35  1  0
 14 36  1  0
 15 37  1  0
 15 38  1  0
M  CHG  1   3   1
M  END
>  <EmbedRMS>  (185) 
0.031392693704421666

$$$$

     RDKit          3D

 44 44  0  0  0  0  0  0  0  0999 V2000
   14.0121    7.0506    1.2525 C   0  0  0  0  0  0  0  0  0  0  0  0
   13.6016    8.3243    1.9896 C   0  0  0  0  0  0  0  0  0  0  0  0
   14.7037    8.8917    2.7690 N   0  0  0  0  0  4  0  0  0  0  0  0
   12.2631    8.3265    2.7679 C   0  0  0  0  0  0  0  0  0  0  0  0
   11.1814    7.4387    2.1356 C   0  0  0  0  0  0  0  0  0  0  0  0
    9.7474    7.7242    2.5476 C   0  0  0  0  0  0  0  0  0  0  0  0
    9.4540    9.1994    2.6430 C   0  0  0  0  0  0  0  0  0  0  0  0
    7.9938    9.5221    2.7258 C   0  0  0  0  0  0  0  0  0  0  0  0
    7.4350    9.6816    1.6176 O   0  0  0  0  0  0  0  0  0  0  0  0
    7.2188    9.6578    3.9295 N   0  0  0  0  0  0  0  0  0  0  0  0
    5.8102   10.0779    3.8664 C   0  0  0  0  0  0  0  0  0  0  0  0
    4.9393    8.9582    3.3431 C   0  0  0  0  0  0  0  0  0  0  0  0
    4.7851    7.9458    4.0801 O   0  0  0  0  0  0  0  0  0  0  0  0
    4.2938    8.9996    2.0460 N   0  0  0  0  0  0  0  0  0  0  0  0
    3.5293    7.8309    1.5965 C   0  0  0  0  0  0  0  0  0  0  0  0
    4.3152   10.2043    1.2080 C   0  0  0  0  0  0  0  0  0  0  0  0
   10.3882   10.0185    3.4877 C   0  0  0  0  0  0  0  0  0  0  0  0
   11.8515    9.7801    3.1235 C   0  0  0  0  0  0  0  0  0  0  0  0
   13.2678    6.7644    0.4814 H   0  0  0  0  0  0  0  0  0  0  0  0
   14.1184    6.2177    1.9790 H   0  0  0  0  0  0  0  0  0  0  0  0
   14.9834    7.1931    0.7324 H   0  0  0  0  0  0  0  0  0  0  0  0
   13.4368    9.0285    1.1410 H   0  0  0  0  0  0  0  0  0  0  0  0
   14.5220    9.8926    3.0062 H   0  0  0  0  0  0  0  0  0  0  0  0
   15.5932    8.8664    2.2191 H   0  0  0  0  0  0  0  0  0  0  0  0
   14.8392    8.3422    3.6484 H   0  0  0  0  0  0  0  0  0  0  0  0
   12.4712    7.8394    3.7472 H   0  0  0  0  0  0  0  0  0  0  0  0
   11.4088    6.3660    2.3234 H   0  0  0  0  0  0  0  0  0  0  0  0
   11.2137    7.5918    1.0347 H   0  0  0  0  0  0  0  0  0  0  0  0
    9.0561    7.2353    1.8247 H   0  0  0  0  0  0  0  0  0  0  0  0
    9.5656    7.2672    3.5449 H   0  0  0  0  0  0  0  0  0  0  0  0
    9.7292    9.5585    1.6197 H   0  0  0  0  0  0  0  0  0  0  0  0
    7.6736    9.5047    4.8572 H   0  0  0  0  0  0  0  0  0  0  0  0
    5.7252   11.0043    3.2641 H   0  0  0  0  0  0  0  0  0  0  0  0
    5.4653   10.3346    4.8910 H   0  0  0  0  0  0  0  0  0  0  0  0
    2.7010    7.6288    2.3080 H   0  0  0  0  0  0  0  0  0  0  0  0
    3.0918    7.9792    0.5870 H   0  0  0  0  0  0  0  0  0  0  0  0
    4.1965    6.9442    1.5522 H   0  0  0  0  0  0  0  0  0  0  0  0
    5.3364   10.4398    0.8665 H   0  0  0  0  0  0  0  0  0  0  0  0
    3.6863   10.0864    0.3010 H   0  0  0  0  0  0  0  0  0  0  0  0
    3.9060   11.0645    1.7784 H   0  0  0  0  0  0  0  0  0  0  0  0
   10.1496   11.1014    3.3914 H   0  0  0  0  0  0  0  0  0  0  0  0
   10.2360    9.7336    4.5515 H   0  0  0  0  0  0  0  0  0  0  0  0
   12.0658   10.4404    2.2542 H   0  0  0  0  0  0  0  0  0  0  0  0
   12.4738   10.1512    3.9668 H   0  0  0  0  0  0  0  0  0  0  0  0
  1  2  1  0
  2  3  1  0
  2  4  1  0
  4  5  1  0
  5  6  1  0
  6  7  1  0
  7  8  1  0
  8  9  2  0
  8 10  1  0
 10 11  1  0
 11 12  1  0
 12 13  2  0
 12 14  1  0
 14 15  1  0
 14 16  1  0
  7 17  1  0
 17 18  1  0
 18  4  1  0
  1 19  1  0
  1 20  1  0
  1 21  1  0
  2 22  1  0
  3 23  1  0
  3 24  1  0
  3 25  1  0
  4 26  1  0
  5 27  1  0
  5 28  1  0
  6 29  1  0
  6 30  1  0
  7 31  1  0
 10 32  1  0
 11 33  1  0
 11 34  1  0
 15 35  1  0
 15 36  1  0
 15 37  1  0
 16 38  1  0
 16 39  1  0
 16 40  1  0
 17 41  1  0
 17 42  1  0
 18 43  1  0
 18 44  1  0
M  CHG  1   3   1
M  END
>  <EmbedRMS>  (186) 
0.2932026556361357

$$$$

     RDKit          3D

 47 47  0  0  0  0  0  0  0  0999 V2000
    3.5174   11.9052    2.6876 C   0  0  0  0  0  0  0  0  0  0  0  0
    4.2799   12.1967    3.9850 C   0  0  0  0  0  0  0  0  0  0  0  0
    5.7623   11.7300    3.9907 C   0  0  0  0  0  0  0  0  0  0  0  0
    6.5470   12.4213    2.8540 C   0  0  0  0  0  0  0  0  0  0  0  0
    6.3366   12.0886    5.2241 O   0  0  0  0  0  0  0  0  0  0  0  0
    5.8484   10.1846    3.8797 C   0  0  0  0  0  0  0  0  0  0  0  0
    7.2414    9.7079    3.9331 N   0  0  0  0  0  0  0  0  0  0  0  0
    7.9937    9.5292    2.7200 C   0  0  0  0  0  0  0  0  0  0  0  0
    7.4137    9.6650    1.6156 O   0  0  0  0  0  0  0  0  0  0  0  0
    9.4539    9.2022    2.6244 C   0  0  0  0  0  0  0  0  0  0  0  0
    9.7386    7.7225    2.5357 C   0  0  0  0  0  0  0  0  0  0  0  0
   11.1765    7.4148    2.1499 C   0  0  0  0  0  0  0  0  0  0  0  0
   12.2308    8.2934    2.8213 C   0  0  0  0  0  0  0  0  0  0  0  0
   13.7087    7.9212    2.4414 C   0  0  0  0  0  0  0  0  0  0  0  0
   13.9242    7.3285    1.0385 C   0  0  0  0  0  0  0  0  0  0  0  0
   14.6433    9.0272    2.6701 N   0  0  0  0  0  4  0  0  0  0  0  0
   11.8799    9.7843    2.9968 C   0  0  0  0  0  0  0  0  0  0  0  0
   10.4249   10.0506    3.4141 C   0  0  0  0  0  0  0  0  0  0  0  0
    3.9961   12.3953    1.8159 H   0  0  0  0  0  0  0  0  0  0  0  0
    2.4895   12.3156    2.7767 H   0  0  0  0  0  0  0  0  0  0  0  0
    3.4218   10.8162    2.5065 H   0  0  0  0  0  0  0  0  0  0  0  0
    3.7399   11.7111    4.8272 H   0  0  0  0  0  0  0  0  0  0  0  0
    4.2372   13.2932    4.1663 H   0  0  0  0  0  0  0  0  0  0  0  0
    7.6394   12.2803    2.9958 H   0  0  0  0  0  0  0  0  0  0  0  0
    6.2670   12.0129    1.8612 H   0  0  0  0  0  0  0  0  0  0  0  0
    6.3509   13.5150    2.8528 H   0  0  0  0  0  0  0  0  0  0  0  0
    6.3176   13.0790    5.3014 H   0  0  0  0  0  0  0  0  0  0  0  0
    5.3615    9.8174    2.9534 H   0  0  0  0  0  0  0  0  0  0  0  0
    5.2917    9.7289    4.7274 H   0  0  0  0  0  0  0  0  0  0  0  0
    7.7198    9.6108    4.8564 H   0  0  0  0  0  0  0  0  0  0  0  0
    9.7046    9.5353    1.5864 H   0  0  0  0  0  0  0  0  0  0  0  0
    9.5349    7.2717    3.5316 H   0  0  0  0  0  0  0  0  0  0  0  0
    9.0542    7.2372    1.8040 H   0  0  0  0  0  0  0  0  0  0  0  0
   11.2492    7.5625    1.0508 H   0  0  0  0  0  0  0  0  0  0  0  0
   11.3833    6.3417    2.3592 H   0  0  0  0  0  0  0  0  0  0  0  0
   12.1641    7.9504    3.8811 H   0  0  0  0  0  0  0  0  0  0  0  0
   14.0126    7.0972    3.1301 H   0  0  0  0  0  0  0  0  0  0  0  0
   13.3803    6.3674    0.9250 H   0  0  0  0  0  0  0  0  0  0  0  0
   13.5740    8.0447    0.2654 H   0  0  0  0  0  0  0  0  0  0  0  0
   15.0013    7.1193    0.8655 H   0  0  0  0  0  0  0  0  0  0  0  0
   15.6242    8.7095    2.4927 H   0  0  0  0  0  0  0  0  0  0  0  0
   14.4342    9.8277    2.0306 H   0  0  0  0  0  0  0  0  0  0  0  0
   14.5989    9.3373    3.6675 H   0  0  0  0  0  0  0  0  0  0  0  0
   12.0591   10.2955    2.0262 H   0  0  0  0  0  0  0  0  0  0  0  0
   12.5384   10.2610    3.7534 H   0  0  0  0  0  0  0  0  0  0  0  0
   10.1921   11.1301    3.2792 H   0  0  0  0  0  0  0  0  0  0  0  0
   10.3088    9.8090    4.4929 H   0  0  0  0  0  0  0  0  0  0  0  0
  1  2  1  0
  2  3  1  0
  3  4  1  0
  3  5  1  0
  3  6  1  0
  6  7  1  0
  7  8  1  0
  8  9  2  0
  8 10  1  0
 10 11  1  0
 11 12  1  0
 12 13  1  0
 13 14  1  0
 14 15  1  0
 14 16  1  0
 13 17  1  0
 17 18  1  0
 18 10  1  0
  1 19  1  0
  1 20  1  0
  1 21  1  0
  2 22  1  0
  2 23  1  0
  4 24  1  0
  4 25  1  0
  4 26  1  0
  5 27  1  0
  6 28  1  0
  6 29  1  0
  7 30  1  0
 10 31  1  0
 11 32  1  0
 11 33  1  0
 12 34  1  0
 12 35  1  0
 13 36  1  0
 14 37  1  0
 15 38  1  0
 15 39  1  0
 15 40  1  0
 16 41  1  0
 16 42  1  0
 16 43  1  0
 17 44  1  0
 17 45  1  0
 18 46  1  0
 18 47  1  0
M  CHG  1  16   1
M  END
>  <EmbedRMS>  (187) 
0.26254629839416405

$$$$

     RDKit          3D

 44 44  0  0  0  0  0  0  0  0999 V2000
   14.0121    7.0506    1.2525 C   0  0  0  0  0  0  0  0  0  0  0  0
   13.6016    8.3243    1.9896 C   0  0  0  0  0  0  0  0  0  0  0  0
   14.7037    8.8917    2.7690 N   0  0  0  0  0  4  0  0  0  0  0  0
   12.2631    8.3265    2.7679 C   0  0  0  0  0  0  0  0  0  0  0  0
   11.1814    7.4387    2.1356 C   0  0  0  0  0  0  0  0  0  0  0  0
    9.7474    7.7242    2.5476 C   0  0  0  0  0  0  0  0  0  0  0  0
    9.4540    9.1994    2.6430 C   0  0  0  0  0  0  0  0  0  0  0  0
    7.9938    9.5221    2.7258 C   0  0  0  0  0  0  0  0  0  0  0  0
    7.4350    9.6816    1.6176 O   0  0  0  0  0  0  0  0  0  0  0  0
    7.2188    9.6578    3.9295 N   0  0  0  0  0  0  0  0  0  0  0  0
    5.8102   10.0779    3.8664 C   0  0  0  0  0  0  0  0  0  0  0  0
    4.9393    8.9582    3.3431 C   0  0  0  0  0  0  0  0  0  0  0  0
    4.7851    7.9458    4.0801 O   0  0  0  0  0  0  0  0  0  0  0  0
    4.2938    8.9996    2.0460 N   0  0  0  0  0  0  0  0  0  0  0  0
    3.5293    7.8309    1.5965 C   0  0  0  0  0  0  0  0  0  0  0  0
    4.3152   10.2043    1.2080 C   0  0  0  0  0  0  0  0  0  0  0  0
   10.3882   10.0185    3.4877 C   0  0  0  0  0  0  0  0  0  0  0  0
   11.8515    9.7801    3.1235 C   0  0  0  0  0  0  0  0  0  0  0  0
   13.2678    6.7644    0.4814 H   0  0  0  0  0  0  0  0  0  0  0  0
   14.1184    6.2177    1.9790 H   0  0  0  0  0  0  0  0  0  0  0  0
   14.9834    7.1931    0.7324 H   0  0  0  0  0  0  0  0  0  0  0  0
   13.4368    9.0285    1.1410 H   0  0  0  0  0  0  0  0  0  0  0  0
   14.5220    9.8926    3.0062 H   0  0  0  0  0  0  0  0  0  0  0  0
   15.5932    8.8664    2.2191 H   0  0  0  0  0  0  0  0  0  0  0  0
   14.8392    8.3422    3.6484 H   0  0  0  0  0  0  0  0  0  0  0  0
   12.4712    7.8394    3.7472 H   0  0  0  0  0  0  0  0  0  0  0  0
   11.4088    6.3660    2.3234 H   0  0  0  0  0  0  0  0  0  0  0  0
   11.2137    7.5918    1.0347 H   0  0  0  0  0  0  0  0  0  0  0  0
    9.0561    7.2353    1.8247 H   0  0  0  0  0  0  0  0  0  0  0  0
    9.5656    7.2672    3.5449 H   0  0  0  0  0  0  0  0  0  0  0  0
    9.7292    9.5585    1.6197 H   0  0  0  0  0  0  0  0  0  0  0  0
    7.6736    9.5047    4.8572 H   0  0  0  0  0  0  0  0  0  0  0  0
    5.7252   11.0043    3.2641 H   0  0  0  0  0  0  0  0  0  0  0  0
    5.4653   10.3346    4.8910 H   0  0  0  0  0  0  0  0  0  0  0  0
    2.7010    7.6288    2.3080 H   0  0  0  0  0  0  0  0  0  0  0  0
    3.0918    7.9792    0.5870 H   0  0  0  0  0  0  0  0  0  0  0  0
    4.1965    6.9442    1.5522 H   0  0  0  0  0  0  0  0  0  0  0  0
    5.3364   10.4398    0.8665 H   0  0  0  0  0  0  0  0  0  0  0  0
    3.6863   10.0864    0.3010 H   0  0  0  0  0  0  0  0  0  0  0  0
    3.9060   11.0645    1.7784 H   0  0  0  0  0  0  0  0  0  0  0  0
   10.1496   11.1014    3.3914 H   0  0  0  0  0  0  0  0  0  0  0  0
   10.2360    9.7336    4.5515 H   0  0  0  0  0  0  0  0  0  0  0  0
   12.0658   10.4404    2.2542 H   0  0  0  0  0  0  0  0  0  0  0  0
   12.4738   10.1512    3.9668 H   0  0  0  0  0  0  0  0  0  0  0  0
  1  2  1  0
  2  3  1  0
  2  4  1  0
  4  5  1  0
  5  6  1  0
  6  7  1  0
  7  8  1  0
  8  9  2  0
  8 10  1  0
 10 11  1  0
 11 12  1  0
 12 13  2  0
 12 14  1  0
 14 15  1  0
 14 16  1  0
  7 17  1  0
 17 18  1  0
 18  4  1  0
  1 19  1  0
  1 20  1  0
  1 21  1  0
  2 22  1  0
  3 23  1  0
  3 24  1  0
  3 25  1  0
  4 26  1  0
  5 27  1  0
  5 28  1  0
  6 29  1  0
  6 30  1  0
  7 31  1  0
 10 32  1  0
 11 33  1  0
 11 34  1  0
 15 35  1  0
 15 36  1  0
 15 37  1  0
 16 38  1  0
 16 39  1  0
 16 40  1  0
 17 41  1  0
 17 42  1  0
 18 43  1  0
 18 44  1  0
M  CHG  1   3   1
M  END
>  <EmbedRMS>  (188) 
0.2932026556361357

$$$$

     RDKit          3D

 44 44  0  0  0  0  0  0  0  0999 V2000
    4.4064   12.2531    4.2498 C   0  0  0  0  0  0  0  0  0  0  0  0
    5.8266   11.7486    3.9808 C   0  0  0  0  0  0  0  0  0  0  0  0
    5.8548   10.2090    3.8957 C   0  0  0  0  0  0  0  0  0  0  0  0
    7.2354    9.7014    3.9320 N   0  0  0  0  0  0  0  0  0  0  0  0
    7.9881    9.5295    2.7199 C   0  0  0  0  0  0  0  0  0  0  0  0
    7.4116    9.6735    1.6153 O   0  0  0  0  0  0  0  0  0  0  0  0
    9.4496    9.2045    2.6326 C   0  0  0  0  0  0  0  0  0  0  0  0
    9.7437    7.7284    2.5428 C   0  0  0  0  0  0  0  0  0  0  0  0
   11.1788    7.4404    2.1344 C   0  0  0  0  0  0  0  0  0  0  0  0
   12.2608    8.3279    2.7668 C   0  0  0  0  0  0  0  0  0  0  0  0
   13.6004    8.3244    1.9897 C   0  0  0  0  0  0  0  0  0  0  0  0
   14.0110    7.0505    1.2531 C   0  0  0  0  0  0  0  0  0  0  0  0
   14.7022    8.8917    2.7697 N   0  0  0  0  0  4  0  0  0  0  0  0
   11.8489    9.7817    3.1205 C   0  0  0  0  0  0  0  0  0  0  0  0
   10.3845   10.0221    3.4799 C   0  0  0  0  0  0  0  0  0  0  0  0
    6.3738   12.3961    2.7325 C   0  0  0  0  0  0  0  0  0  0  0  0
    7.5853   13.1487    2.7860 N   0  0  0  0  0  0  0  0  0  0  0  0
    5.7637   12.2799    1.6344 O   0  0  0  0  0  0  0  0  0  0  0  0
    4.0324   11.8490    5.2147 H   0  0  0  0  0  0  0  0  0  0  0  0
    4.3997   13.3625    4.3157 H   0  0  0  0  0  0  0  0  0  0  0  0
    3.7153   11.9361    3.4391 H   0  0  0  0  0  0  0  0  0  0  0  0
    6.4495   12.0531    4.8510 H   0  0  0  0  0  0  0  0  0  0  0  0
    5.3133    9.7864    4.7700 H   0  0  0  0  0  0  0  0  0  0  0  0
    5.3215    9.8509    2.9877 H   0  0  0  0  0  0  0  0  0  0  0  0
    7.7088    9.5720    4.8539 H   0  0  0  0  0  0  0  0  0  0  0  0
    9.7210    9.5631    1.6087 H   0  0  0  0  0  0  0  0  0  0  0  0
    9.5598    7.2746    3.5411 H   0  0  0  0  0  0  0  0  0  0  0  0
    9.0536    7.2376    1.8201 H   0  0  0  0  0  0  0  0  0  0  0  0
   11.2133    7.5915    1.0333 H   0  0  0  0  0  0  0  0  0  0  0  0
   11.4046    6.3677    2.3244 H   0  0  0  0  0  0  0  0  0  0  0  0
   12.4677    7.8415    3.7468 H   0  0  0  0  0  0  0  0  0  0  0  0
   13.4366    9.0285    1.1408 H   0  0  0  0  0  0  0  0  0  0  0  0
   14.1164    6.2177    1.9798 H   0  0  0  0  0  0  0  0  0  0  0  0
   13.2672    6.7645    0.4814 H   0  0  0  0  0  0  0  0  0  0  0  0
   14.9828    7.1926    0.7338 H   0  0  0  0  0  0  0  0  0  0  0  0
   14.8376    8.3414    3.6486 H   0  0  0  0  0  0  0  0  0  0  0  0
   14.5199    9.8922    3.0078 H   0  0  0  0  0  0  0  0  0  0  0  0
   15.5917    8.8671    2.2199 H   0  0  0  0  0  0  0  0  0  0  0  0
   12.4693   10.1530    3.9652 H   0  0  0  0  0  0  0  0  0  0  0  0
   12.0661   10.4414    2.2515 H   0  0  0  0  0  0  0  0  0  0  0  0
   10.2298    9.7380    4.5436 H   0  0  0  0  0  0  0  0  0  0  0  0
   10.1474   11.1054    3.3830 H   0  0  0  0  0  0  0  0  0  0  0  0
    8.1186   13.2465    3.6782 H   0  0  0  0  0  0  0  0  0  0  0  0
    7.9639   13.5967    1.9222 H   0  0  0  0  0  0  0  0  0  0  0  0
  1  2  1  0
  2  3  1  0
  3  4  1  0
  4  5  1  0
  5  6  2  0
  5  7  1  0
  7  8  1  0
  8  9  1  0
  9 10  1  0
 10 11  1  0
 11 12  1  0
 11 13  1  0
 10 14  1  0
 14 15  1  0
  2 16  1  0
 16 17  1  0
 16 18  2  0
 15  7  1  0
  1 19  1  0
  1 20  1  0
  1 21  1  0
  2 22  1  0
  3 23  1  0
  3 24  1  0
  4 25  1  0
  7 26  1  0
  8 27  1  0
  8 28  1  0
  9 29  1  0
  9 30  1  0
 10 31  1  0
 11 32  1  0
 12 33  1  0
 12 34  1  0
 12 35  1  0
 13 36  1  0
 13 37  1  0
 13 38  1  0
 14 39  1  0
 14 40  1  0
 15 41  1  0
 15 42  1  0
 17 43  1  0
 17 44  1  0
M  CHG  1  13   1
M  END
>  <EmbedRMS>  (189) 
0.29404078451179205

$$$$

     RDKit          3D

 44 44  0  0  0  0  0  0  0  0999 V2000
   14.0121    7.0506    1.2525 C   0  0  0  0  0  0  0  0  0  0  0  0
   13.6016    8.3243    1.9896 C   0  0  0  0  0  0  0  0  0  0  0  0
   14.7037    8.8917    2.7690 N   0  0  0  0  0  4  0  0  0  0  0  0
   12.2631    8.3265    2.7679 C   0  0  0  0  0  0  0  0  0  0  0  0
   11.1814    7.4387    2.1356 C   0  0  0  0  0  0  0  0  0  0  0  0
    9.7474    7.7242    2.5476 C   0  0  0  0  0  0  0  0  0  0  0  0
    9.4540    9.1994    2.6430 C   0  0  0  0  0  0  0  0  0  0  0  0
    7.9938    9.5221    2.7258 C   0  0  0  0  0  0  0  0  0  0  0  0
    7.4350    9.6816    1.6176 O   0  0  0  0  0  0  0  0  0  0  0  0
    7.2188    9.6578    3.9295 N   0  0  0  0  0  0  0  0  0  0  0  0
    5.8102   10.0779    3.8664 C   0  0  0  0  0  0  0  0  0  0  0  0
    4.9393    8.9582    3.3431 C   0  0  0  0  0  0  0  0  0  0  0  0
    4.7851    7.9458    4.0801 O   0  0  0  0  0  0  0  0  0  0  0  0
    4.2938    8.9996    2.0460 N   0  0  0  0  0  0  0  0  0  0  0  0
    3.5293    7.8309    1.5965 C   0  0  0  0  0  0  0  0  0  0  0  0
    4.3152   10.2043    1.2080 C   0  0  0  0  0  0  0  0  0  0  0  0
   10.3882   10.0185    3.4877 C   0  0  0  0  0  0  0  0  0  0  0  0
   11.8515    9.7801    3.1235 C   0  0  0  0  0  0  0  0  0  0  0  0
   13.2678    6.7644    0.4814 H   0  0  0  0  0  0  0  0  0  0  0  0
   14.1184    6.2177    1.9790 H   0  0  0  0  0  0  0  0  0  0  0  0
   14.9834    7.1931    0.7324 H   0  0  0  0  0  0  0  0  0  0  0  0
   13.4368    9.0285    1.1410 H   0  0  0  0  0  0  0  0  0  0  0  0
   14.5220    9.8926    3.0062 H   0  0  0  0  0  0  0  0  0  0  0  0
   15.5932    8.8664    2.2191 H   0  0  0  0  0  0  0  0  0  0  0  0
   14.8392    8.3422    3.6484 H   0  0  0  0  0  0  0  0  0  0  0  0
   12.4712    7.8394    3.7472 H   0  0  0  0  0  0  0  0  0  0  0  0
   11.4088    6.3660    2.3234 H   0  0  0  0  0  0  0  0  0  0  0  0
   11.2137    7.5918    1.0347 H   0  0  0  0  0  0  0  0  0  0  0  0
    9.0561    7.2353    1.8247 H   0  0  0  0  0  0  0  0  0  0  0  0
    9.5656    7.2672    3.5449 H   0  0  0  0  0  0  0  0  0  0  0  0
    9.7292    9.5585    1.6197 H   0  0  0  0  0  0  0  0  0  0  0  0
    7.6736    9.5047    4.8572 H   0  0  0  0  0  0  0  0  0  0  0  0
    5.7252   11.0043    3.2641 H   0  0  0  0  0  0  0  0  0  0  0  0
    5.4653   10.3346    4.8910 H   0  0  0  0  0  0  0  0  0  0  0  0
    2.7010    7.6288    2.3080 H   0  0  0  0  0  0  0  0  0  0  0  0
    3.0918    7.9792    0.5870 H   0  0  0  0  0  0  0  0  0  0  0  0
    4.1965    6.9442    1.5522 H   0  0  0  0  0  0  0  0  0  0  0  0
    5.3364   10.4398    0.8665 H   0  0  0  0  0  0  0  0  0  0  0  0
    3.6863   10.0864    0.3010 H   0  0  0  0  0  0  0  0  0  0  0  0
    3.9060   11.0645    1.7784 H   0  0  0  0  0  0  0  0  0  0  0  0
   10.1496   11.1014    3.3914 H   0  0  0  0  0  0  0  0  0  0  0  0
   10.2360    9.7336    4.5515 H   0  0  0  0  0  0  0  0  0  0  0  0
   12.0658   10.4404    2.2542 H   0  0  0  0  0  0  0  0  0  0  0  0
   12.4738   10.1512    3.9668 H   0  0  0  0  0  0  0  0  0  0  0  0
  1  2  1  0
  2  3  1  0
  2  4  1  0
  4  5  1  0
  5  6  1  0
  6  7  1  0
  7  8  1  0
  8  9  2  0
  8 10  1  0
 10 11  1  0
 11 12  1  0
 12 13  2  0
 12 14  1  0
 14 15  1  0
 14 16  1  0
  7 17  1  0
 17 18  1  0
 18  4  1  0
  1 19  1  0
  1 20  1  0
  1 21  1  0
  2 22  1  0
  3 23  1  0
  3 24  1  0
  3 25  1  0
  4 26  1  0
  5 27  1  0
  5 28  1  0
  6 29  1  0
  6 30  1  0
  7 31  1  0
 10 32  1  0
 11 33  1  0
 11 34  1  0
 15 35  1  0
 15 36  1  0
 15 37  1  0
 16 38  1  0
 16 39  1  0
 16 40  1  0
 17 41  1  0
 17 42  1  0
 18 43  1  0
 18 44  1  0
M  CHG  1   3   1
M  END
>  <EmbedRMS>  (190) 
0.2932026556361357

$$$$

     RDKit          3D

 44 44  0  0  0  0  0  0  0  0999 V2000
   14.0121    7.0506    1.2525 C   0  0  0  0  0  0  0  0  0  0  0  0
   13.6016    8.3243    1.9896 C   0  0  0  0  0  0  0  0  0  0  0  0
   14.7037    8.8917    2.7690 N   0  0  0  0  0  4  0  0  0  0  0  0
   12.2631    8.3265    2.7679 C   0  0  0  0  0  0  0  0  0  0  0  0
   11.1814    7.4387    2.1356 C   0  0  0  0  0  0  0  0  0  0  0  0
    9.7474    7.7242    2.5476 C   0  0  0  0  0  0  0  0  0  0  0  0
    9.4540    9.1994    2.6430 C   0  0  0  0  0  0  0  0  0  0  0  0
    7.9938    9.5221    2.7258 C   0  0  0  0  0  0  0  0  0  0  0  0
    7.4350    9.6816    1.6176 O   0  0  0  0  0  0  0  0  0  0  0  0
    7.2188    9.6578    3.9295 N   0  0  0  0  0  0  0  0  0  0  0  0
    5.8102   10.0779    3.8664 C   0  0  0  0  0  0  0  0  0  0  0  0
    4.9393    8.9582    3.3431 C   0  0  0  0  0  0  0  0  0  0  0  0
    4.7851    7.9458    4.0801 O   0  0  0  0  0  0  0  0  0  0  0  0
    4.2938    8.9996    2.0460 N   0  0  0  0  0  0  0  0  0  0  0  0
    3.5293    7.8309    1.5965 C   0  0  0  0  0  0  0  0  0  0  0  0
    4.3152   10.2043    1.2080 C   0  0  0  0  0  0  0  0  0  0  0  0
   10.3882   10.0185    3.4877 C   0  0  0  0  0  0  0  0  0  0  0  0
   11.8515    9.7801    3.1235 C   0  0  0  0  0  0  0  0  0  0  0  0
   13.2678    6.7644    0.4814 H   0  0  0  0  0  0  0  0  0  0  0  0
   14.1184    6.2177    1.9790 H   0  0  0  0  0  0  0  0  0  0  0  0
   14.9834    7.1931    0.7324 H   0  0  0  0  0  0  0  0  0  0  0  0
   13.4368    9.0285    1.1410 H   0  0  0  0  0  0  0  0  0  0  0  0
   14.5220    9.8926    3.0062 H   0  0  0  0  0  0  0  0  0  0  0  0
   15.5932    8.8664    2.2191 H   0  0  0  0  0  0  0  0  0  0  0  0
   14.8392    8.3422    3.6484 H   0  0  0  0  0  0  0  0  0  0  0  0
   12.4712    7.8394    3.7472 H   0  0  0  0  0  0  0  0  0  0  0  0
   11.4088    6.3660    2.3234 H   0  0  0  0  0  0  0  0  0  0  0  0
   11.2137    7.5918    1.0347 H   0  0  0  0  0  0  0  0  0  0  0  0
    9.0561    7.2353    1.8247 H   0  0  0  0  0  0  0  0  0  0  0  0
    9.5656    7.2672    3.5449 H   0  0  0  0  0  0  0  0  0  0  0  0
    9.7292    9.5585    1.6197 H   0  0  0  0  0  0  0  0  0  0  0  0
    7.6736    9.5047    4.8572 H   0  0  0  0  0  0  0  0  0  0  0  0
    5.7252   11.0043    3.2641 H   0  0  0  0  0  0  0  0  0  0  0  0
    5.4653   10.3346    4.8910 H   0  0  0  0  0  0  0  0  0  0  0  0
    2.7010    7.6288    2.3080 H   0  0  0  0  0  0  0  0  0  0  0  0
    3.0918    7.9792    0.5870 H   0  0  0  0  0  0  0  0  0  0  0  0
    4.1965    6.9442    1.5522 H   0  0  0  0  0  0  0  0  0  0  0  0
    5.3364   10.4398    0.8665 H   0  0  0  0  0  0  0  0  0  0  0  0
    3.6863   10.0864    0.3010 H   0  0  0  0  0  0  0  0  0  0  0  0
    3.9060   11.0645    1.7784 H   0  0  0  0  0  0  0  0  0  0  0  0
   10.1496   11.1014    3.3914 H   0  0  0  0  0  0  0  0  0  0  0  0
   10.2360    9.7336    4.5515 H   0  0  0  0  0  0  0  0  0  0  0  0
   12.0658   10.4404    2.2542 H   0  0  0  0  0  0  0  0  0  0  0  0
   12.4738   10.1512    3.9668 H   0  0  0  0  0  0  0  0  0  0  0  0
  1  2  1  0
  2  3  1  0
  2  4  1  0
  4  5  1  0
  5  6  1  0
  6  7  1  0
  7  8  1  0
  8  9  2  0
  8 10  1  0
 10 11  1  0
 11 12  1  0
 12 13  2  0
 12 14  1  0
 14 15  1  0
 14 16  1  0
  7 17  1  0
 17 18  1  0
 18  4  1  0
  1 19  1  0
  1 20  1  0
  1 21  1  0
  2 22  1  0
  3 23  1  0
  3 24  1  0
  3 25  1  0
  4 26  1  0
  5 27  1  0
  5 28  1  0
  6 29  1  0
  6 30  1  0
  7 31  1  0
 10 32  1  0
 11 33  1  0
 11 34  1  0
 15 35  1  0
 15 36  1  0
 15 37  1  0
 16 38  1  0
 16 39  1  0
 16 40  1  0
 17 41  1  0
 17 42  1  0
 18 43  1  0
 18 44  1  0
M  CHG  1   3   1
M  END
>  <EmbedRMS>  (191) 
0.2932026556361357

$$$$

     RDKit          3D

 44 44  0  0  0  0  0  0  0  0999 V2000
    4.4064   12.2531    4.2498 C   0  0  0  0  0  0  0  0  0  0  0  0
    5.8266   11.7486    3.9808 C   0  0  0  0  0  0  0  0  0  0  0  0
    5.8548   10.2090    3.8957 C   0  0  0  0  0  0  0  0  0  0  0  0
    7.2354    9.7014    3.9320 N   0  0  0  0  0  0  0  0  0  0  0  0
    7.9881    9.5295    2.7199 C   0  0  0  0  0  0  0  0  0  0  0  0
    7.4116    9.6735    1.6153 O   0  0  0  0  0  0  0  0  0  0  0  0
    9.4496    9.2045    2.6326 C   0  0  0  0  0  0  0  0  0  0  0  0
    9.7437    7.7284    2.5428 C   0  0  0  0  0  0  0  0  0  0  0  0
   11.1788    7.4404    2.1344 C   0  0  0  0  0  0  0  0  0  0  0  0
   12.2608    8.3279    2.7668 C   0  0  0  0  0  0  0  0  0  0  0  0
   13.6004    8.3244    1.9897 C   0  0  0  0  0  0  0  0  0  0  0  0
   14.0110    7.0505    1.2531 C   0  0  0  0  0  0  0  0  0  0  0  0
   14.7022    8.8917    2.7697 N   0  0  0  0  0  4  0  0  0  0  0  0
   11.8489    9.7817    3.1205 C   0  0  0  0  0  0  0  0  0  0  0  0
   10.3845   10.0221    3.4799 C   0  0  0  0  0  0  0  0  0  0  0  0
    6.3738   12.3961    2.7325 C   0  0  0  0  0  0  0  0  0  0  0  0
    7.5853   13.1487    2.7860 N   0  0  0  0  0  0  0  0  0  0  0  0
    5.7637   12.2799    1.6344 O   0  0  0  0  0  0  0  0  0  0  0  0
    4.0324   11.8490    5.2147 H   0  0  0  0  0  0  0  0  0  0  0  0
    4.3997   13.3625    4.3157 H   0  0  0  0  0  0  0  0  0  0  0  0
    3.7153   11.9361    3.4391 H   0  0  0  0  0  0  0  0  0  0  0  0
    6.4495   12.0531    4.8510 H   0  0  0  0  0  0  0  0  0  0  0  0
    5.3133    9.7864    4.7700 H   0  0  0  0  0  0  0  0  0  0  0  0
    5.3215    9.8509    2.9877 H   0  0  0  0  0  0  0  0  0  0  0  0
    7.7088    9.5720    4.8539 H   0  0  0  0  0  0  0  0  0  0  0  0
    9.7210    9.5631    1.6087 H   0  0  0  0  0  0  0  0  0  0  0  0
    9.5598    7.2746    3.5411 H   0  0  0  0  0  0  0  0  0  0  0  0
    9.0536    7.2376    1.8201 H   0  0  0  0  0  0  0  0  0  0  0  0
   11.2133    7.5915    1.0333 H   0  0  0  0  0  0  0  0  0  0  0  0
   11.4046    6.3677    2.3244 H   0  0  0  0  0  0  0  0  0  0  0  0
   12.4677    7.8415    3.7468 H   0  0  0  0  0  0  0  0  0  0  0  0
   13.4366    9.0285    1.1408 H   0  0  0  0  0  0  0  0  0  0  0  0
   14.1164    6.2177    1.9798 H   0  0  0  0  0  0  0  0  0  0  0  0
   13.2672    6.7645    0.4814 H   0  0  0  0  0  0  0  0  0  0  0  0
   14.9828    7.1926    0.7338 H   0  0  0  0  0  0  0  0  0  0  0  0
   14.8376    8.3414    3.6486 H   0  0  0  0  0  0  0  0  0  0  0  0
   14.5199    9.8922    3.0078 H   0  0  0  0  0  0  0  0  0  0  0  0
   15.5917    8.8671    2.2199 H   0  0  0  0  0  0  0  0  0  0  0  0
   12.4693   10.1530    3.9652 H   0  0  0  0  0  0  0  0  0  0  0  0
   12.0661   10.4414    2.2515 H   0  0  0  0  0  0  0  0  0  0  0  0
   10.2298    9.7380    4.5436 H   0  0  0  0  0  0  0  0  0  0  0  0
   10.1474   11.1054    3.3830 H   0  0  0  0  0  0  0  0  0  0  0  0
    8.1186   13.2465    3.6782 H   0  0  0  0  0  0  0  0  0  0  0  0
    7.9639   13.5967    1.9222 H   0  0  0  0  0  0  0  0  0  0  0  0
  1  2  1  0
  2  3  1  0
  3  4  1  0
  4  5  1  0
  5  6  2  0
  5  7  1  0
  7  8  1  0
  8  9  1  0
  9 10  1  0
 10 11  1  0
 11 12  1  0
 11 13  1  0
 10 14  1  0
 14 15  1  0
  2 16  1  0
 16 17  1  0
 16 18  2  0
 15  7  1  0
  1 19  1  0
  1 20  1  0
  1 21  1  0
  2 22  1  0
  3 23  1  0
  3 24  1  0
  4 25  1  0
  7 26  1  0
  8 27  1  0
  8 28  1  0
  9 29  1  0
  9 30  1  0
 10 31  1  0
 11 32  1  0
 12 33  1  0
 12 34  1  0
 12 35  1  0
 13 36  1  0
 13 37  1  0
 13 38  1  0
 14 39  1  0
 14 40  1  0
 15 41  1  0
 15 42  1  0
 17 43  1  0
 17 44  1  0
M  CHG  1  13   1
M  END
>  <EmbedRMS>  (192) 
0.29404078451179205

$$$$

     RDKit          3D

 47 47  0  0  0  0  0  0  0  0999 V2000
    3.5174   11.9052    2.6876 C   0  0  0  0  0  0  0  0  0  0  0  0
    4.2799   12.1967    3.9850 C   0  0  0  0  0  0  0  0  0  0  0  0
    5.7623   11.7300    3.9907 C   0  0  0  0  0  0  0  0  0  0  0  0
    6.5470   12.4213    2.8540 C   0  0  0  0  0  0  0  0  0  0  0  0
    6.3366   12.0886    5.2241 O   0  0  0  0  0  0  0  0  0  0  0  0
    5.8484   10.1846    3.8797 C   0  0  0  0  0  0  0  0  0  0  0  0
    7.2414    9.7079    3.9331 N   0  0  0  0  0  0  0  0  0  0  0  0
    7.9937    9.5292    2.7200 C   0  0  0  0  0  0  0  0  0  0  0  0
    7.4137    9.6650    1.6156 O   0  0  0  0  0  0  0  0  0  0  0  0
    9.4539    9.2022    2.6244 C   0  0  0  0  0  0  0  0  0  0  0  0
    9.7386    7.7225    2.5357 C   0  0  0  0  0  0  0  0  0  0  0  0
   11.1765    7.4148    2.1499 C   0  0  0  0  0  0  0  0  0  0  0  0
   12.2308    8.2934    2.8213 C   0  0  0  0  0  0  0  0  0  0  0  0
   13.7087    7.9212    2.4414 C   0  0  0  0  0  0  0  0  0  0  0  0
   13.9242    7.3285    1.0385 C   0  0  0  0  0  0  0  0  0  0  0  0
   14.6433    9.0272    2.6701 N   0  0  0  0  0  4  0  0  0  0  0  0
   11.8799    9.7843    2.9968 C   0  0  0  0  0  0  0  0  0  0  0  0
   10.4249   10.0506    3.4141 C   0  0  0  0  0  0  0  0  0  0  0  0
    3.9961   12.3953    1.8159 H   0  0  0  0  0  0  0  0  0  0  0  0
    2.4895   12.3156    2.7767 H   0  0  0  0  0  0  0  0  0  0  0  0
    3.4218   10.8162    2.5065 H   0  0  0  0  0  0  0  0  0  0  0  0
    3.7399   11.7111    4.8272 H   0  0  0  0  0  0  0  0  0  0  0  0
    4.2372   13.2932    4.1663 H   0  0  0  0  0  0  0  0  0  0  0  0
    7.6394   12.2803    2.9958 H   0  0  0  0  0  0  0  0  0  0  0  0
    6.2670   12.0129    1.8612 H   0  0  0  0  0  0  0  0  0  0  0  0
    6.3509   13.5150    2.8528 H   0  0  0  0  0  0  0  0  0  0  0  0
    6.3176   13.0790    5.3014 H   0  0  0  0  0  0  0  0  0  0  0  0
    5.3615    9.8174    2.9534 H   0  0  0  0  0  0  0  0  0  0  0  0
    5.2917    9.7289    4.7274 H   0  0  0  0  0  0  0  0  0  0  0  0
    7.7198    9.6108    4.8564 H   0  0  0  0  0  0  0  0  0  0  0  0
    9.7046    9.5353    1.5864 H   0  0  0  0  0  0  0  0  0  0  0  0
    9.5349    7.2717    3.5316 H   0  0  0  0  0  0  0  0  0  0  0  0
    9.0542    7.2372    1.8040 H   0  0  0  0  0  0  0  0  0  0  0  0
   11.2492    7.5625    1.0508 H   0  0  0  0  0  0  0  0  0  0  0  0
   11.3833    6.3417    2.3592 H   0  0  0  0  0  0  0  0  0  0  0  0
   12.1641    7.9504    3.8811 H   0  0  0  0  0  0  0  0  0  0  0  0
   14.0126    7.0972    3.1301 H   0  0  0  0  0  0  0  0  0  0  0  0
   13.3803    6.3674    0.9250 H   0  0  0  0  0  0  0  0  0  0  0  0
   13.5740    8.0447    0.2654 H   0  0  0  0  0  0  0  0  0  0  0  0
   15.0013    7.1193    0.8655 H   0  0  0  0  0  0  0  0  0  0  0  0
   15.6242    8.7095    2.4927 H   0  0  0  0  0  0  0  0  0  0  0  0
   14.4342    9.8277    2.0306 H   0  0  0  0  0  0  0  0  0  0  0  0
   14.5989    9.3373    3.6675 H   0  0  0  0  0  0  0  0  0  0  0  0
   12.0591   10.2955    2.0262 H   0  0  0  0  0  0  0  0  0  0  0  0
   12.5384   10.2610    3.7534 H   0  0  0  0  0  0  0  0  0  0  0  0
   10.1921   11.1301    3.2792 H   0  0  0  0  0  0  0  0  0  0  0  0
   10.3088    9.8090    4.4929 H   0  0  0  0  0  0  0  0  0  0  0  0
  1  2  1  0
  2  3  1  0
  3  4  1  0
  3  5  1  0
  3  6  1  0
  6  7  1  0
  7  8  1  0
  8  9  2  0
  8 10  1  0
 10 11  1  0
 11 12  1  0
 12 13  1  0
 13 14  1  0
 14 15  1  0
 14 16  1  0
 13 17  1  0
 17 18  1  0
 18 10  1  0
  1 19  1  0
  1 20  1  0
  1 21  1  0
  2 22  1  0
  2 23  1  0
  4 24  1  0
  4 25  1  0
  4 26  1  0
  5 27  1  0
  6 28  1  0
  6 29  1  0
  7 30  1  0
 10 31  1  0
 11 32  1  0
 11 33  1  0
 12 34  1  0
 12 35  1  0
 13 36  1  0
 14 37  1  0
 15 38  1  0
 15 39  1  0
 15 40  1  0
 16 41  1  0
 16 42  1  0
 16 43  1  0
 17 44  1  0
 17 45  1  0
 18 46  1  0
 18 47  1  0
M  CHG  1  16   1
M  END
>  <EmbedRMS>  (193) 
0.26254629839416405

$$$$

     RDKit          3D

 44 44  0  0  0  0  0  0  0  0999 V2000
   14.0121    7.0506    1.2525 C   0  0  0  0  0  0  0  0  0  0  0  0
   13.6016    8.3243    1.9896 C   0  0  0  0  0  0  0  0  0  0  0  0
   14.7037    8.8917    2.7690 N   0  0  0  0  0  4  0  0  0  0  0  0
   12.2631    8.3265    2.7679 C   0  0  0  0  0  0  0  0  0  0  0  0
   11.1814    7.4387    2.1356 C   0  0  0  0  0  0  0  0  0  0  0  0
    9.7474    7.7242    2.5476 C   0  0  0  0  0  0  0  0  0  0  0  0
    9.4540    9.1994    2.6430 C   0  0  0  0  0  0  0  0  0  0  0  0
    7.9938    9.5221    2.7258 C   0  0  0  0  0  0  0  0  0  0  0  0
    7.4350    9.6816    1.6176 O   0  0  0  0  0  0  0  0  0  0  0  0
    7.2188    9.6578    3.9295 N   0  0  0  0  0  0  0  0  0  0  0  0
    5.8102   10.0779    3.8664 C   0  0  0  0  0  0  0  0  0  0  0  0
    4.9393    8.9582    3.3431 C   0  0  0  0  0  0  0  0  0  0  0  0
    4.7851    7.9458    4.0801 O   0  0  0  0  0  0  0  0  0  0  0  0
    4.2938    8.9996    2.0460 N   0  0  0  0  0  0  0  0  0  0  0  0
    3.5293    7.8309    1.5965 C   0  0  0  0  0  0  0  0  0  0  0  0
    4.3152   10.2043    1.2080 C   0  0  0  0  0  0  0  0  0  0  0  0
   10.3882   10.0185    3.4877 C   0  0  0  0  0  0  0  0  0  0  0  0
   11.8515    9.7801    3.1235 C   0  0  0  0  0  0  0  0  0  0  0  0
   13.2678    6.7644    0.4814 H   0  0  0  0  0  0  0  0  0  0  0  0
   14.1184    6.2177    1.9790 H   0  0  0  0  0  0  0  0  0  0  0  0
   14.9834    7.1931    0.7324 H   0  0  0  0  0  0  0  0  0  0  0  0
   13.4368    9.0285    1.1410 H   0  0  0  0  0  0  0  0  0  0  0  0
   14.5220    9.8926    3.0062 H   0  0  0  0  0  0  0  0  0  0  0  0
   15.5932    8.8664    2.2191 H   0  0  0  0  0  0  0  0  0  0  0  0
   14.8392    8.3422    3.6484 H   0  0  0  0  0  0  0  0  0  0  0  0
   12.4712    7.8394    3.7472 H   0  0  0  0  0  0  0  0  0  0  0  0
   11.4088    6.3660    2.3234 H   0  0  0  0  0  0  0  0  0  0  0  0
   11.2137    7.5918    1.0347 H   0  0  0  0  0  0  0  0  0  0  0  0
    9.0561    7.2353    1.8247 H   0  0  0  0  0  0  0  0  0  0  0  0
    9.5656    7.2672    3.5449 H   0  0  0  0  0  0  0  0  0  0  0  0
    9.7292    9.5585    1.6197 H   0  0  0  0  0  0  0  0  0  0  0  0
    7.6736    9.5047    4.8572 H   0  0  0  0  0  0  0  0  0  0  0  0
    5.7252   11.0043    3.2641 H   0  0  0  0  0  0  0  0  0  0  0  0
    5.4653   10.3346    4.8910 H   0  0  0  0  0  0  0  0  0  0  0  0
    2.7010    7.6288    2.3080 H   0  0  0  0  0  0  0  0  0  0  0  0
    3.0918    7.9792    0.5870 H   0  0  0  0  0  0  0  0  0  0  0  0
    4.1965    6.9442    1.5522 H   0  0  0  0  0  0  0  0  0  0  0  0
    5.3364   10.4398    0.8665 H   0  0  0  0  0  0  0  0  0  0  0  0
    3.6863   10.0864    0.3010 H   0  0  0  0  0  0  0  0  0  0  0  0
    3.9060   11.0645    1.7784 H   0  0  0  0  0  0  0  0  0  0  0  0
   10.1496   11.1014    3.3914 H   0  0  0  0  0  0  0  0  0  0  0  0
   10.2360    9.7336    4.5515 H   0  0  0  0  0  0  0  0  0  0  0  0
   12.0658   10.4404    2.2542 H   0  0  0  0  0  0  0  0  0  0  0  0
   12.4738   10.1512    3.9668 H   0  0  0  0  0  0  0  0  0  0  0  0
  1  2  1  0
  2  3  1  0
  2  4  1  0
  4  5  1  0
  5  6  1  0
  6  7  1  0
  7  8  1  0
  8  9  2  0
  8 10  1  0
 10 11  1  0
 11 12  1  0
 12 13  2  0
 12 14  1  0
 14 15  1  0
 14 16  1  0
  7 17  1  0
 17 18  1  0
 18  4  1  0
  1 19  1  0
  1 20  1  0
  1 21  1  0
  2 22  1  0
  3 23  1  0
  3 24  1  0
  3 25  1  0
  4 26  1  0
  5 27  1  0
  5 28  1  0
  6 29  1  0
  6 30  1  0
  7 31  1  0
 10 32  1  0
 11 33  1  0
 11 34  1  0
 15 35  1  0
 15 36  1  0
 15 37  1  0
 16 38  1  0
 16 39  1  0
 16 40  1  0
 17 41  1  0
 17 42  1  0
 18 43  1  0
 18 44  1  0
M  CHG  1   3   1
M  END
>  <EmbedRMS>  (194) 
0.2932026556361357

$$$$

     RDKit          3D

 44 44  0  0  0  0  0  0  0  0999 V2000
   14.0121    7.0506    1.2525 C   0  0  0  0  0  0  0  0  0  0  0  0
   13.6016    8.3243    1.9896 C   0  0  0  0  0  0  0  0  0  0  0  0
   14.7037    8.8917    2.7690 N   0  0  0  0  0  4  0  0  0  0  0  0
   12.2631    8.3265    2.7679 C   0  0  0  0  0  0  0  0  0  0  0  0
   11.1814    7.4387    2.1356 C   0  0  0  0  0  0  0  0  0  0  0  0
    9.7474    7.7242    2.5476 C   0  0  0  0  0  0  0  0  0  0  0  0
    9.4540    9.1994    2.6430 C   0  0  0  0  0  0  0  0  0  0  0  0
    7.9938    9.5221    2.7258 C   0  0  0  0  0  0  0  0  0  0  0  0
    7.4350    9.6816    1.6176 O   0  0  0  0  0  0  0  0  0  0  0  0
    7.2188    9.6578    3.9295 N   0  0  0  0  0  0  0  0  0  0  0  0
    5.8102   10.0779    3.8664 C   0  0  0  0  0  0  0  0  0  0  0  0
    4.9393    8.9582    3.3431 C   0  0  0  0  0  0  0  0  0  0  0  0
    4.7851    7.9458    4.0801 O   0  0  0  0  0  0  0  0  0  0  0  0
    4.2938    8.9996    2.0460 N   0  0  0  0  0  0  0  0  0  0  0  0
    3.5293    7.8309    1.5965 C   0  0  0  0  0  0  0  0  0  0  0  0
    4.3152   10.2043    1.2080 C   0  0  0  0  0  0  0  0  0  0  0  0
   10.3882   10.0185    3.4877 C   0  0  0  0  0  0  0  0  0  0  0  0
   11.8515    9.7801    3.1235 C   0  0  0  0  0  0  0  0  0  0  0  0
   13.2678    6.7644    0.4814 H   0  0  0  0  0  0  0  0  0  0  0  0
   14.1184    6.2177    1.9790 H   0  0  0  0  0  0  0  0  0  0  0  0
   14.9834    7.1931    0.7324 H   0  0  0  0  0  0  0  0  0  0  0  0
   13.4368    9.0285    1.1410 H   0  0  0  0  0  0  0  0  0  0  0  0
   14.5220    9.8926    3.0062 H   0  0  0  0  0  0  0  0  0  0  0  0
   15.5932    8.8664    2.2191 H   0  0  0  0  0  0  0  0  0  0  0  0
   14.8392    8.3422    3.6484 H   0  0  0  0  0  0  0  0  0  0  0  0
   12.4712    7.8394    3.7472 H   0  0  0  0  0  0  0  0  0  0  0  0
   11.4088    6.3660    2.3234 H   0  0  0  0  0  0  0  0  0  0  0  0
   11.2137    7.5918    1.0347 H   0  0  0  0  0  0  0  0  0  0  0  0
    9.0561    7.2353    1.8247 H   0  0  0  0  0  0  0  0  0  0  0  0
    9.5656    7.2672    3.5449 H   0  0  0  0  0  0  0  0  0  0  0  0
    9.7292    9.5585    1.6197 H   0  0  0  0  0  0  0  0  0  0  0  0
    7.6736    9.5047    4.8572 H   0  0  0  0  0  0  0  0  0  0  0  0
    5.7252   11.0043    3.2641 H   0  0  0  0  0  0  0  0  0  0  0  0
    5.4653   10.3346    4.8910 H   0  0  0  0  0  0  0  0  0  0  0  0
    2.7010    7.6288    2.3080 H   0  0  0  0  0  0  0  0  0  0  0  0
    3.0918    7.9792    0.5870 H   0  0  0  0  0  0  0  0  0  0  0  0
    4.1965    6.9442    1.5522 H   0  0  0  0  0  0  0  0  0  0  0  0
    5.3364   10.4398    0.8665 H   0  0  0  0  0  0  0  0  0  0  0  0
    3.6863   10.0864    0.3010 H   0  0  0  0  0  0  0  0  0  0  0  0
    3.9060   11.0645    1.7784 H   0  0  0  0  0  0  0  0  0  0  0  0
   10.1496   11.1014    3.3914 H   0  0  0  0  0  0  0  0  0  0  0  0
   10.2360    9.7336    4.5515 H   0  0  0  0  0  0  0  0  0  0  0  0
   12.0658   10.4404    2.2542 H   0  0  0  0  0  0  0  0  0  0  0  0
   12.4738   10.1512    3.9668 H   0  0  0  0  0  0  0  0  0  0  0  0
  1  2  1  0
  2  3  1  0
  2  4  1  0
  4  5  1  0
  5  6  1  0
  6  7  1  0
  7  8  1  0
  8  9  2  0
  8 10  1  0
 10 11  1  0
 11 12  1  0
 12 13  2  0
 12 14  1  0
 14 15  1  0
 14 16  1  0
  7 17  1  0
 17 18  1  0
 18  4  1  0
  1 19  1  0
  1 20  1  0
  1 21  1  0
  2 22  1  0
  3 23  1  0
  3 24  1  0
  3 25  1  0
  4 26  1  0
  5 27  1  0
  5 28  1  0
  6 29  1  0
  6 30  1  0
  7 31  1  0
 10 32  1  0
 11 33  1  0
 11 34  1  0
 15 35  1  0
 15 36  1  0
 15 37  1  0
 16 38  1  0
 16 39  1  0
 16 40  1  0
 17 41  1  0
 17 42  1  0
 18 43  1  0
 18 44  1  0
M  CHG  1   3   1
M  END
>  <EmbedRMS>  (195) 
0.2932026556361357

$$$$

     RDKit          3D

 44 44  0  0  0  0  0  0  0  0999 V2000
   14.0121    7.0506    1.2525 C   0  0  0  0  0  0  0  0  0  0  0  0
   13.6016    8.3243    1.9896 C   0  0  0  0  0  0  0  0  0  0  0  0
   14.7037    8.8917    2.7690 N   0  0  0  0  0  4  0  0  0  0  0  0
   12.2631    8.3265    2.7679 C   0  0  0  0  0  0  0  0  0  0  0  0
   11.1814    7.4387    2.1356 C   0  0  0  0  0  0  0  0  0  0  0  0
    9.7474    7.7242    2.5476 C   0  0  0  0  0  0  0  0  0  0  0  0
    9.4540    9.1994    2.6430 C   0  0  0  0  0  0  0  0  0  0  0  0
    7.9938    9.5221    2.7258 C   0  0  0  0  0  0  0  0  0  0  0  0
    7.4350    9.6816    1.6176 O   0  0  0  0  0  0  0  0  0  0  0  0
    7.2188    9.6578    3.9295 N   0  0  0  0  0  0  0  0  0  0  0  0
    5.8102   10.0779    3.8664 C   0  0  0  0  0  0  0  0  0  0  0  0
    4.9393    8.9582    3.3431 C   0  0  0  0  0  0  0  0  0  0  0  0
    4.7851    7.9458    4.0801 O   0  0  0  0  0  0  0  0  0  0  0  0
    4.2938    8.9996    2.0460 N   0  0  0  0  0  0  0  0  0  0  0  0
    3.5293    7.8309    1.5965 C   0  0  0  0  0  0  0  0  0  0  0  0
    4.3152   10.2043    1.2080 C   0  0  0  0  0  0  0  0  0  0  0  0
   10.3882   10.0185    3.4877 C   0  0  0  0  0  0  0  0  0  0  0  0
   11.8515    9.7801    3.1235 C   0  0  0  0  0  0  0  0  0  0  0  0
   13.2678    6.7644    0.4814 H   0  0  0  0  0  0  0  0  0  0  0  0
   14.1184    6.2177    1.9790 H   0  0  0  0  0  0  0  0  0  0  0  0
   14.9834    7.1931    0.7324 H   0  0  0  0  0  0  0  0  0  0  0  0
   13.4368    9.0285    1.1410 H   0  0  0  0  0  0  0  0  0  0  0  0
   14.5220    9.8926    3.0062 H   0  0  0  0  0  0  0  0  0  0  0  0
   15.5932    8.8664    2.2191 H   0  0  0  0  0  0  0  0  0  0  0  0
   14.8392    8.3422    3.6484 H   0  0  0  0  0  0  0  0  0  0  0  0
   12.4712    7.8394    3.7472 H   0  0  0  0  0  0  0  0  0  0  0  0
   11.4088    6.3660    2.3234 H   0  0  0  0  0  0  0  0  0  0  0  0
   11.2137    7.5918    1.0347 H   0  0  0  0  0  0  0  0  0  0  0  0
    9.0561    7.2353    1.8247 H   0  0  0  0  0  0  0  0  0  0  0  0
    9.5656    7.2672    3.5449 H   0  0  0  0  0  0  0  0  0  0  0  0
    9.7292    9.5585    1.6197 H   0  0  0  0  0  0  0  0  0  0  0  0
    7.6736    9.5047    4.8572 H   0  0  0  0  0  0  0  0  0  0  0  0
    5.7252   11.0043    3.2641 H   0  0  0  0  0  0  0  0  0  0  0  0
    5.4653   10.3346    4.8910 H   0  0  0  0  0  0  0  0  0  0  0  0
    2.7010    7.6288    2.3080 H   0  0  0  0  0  0  0  0  0  0  0  0
    3.0918    7.9792    0.5870 H   0  0  0  0  0  0  0  0  0  0  0  0
    4.1965    6.9442    1.5522 H   0  0  0  0  0  0  0  0  0  0  0  0
    5.3364   10.4398    0.8665 H   0  0  0  0  0  0  0  0  0  0  0  0
    3.6863   10.0864    0.3010 H   0  0  0  0  0  0  0  0  0  0  0  0
    3.9060   11.0645    1.7784 H   0  0  0  0  0  0  0  0  0  0  0  0
   10.1496   11.1014    3.3914 H   0  0  0  0  0  0  0  0  0  0  0  0
   10.2360    9.7336    4.5515 H   0  0  0  0  0  0  0  0  0  0  0  0
   12.0658   10.4404    2.2542 H   0  0  0  0  0  0  0  0  0  0  0  0
   12.4738   10.1512    3.9668 H   0  0  0  0  0  0  0  0  0  0  0  0
  1  2  1  0
  2  3  1  0
  2  4  1  0
  4  5  1  0
  5  6  1  0
  6  7  1  0
  7  8  1  0
  8  9  2  0
  8 10  1  0
 10 11  1  0
 11 12  1  0
 12 13  2  0
 12 14  1  0
 14 15  1  0
 14 16  1  0
  7 17  1  0
 17 18  1  0
 18  4  1  0
  1 19  1  0
  1 20  1  0
  1 21  1  0
  2 22  1  0
  3 23  1  0
  3 24  1  0
  3 25  1  0
  4 26  1  0
  5 27  1  0
  5 28  1  0
  6 29  1  0
  6 30  1  0
  7 31  1  0
 10 32  1  0
 11 33  1  0
 11 34  1  0
 15 35  1  0
 15 36  1  0
 15 37  1  0
 16 38  1  0
 16 39  1  0
 16 40  1  0
 17 41  1  0
 17 42  1  0
 18 43  1  0
 18 44  1  0
M  CHG  1   3   1
M  END
>  <EmbedRMS>  (196) 
0.2932026556361357

$$$$

     RDKit          3D

 44 44  0  0  0  0  0  0  0  0999 V2000
   14.0121    7.0506    1.2525 C   0  0  0  0  0  0  0  0  0  0  0  0
   13.6016    8.3243    1.9896 C   0  0  0  0  0  0  0  0  0  0  0  0
   14.7037    8.8917    2.7690 N   0  0  0  0  0  4  0  0  0  0  0  0
   12.2631    8.3265    2.7679 C   0  0  0  0  0  0  0  0  0  0  0  0
   11.1814    7.4387    2.1356 C   0  0  0  0  0  0  0  0  0  0  0  0
    9.7474    7.7242    2.5476 C   0  0  0  0  0  0  0  0  0  0  0  0
    9.4540    9.1994    2.6430 C   0  0  0  0  0  0  0  0  0  0  0  0
    7.9938    9.5221    2.7258 C   0  0  0  0  0  0  0  0  0  0  0  0
    7.4350    9.6816    1.6176 O   0  0  0  0  0  0  0  0  0  0  0  0
    7.2188    9.6578    3.9295 N   0  0  0  0  0  0  0  0  0  0  0  0
    5.8102   10.0779    3.8664 C   0  0  0  0  0  0  0  0  0  0  0  0
    4.9393    8.9582    3.3431 C   0  0  0  0  0  0  0  0  0  0  0  0
    4.7851    7.9458    4.0801 O   0  0  0  0  0  0  0  0  0  0  0  0
    4.2938    8.9996    2.0460 N   0  0  0  0  0  0  0  0  0  0  0  0
    3.5293    7.8309    1.5965 C   0  0  0  0  0  0  0  0  0  0  0  0
    4.3152   10.2043    1.2080 C   0  0  0  0  0  0  0  0  0  0  0  0
   10.3882   10.0185    3.4877 C   0  0  0  0  0  0  0  0  0  0  0  0
   11.8515    9.7801    3.1235 C   0  0  0  0  0  0  0  0  0  0  0  0
   13.2678    6.7644    0.4814 H   0  0  0  0  0  0  0  0  0  0  0  0
   14.1184    6.2177    1.9790 H   0  0  0  0  0  0  0  0  0  0  0  0
   14.9834    7.1931    0.7324 H   0  0  0  0  0  0  0  0  0  0  0  0
   13.4368    9.0285    1.1410 H   0  0  0  0  0  0  0  0  0  0  0  0
   14.5220    9.8926    3.0062 H   0  0  0  0  0  0  0  0  0  0  0  0
   15.5932    8.8664    2.2191 H   0  0  0  0  0  0  0  0  0  0  0  0
   14.8392    8.3422    3.6484 H   0  0  0  0  0  0  0  0  0  0  0  0
   12.4712    7.8394    3.7472 H   0  0  0  0  0  0  0  0  0  0  0  0
   11.4088    6.3660    2.3234 H   0  0  0  0  0  0  0  0  0  0  0  0
   11.2137    7.5918    1.0347 H   0  0  0  0  0  0  0  0  0  0  0  0
    9.0561    7.2353    1.8247 H   0  0  0  0  0  0  0  0  0  0  0  0
    9.5656    7.2672    3.5449 H   0  0  0  0  0  0  0  0  0  0  0  0
    9.7292    9.5585    1.6197 H   0  0  0  0  0  0  0  0  0  0  0  0
    7.6736    9.5047    4.8572 H   0  0  0  0  0  0  0  0  0  0  0  0
    5.7252   11.0043    3.2641 H   0  0  0  0  0  0  0  0  0  0  0  0
    5.4653   10.3346    4.8910 H   0  0  0  0  0  0  0  0  0  0  0  0
    2.7010    7.6288    2.3080 H   0  0  0  0  0  0  0  0  0  0  0  0
    3.0918    7.9792    0.5870 H   0  0  0  0  0  0  0  0  0  0  0  0
    4.1965    6.9442    1.5522 H   0  0  0  0  0  0  0  0  0  0  0  0
    5.3364   10.4398    0.8665 H   0  0  0  0  0  0  0  0  0  0  0  0
    3.6863   10.0864    0.3010 H   0  0  0  0  0  0  0  0  0  0  0  0
    3.9060   11.0645    1.7784 H   0  0  0  0  0  0  0  0  0  0  0  0
   10.1496   11.1014    3.3914 H   0  0  0  0  0  0  0  0  0  0  0  0
   10.2360    9.7336    4.5515 H   0  0  0  0  0  0  0  0  0  0  0  0
   12.0658   10.4404    2.2542 H   0  0  0  0  0  0  0  0  0  0  0  0
   12.4738   10.1512    3.9668 H   0  0  0  0  0  0  0  0  0  0  0  0
  1  2  1  0
  2  3  1  0
  2  4  1  0
  4  5  1  0
  5  6  1  0
  6  7  1  0
  7  8  1  0
  8  9  2  0
  8 10  1  0
 10 11  1  0
 11 12  1  0
 12 13  2  0
 12 14  1  0
 14 15  1  0
 14 16  1  0
  7 17  1  0
 17 18  1  0
 18  4  1  0
  1 19  1  0
  1 20  1  0
  1 21  1  0
  2 22  1  0
  3 23  1  0
  3 24  1  0
  3 25  1  0
  4 26  1  0
  5 27  1  0
  5 28  1  0
  6 29  1  0
  6 30  1  0
  7 31  1  0
 10 32  1  0
 11 33  1  0
 11 34  1  0
 15 35  1  0
 15 36  1  0
 15 37  1  0
 16 38  1  0
 16 39  1  0
 16 40  1  0
 17 41  1  0
 17 42  1  0
 18 43  1  0
 18 44  1  0
M  CHG  1   3   1
M  END
>  <EmbedRMS>  (197) 
0.2932026556361357

$$$$

     RDKit          3D

 38 38  0  0  0  0  0  0  0  0999 V2000
   14.0485    7.2193    1.1052 C   0  0  0  0  0  0  0  0  0  0  0  0
   13.6494    7.9557    2.3993 C   0  0  0  0  0  0  0  0  0  0  0  0
   14.6287    9.0157    2.6714 N   0  0  0  0  0  4  0  0  0  0  0  0
   12.1999    8.5121    2.2739 C   0  0  0  0  0  0  0  0  0  0  0  0
   11.1802    7.3659    2.4359 C   0  0  0  0  0  0  0  0  0  0  0  0
    9.7714    7.8716    2.1578 C   0  0  0  0  0  0  0  0  0  0  0  0
    9.4086    8.9939    3.1360 C   0  0  0  0  0  0  0  0  0  0  0  0
    8.0119    9.4795    2.8745 C   0  0  0  0  0  0  0  0  0  0  0  0
    7.6187    9.6893    1.6921 O   0  0  0  0  0  0  0  0  0  0  0  0
    7.1292    9.6965    3.9807 N   0  0  0  0  0  0  0  0  0  0  0  0
    5.7624   10.1694    3.8094 C   0  0  0  0  0  0  0  0  0  0  0  0
    5.7587   11.6573    3.4724 C   0  0  0  0  0  0  0  0  0  0  0  0
    4.4421   12.1064    3.3200 O   0  0  0  0  0  0  0  0  0  0  0  0
   10.4229   10.1485    3.0671 C   0  0  0  0  0  0  0  0  0  0  0  0
   11.8582    9.6379    3.2816 C   0  0  0  0  0  0  0  0  0  0  0  0
   15.0958    6.8574    1.1814 H   0  0  0  0  0  0  0  0  0  0  0  0
   13.9784    7.8974    0.2278 H   0  0  0  0  0  0  0  0  0  0  0  0
   13.4173    6.3269    0.9275 H   0  0  0  0  0  0  0  0  0  0  0  0
   13.6910    7.2251    3.2394 H   0  0  0  0  0  0  0  0  0  0  0  0
   14.4960    9.3935    3.6370 H   0  0  0  0  0  0  0  0  0  0  0  0
   15.6002    8.6298    2.6308 H   0  0  0  0  0  0  0  0  0  0  0  0
   14.5433    9.7863    1.9687 H   0  0  0  0  0  0  0  0  0  0  0  0
   12.0876    8.9473    1.2540 H   0  0  0  0  0  0  0  0  0  0  0  0
   11.2347    6.9393    3.4625 H   0  0  0  0  0  0  0  0  0  0  0  0
   11.3816    6.5452    1.7192 H   0  0  0  0  0  0  0  0  0  0  0  0
    9.0563    7.0278    2.2771 H   0  0  0  0  0  0  0  0  0  0  0  0
    9.7089    8.2307    1.1059 H   0  0  0  0  0  0  0  0  0  0  0  0
    9.4455    8.5679    4.1642 H   0  0  0  0  0  0  0  0  0  0  0  0
    7.4525    9.4673    4.9477 H   0  0  0  0  0  0  0  0  0  0  0  0
    5.2572    9.5890    3.0069 H   0  0  0  0  0  0  0  0  0  0  0  0
    5.2000   10.0100    4.7552 H   0  0  0  0  0  0  0  0  0  0  0  0
    6.2767   12.2336    4.2730 H   0  0  0  0  0  0  0  0  0  0  0  0
    6.3008   11.8316    2.5198 H   0  0  0  0  0  0  0  0  0  0  0  0
    4.0707   12.2170    4.2342 H   0  0  0  0  0  0  0  0  0  0  0  0
   10.3565   10.6518    2.0766 H   0  0  0  0  0  0  0  0  0  0  0  0
   10.1846   10.9008    3.8506 H   0  0  0  0  0  0  0  0  0  0  0  0
   12.5372   10.5052    3.1416 H   0  0  0  0  0  0  0  0  0  0  0  0
   11.9739    9.2660    4.3236 H   0  0  0  0  0  0  0  0  0  0  0  0
  1  2  1  0
  2  3  1  0
  2  4  1  0
  4  5  1  0
  5  6  1  0
  6  7  1  0
  7  8  1  0
  8  9  2  0
  8 10  1  0
 10 11  1  0
 11 12  1  0
 12 13  1  0
  7 14  1  0
 14 15  1  0
 15  4  1  0
  1 16  1  0
  1 17  1  0
  1 18  1  0
  2 19  1  0
  3 20  1  0
  3 21  1  0
  3 22  1  0
  4 23  1  0
  5 24  1  0
  5 25  1  0
  6 26  1  0
  6 27  1  0
  7 28  1  0
 10 29  1  0
 11 30  1  0
 11 31  1  0
 12 32  1  0
 12 33  1  0
 13 34  1  0
 14 35  1  0
 14 36  1  0
 15 37  1  0
 15 38  1  0
M  CHG  1   3   1
M  END
>  <EmbedRMS>  (198) 
0.031392693704421666

$$$$

     RDKit          3D

 47 47  0  0  0  0  0  0  0  0999 V2000
   14.0122    7.0511    1.2528 C   0  0  0  0  0  0  0  0  0  0  0  0
   13.6013    8.3249    1.9898 C   0  0  0  0  0  0  0  0  0  0  0  0
   14.7028    8.8921    2.7701 N   0  0  0  0  0  4  0  0  0  0  0  0
   12.2618    8.3277    2.7667 C   0  0  0  0  0  0  0  0  0  0  0  0
   11.1817    7.4391    2.1336 C   0  0  0  0  0  0  0  0  0  0  0  0
    9.7474    7.7233    2.5438 C   0  0  0  0  0  0  0  0  0  0  0  0
    9.4496    9.1979    2.6332 C   0  0  0  0  0  0  0  0  0  0  0  0
    7.9870    9.5117    2.7223 C   0  0  0  0  0  0  0  0  0  0  0  0
    7.4086    9.6509    1.6175 O   0  0  0  0  0  0  0  0  0  0  0  0
    7.2362    9.6885    3.9359 N   0  0  0  0  0  0  0  0  0  0  0  0
    5.8521   10.1861    3.8993 C   0  0  0  0  0  0  0  0  0  0  0  0
    5.8108   11.7179    3.9618 C   0  0  0  0  0  0  0  0  0  0  0  0
    6.3533   12.3704    2.6868 C   0  0  0  0  0  0  0  0  0  0  0  0
    6.3412   13.8906    2.8082 C   0  0  0  0  0  0  0  0  0  0  0  0
    6.9096   14.5295    1.5436 C   0  0  0  0  0  0  0  0  0  0  0  0
    6.9271   15.9217    1.6814 O   0  0  0  0  0  0  0  0  0  0  0  0
   10.3830   10.0196    3.4790 C   0  0  0  0  0  0  0  0  0  0  0  0
   11.8480    9.7812    3.1199 C   0  0  0  0  0  0  0  0  0  0  0  0
   14.9845    7.1933    0.7345 H   0  0  0  0  0  0  0  0  0  0  0  0
   13.2691    6.7656    0.4803 H   0  0  0  0  0  0  0  0  0  0  0  0
   14.1169    6.2180    1.9792 H   0  0  0  0  0  0  0  0  0  0  0  0
   13.4375    9.0292    1.1410 H   0  0  0  0  0  0  0  0  0  0  0  0
   15.5921    8.8691    2.2199 H   0  0  0  0  0  0  0  0  0  0  0  0
   14.5197    9.8921    3.0097 H   0  0  0  0  0  0  0  0  0  0  0  0
   14.8390    8.3407    3.6482 H   0  0  0  0  0  0  0  0  0  0  0  0
   12.4688    7.8417    3.7469 H   0  0  0  0  0  0  0  0  0  0  0  0
   11.2149    7.5920    1.0327 H   0  0  0  0  0  0  0  0  0  0  0  0
   11.4097    6.3666    2.3220 H   0  0  0  0  0  0  0  0  0  0  0  0
    9.5664    7.2695    3.5427 H   0  0  0  0  0  0  0  0  0  0  0  0
    9.0579    7.2297    1.8224 H   0  0  0  0  0  0  0  0  0  0  0  0
    9.7180    9.5576    1.6088 H   0  0  0  0  0  0  0  0  0  0  0  0
    7.7095    9.5588    4.8577 H   0  0  0  0  0  0  0  0  0  0  0  0
    5.3120    9.7859    4.7841 H   0  0  0  0  0  0  0  0  0  0  0  0
    5.3156    9.8136    2.9995 H   0  0  0  0  0  0  0  0  0  0  0  0
    4.7557   12.0360    4.1106 H   0  0  0  0  0  0  0  0  0  0  0  0
    6.3990   12.0592    4.8421 H   0  0  0  0  0  0  0  0  0  0  0  0
    7.4058   12.0603    2.5274 H   0  0  0  0  0  0  0  0  0  0  0  0
    5.7402   12.0541    1.8141 H   0  0  0  0  0  0  0  0  0  0  0  0
    5.2991   14.2477    2.9622 H   0  0  0  0  0  0  0  0  0  0  0  0
    6.9560   14.2000    3.6822 H   0  0  0  0  0  0  0  0  0  0  0  0
    6.2687   14.2687    0.6742 H   0  0  0  0  0  0  0  0  0  0  0  0
    7.9381   14.1508    1.3408 H   0  0  0  0  0  0  0  0  0  0  0  0
    7.7048   16.1418    2.2584 H   0  0  0  0  0  0  0  0  0  0  0  0
   10.2290    9.7373    4.5432 H   0  0  0  0  0  0  0  0  0  0  0  0
   10.1433   11.1021    3.3799 H   0  0  0  0  0  0  0  0  0  0  0  0
   12.0644   10.4408    2.2506 H   0  0  0  0  0  0  0  0  0  0  0  0
   12.4678   10.1537    3.9645 H   0  0  0  0  0  0  0  0  0  0  0  0
  1  2  1  0
  2  3  1  0
  2  4  1  0
  4  5  1  0
  5  6  1  0
  6  7  1  0
  7  8  1  0
  8  9  2  0
  8 10  1  0
 10 11  1  0
 11 12  1  0
 12 13  1  0
 13 14  1  0
 14 15  1  0
 15 16  1  0
  7 17  1  0
 17 18  1  0
 18  4  1  0
  1 19  1  0
  1 20  1  0
  1 21  1  0
  2 22  1  0
  3 23  1  0
  3 24  1  0
  3 25  1  0
  4 26  1  0
  5 27  1  0
  5 28  1  0
  6 29  1  0
  6 30  1  0
  7 31  1  0
 10 32  1  0
 11 33  1  0
 11 34  1  0
 12 35  1  0
 12 36  1  0
 13 37  1  0
 13 38  1  0
 14 39  1  0
 14 40  1  0
 15 41  1  0
 15 42  1  0
 16 43  1  0
 17 44  1  0
 17 45  1  0
 18 46  1  0
 18 47  1  0
M  CHG  1   3   1
M  END
>  <EmbedRMS>  (199) 
0.2943757524904108

$$$$

     RDKit          3D

 39 40  0  0  0  0  0  0  0  0999 V2000
   14.0281    7.0398    1.2342 C   0  0  0  0  0  0  0  0  0  0  0  0
   13.6694    8.3365    1.9396 C   0  0  0  0  0  0  0  0  0  0  0  0
   14.6135    8.7687    2.9622 N   0  0  0  0  0  4  0  0  0  0  0  0
   12.1580    8.5897    2.2121 C   0  0  0  0  0  0  0  0  0  0  0  0
   11.2414    7.3767    2.4528 C   0  0  0  0  0  0  0  0  0  0  0  0
    9.7893    7.8232    2.2134 C   0  0  0  0  0  0  0  0  0  0  0  0
    9.4124    8.9826    3.1547 C   0  0  0  0  0  0  0  0  0  0  0  0
    8.0153    9.4632    2.8781 C   0  0  0  0  0  0  0  0  0  0  0  0
    7.6390    9.6735    1.6918 O   0  0  0  0  0  0  0  0  0  0  0  0
    7.1394    9.7015    3.9871 N   0  0  0  0  0  0  0  0  0  0  0  0
    5.7802   10.1373    3.8999 C   0  0  0  0  0  0  0  0  0  0  0  0
    5.0657   10.4404    2.7535 C   0  0  0  0  0  0  0  0  0  0  0  0
    3.8412   10.8023    3.2612 C   0  0  0  0  0  0  0  0  0  0  0  0
    2.7152   11.2155    2.4946 N   0  0  0  0  0  0  0  0  0  0  0  0
    3.8499   10.7155    4.5687 O   0  0  0  0  0  0  0  0  0  0  0  0
    5.0114   10.3149    4.9924 N   0  0  0  0  0  0  0  0  0  0  0  0
   10.4065   10.1580    3.0882 C   0  0  0  0  0  0  0  0  0  0  0  0
   11.8561    9.6807    3.2543 C   0  0  0  0  0  0  0  0  0  0  0  0
   13.9081    6.1867    1.9344 H   0  0  0  0  0  0  0  0  0  0  0  0
   15.0832    7.0606    0.8853 H   0  0  0  0  0  0  0  0  0  0  0  0
   13.3770    6.8823    0.3473 H   0  0  0  0  0  0  0  0  0  0  0  0
   13.8830    9.0584    1.1114 H   0  0  0  0  0  0  0  0  0  0  0  0
   15.5897    8.5023    2.6972 H   0  0  0  0  0  0  0  0  0  0  0  0
   14.5963    9.8060    3.0880 H   0  0  0  0  0  0  0  0  0  0  0  0
   14.3779    8.3021    3.8675 H   0  0  0  0  0  0  0  0  0  0  0  0
   11.8025    9.0084    1.2375 H   0  0  0  0  0  0  0  0  0  0  0  0
   11.3712    6.9864    3.4860 H   0  0  0  0  0  0  0  0  0  0  0  0
   11.4638    6.5563    1.7402 H   0  0  0  0  0  0  0  0  0  0  0  0
    9.1142    6.9604    2.4042 H   0  0  0  0  0  0  0  0  0  0  0  0
    9.6594    8.1219    1.1490 H   0  0  0  0  0  0  0  0  0  0  0  0
    9.4489    8.5771    4.1909 H   0  0  0  0  0  0  0  0  0  0  0  0
    7.5134    9.5445    4.9501 H   0  0  0  0  0  0  0  0  0  0  0  0
    5.3587   10.4151    1.7147 H   0  0  0  0  0  0  0  0  0  0  0  0
    2.7718   11.2645    1.4532 H   0  0  0  0  0  0  0  0  0  0  0  0
    1.8232   11.4725    2.9717 H   0  0  0  0  0  0  0  0  0  0  0  0
   10.3027   10.6858    2.1135 H   0  0  0  0  0  0  0  0  0  0  0  0
   10.1724   10.8880    3.8938 H   0  0  0  0  0  0  0  0  0  0  0  0
   12.0218    9.2951    4.2841 H   0  0  0  0  0  0  0  0  0  0  0  0
   12.5087   10.5644    3.0944 H   0  0  0  0  0  0  0  0  0  0  0  0
  1  2  1  0
  2  3  1  0
  2  4  1  0
  4  5  1  0
  5  6  1  0
  6  7  1  0
  7  8  1  0
  8  9  2  0
  8 10  1  0
 10 11  1  0
 11 12  1  0
 12 13  2  0
 13 14  1  0
 13 15  1  0
 15 16  1  0
  7 17  1  0
 17 18  1  0
 18  4  1  0
 16 11  2  0
  1 19  1  0
  1 20  1  0
  1 21  1  0
  2 22  1  0
  3 23  1  0
  3 24  1  0
  3 25  1  0
  4 26  1  0
  5 27  1  0
  5 28  1  0
  6 29  1  0
  6 30  1  0
  7 31  1  0
 10 32  1  0
 12 33  1  0
 14 34  1  0
 14 35  1  0
 17 36  1  0
 17 37  1  0
 18 38  1  0
 18 39  1  0
M  CHG  1   3   1
M  END
>  <EmbedRMS>  (200) 
0.1825389009303988

$$$$

     RDKit          3D

 39 40  0  0  0  0  0  0  0  0999 V2000
   14.0281    7.0398    1.2342 C   0  0  0  0  0  0  0  0  0  0  0  0
   13.6694    8.3365    1.9396 C   0  0  0  0  0  0  0  0  0  0  0  0
   14.6135    8.7687    2.9622 N   0  0  0  0  0  4  0  0  0  0  0  0
   12.1580    8.5897    2.2121 C   0  0  0  0  0  0  0  0  0  0  0  0
   11.2414    7.3767    2.4528 C   0  0  0  0  0  0  0  0  0  0  0  0
    9.7893    7.8232    2.2134 C   0  0  0  0  0  0  0  0  0  0  0  0
    9.4124    8.9826    3.1547 C   0  0  0  0  0  0  0  0  0  0  0  0
    8.0153    9.4632    2.8781 C   0  0  0  0  0  0  0  0  0  0  0  0
    7.6390    9.6735    1.6918 O   0  0  0  0  0  0  0  0  0  0  0  0
    7.1394    9.7015    3.9871 N   0  0  0  0  0  0  0  0  0  0  0  0
    5.7802   10.1373    3.8999 C   0  0  0  0  0  0  0  0  0  0  0  0
    5.0657   10.4404    2.7535 C   0  0  0  0  0  0  0  0  0  0  0  0
    3.8412   10.8023    3.2612 C   0  0  0  0  0  0  0  0  0  0  0  0
    2.7152   11.2155    2.4946 N   0  0  0  0  0  0  0  0  0  0  0  0
    3.8499   10.7155    4.5687 O   0  0  0  0  0  0  0  0  0  0  0  0
    5.0114   10.3149    4.9924 N   0  0  0  0  0  0  0  0  0  0  0  0
   10.4065   10.1580    3.0882 C   0  0  0  0  0  0  0  0  0  0  0  0
   11.8561    9.6807    3.2543 C   0  0  0  0  0  0  0  0  0  0  0  0
   13.9081    6.1867    1.9344 H   0  0  0  0  0  0  0  0  0  0  0  0
   15.0832    7.0606    0.8853 H   0  0  0  0  0  0  0  0  0  0  0  0
   13.3770    6.8823    0.3473 H   0  0  0  0  0  0  0  0  0  0  0  0
   13.8830    9.0584    1.1114 H   0  0  0  0  0  0  0  0  0  0  0  0
   15.5897    8.5023    2.6972 H   0  0  0  0  0  0  0  0  0  0  0  0
   14.5963    9.8060    3.0880 H   0  0  0  0  0  0  0  0  0  0  0  0
   14.3779    8.3021    3.8675 H   0  0  0  0  0  0  0  0  0  0  0  0
   11.8025    9.0084    1.2375 H   0  0  0  0  0  0  0  0  0  0  0  0
   11.3712    6.9864    3.4860 H   0  0  0  0  0  0  0  0  0  0  0  0
   11.4638    6.5563    1.7402 H   0  0  0  0  0  0  0  0  0  0  0  0
    9.1142    6.9604    2.4042 H   0  0  0  0  0  0  0  0  0  0  0  0
    9.6594    8.1219    1.1490 H   0  0  0  0  0  0  0  0  0  0  0  0
    9.4489    8.5771    4.1909 H   0  0  0  0  0  0  0  0  0  0  0  0
    7.5134    9.5445    4.9501 H   0  0  0  0  0  0  0  0  0  0  0  0
    5.3587   10.4151    1.7147 H   0  0  0  0  0  0  0  0  0  0  0  0
    2.7718   11.2645    1.4532 H   0  0  0  0  0  0  0  0  0  0  0  0
    1.8232   11.4725    2.9717 H   0  0  0  0  0  0  0  0  0  0  0  0
   10.3027   10.6858    2.1135 H   0  0  0  0  0  0  0  0  0  0  0  0
   10.1724   10.8880    3.8938 H   0  0  0  0  0  0  0  0  0  0  0  0
   12.0218    9.2951    4.2841 H   0  0  0  0  0  0  0  0  0  0  0  0
   12.5087   10.5644    3.0944 H   0  0  0  0  0  0  0  0  0  0  0  0
  1  2  1  0
  2  3  1  0
  2  4  1  0
  4  5  1  0
  5  6  1  0
  6  7  1  0
  7  8  1  0
  8  9  2  0
  8 10  1  0
 10 11  1  0
 11 12  1  0
 12 13  2  0
 13 14  1  0
 13 15  1  0
 15 16  1  0
  7 17  1  0
 17 18  1  0
 18  4  1  0
 16 11  2  0
  1 19  1  0
  1 20  1  0
  1 21  1  0
  2 22  1  0
  3 23  1  0
  3 24  1  0
  3 25  1  0
  4 26  1  0
  5 27  1  0
  5 28  1  0
  6 29  1  0
  6 30  1  0
  7 31  1  0
 10 32  1  0
 12 33  1  0
 14 34  1  0
 14 35  1  0
 17 36  1  0
 17 37  1  0
 18 38  1  0
 18 39  1  0
M  CHG  1   3   1
M  END
>  <EmbedRMS>  (201) 
0.1825389009303988

$$$$

     RDKit          3D

 38 39  0  0  0  0  0  0  0  0999 V2000
   13.9837    7.0987    1.1855 C   0  0  0  0  0  0  0  0  0  0  0  0
   13.5804    8.3572    1.9537 C   0  0  0  0  0  0  0  0  0  0  0  0
   14.7108    8.8838    2.7308 N   0  0  0  0  0  4  0  0  0  0  0  0
   12.2749    8.3217    2.7728 C   0  0  0  0  0  0  0  0  0  0  0  0
   11.1575    7.3126    2.3943 C   0  0  0  0  0  0  0  0  0  0  0  0
    9.7988    7.9231    2.0798 C   0  0  0  0  0  0  0  0  0  0  0  0
    9.4140    8.9895    3.1024 C   0  0  0  0  0  0  0  0  0  0  0  0
    8.0070    9.4705    2.8615 C   0  0  0  0  0  0  0  0  0  0  0  0
    7.6036    9.6878    1.6849 O   0  0  0  0  0  0  0  0  0  0  0  0
    7.1460    9.6989    3.9837 N   0  0  0  0  0  0  0  0  0  0  0  0
    5.7856   10.1358    3.8829 C   0  0  0  0  0  0  0  0  0  0  0  0
    5.1425   10.4118    2.7330 N   0  0  0  0  0  0  0  0  0  0  0  0
    3.9353   10.7780    3.0650 O   0  0  0  0  0  0  0  0  0  0  0  0
    3.7606   10.7540    4.3695 C   0  0  0  0  0  0  0  0  0  0  0  0
    4.9390   10.3416    4.9440 C   0  0  0  0  0  0  0  0  0  0  0  0
    5.2856   10.1226    6.6846 S   0  0  0  0  0  0  0  0  0  0  0  0
   10.3963   10.1517    3.0052 C   0  0  0  0  0  0  0  0  0  0  0  0
   11.8309    9.7192    3.3038 C   0  0  0  0  0  0  0  0  0  0  0  0
   13.2929    6.9112    0.3370 H   0  0  0  0  0  0  0  0  0  0  0  0
   15.0003    7.2118    0.7523 H   0  0  0  0  0  0  0  0  0  0  0  0
   13.9865    6.2217    1.8667 H   0  0  0  0  0  0  0  0  0  0  0  0
   13.3807    9.1012    1.1484 H   0  0  0  0  0  0  0  0  0  0  0  0
   14.4916    9.7900    3.1977 H   0  0  0  0  0  0  0  0  0  0  0  0
   14.9937    8.1898    3.4606 H   0  0  0  0  0  0  0  0  0  0  0  0
   15.5286    9.0532    2.1007 H   0  0  0  0  0  0  0  0  0  0  0  0
   12.6567    7.8395    3.7039 H   0  0  0  0  0  0  0  0  0  0  0  0
   11.4420    6.6820    1.5320 H   0  0  0  0  0  0  0  0  0  0  0  0
   11.0015    6.5981    3.2361 H   0  0  0  0  0  0  0  0  0  0  0  0
    9.0352    7.1134    2.0738 H   0  0  0  0  0  0  0  0  0  0  0  0
    9.8307    8.3627    1.0574 H   0  0  0  0  0  0  0  0  0  0  0  0
    9.4750    8.5444    4.1213 H   0  0  0  0  0  0  0  0  0  0  0  0
    7.5332    9.5356    4.9401 H   0  0  0  0  0  0  0  0  0  0  0  0
    2.8436   11.0160    4.8800 H   0  0  0  0  0  0  0  0  0  0  0  0
    4.8756    8.7768    6.6498 H   0  0  0  0  0  0  0  0  0  0  0  0
   10.3558   10.5886    1.9816 H   0  0  0  0  0  0  0  0  0  0  0  0
   10.1031   10.9531    3.7195 H   0  0  0  0  0  0  0  0  0  0  0  0
   11.9633    9.7492    4.4098 H   0  0  0  0  0  0  0  0  0  0  0  0
   12.4765   10.5261    2.8987 H   0  0  0  0  0  0  0  0  0  0  0  0
  1  2  1  0
  2  3  1  0
  2  4  1  0
  4  5  1  0
  5  6  1  0
  6  7  1  0
  7  8  1  0
  8  9  2  0
  8 10  1  0
 10 11  1  0
 11 12  2  0
 12 13  1  0
 13 14  1  0
 14 15  2  0
 15 16  1  0
  7 17  1  0
 17 18  1  0
 18  4  1  0
 15 11  1  0
  1 19  1  0
  1 20  1  0
  1 21  1  0
  2 22  1  0
  3 23  1  0
  3 24  1  0
  3 25  1  0
  4 26  1  0
  5 27  1  0
  5 28  1  0
  6 29  1  0
  6 30  1  0
  7 31  1  0
 10 32  1  0
 14 33  1  0
 16 34  1  0
 17 35  1  0
 17 36  1  0
 18 37  1  0
 18 38  1  0
M  CHG  1   3   1
M  END
>  <EmbedRMS>  (202) 
0.20199534700398408

$$$$

     RDKit          3D

 42 43  0  0  0  0  0  0  0  0999 V2000
   13.9839    7.0985    1.1859 C   0  0  0  0  0  0  0  0  0  0  0  0
   13.5806    8.3572    1.9538 C   0  0  0  0  0  0  0  0  0  0  0  0
   14.7110    8.8841    2.7307 N   0  0  0  0  0  4  0  0  0  0  0  0
   12.2752    8.3221    2.7731 C   0  0  0  0  0  0  0  0  0  0  0  0
   11.1581    7.3128    2.3949 C   0  0  0  0  0  0  0  0  0  0  0  0
    9.7985    7.9226    2.0840 C   0  0  0  0  0  0  0  0  0  0  0  0
    9.4146    8.9887    3.1080 C   0  0  0  0  0  0  0  0  0  0  0  0
    8.0090    9.4686    2.8655 C   0  0  0  0  0  0  0  0  0  0  0  0
    7.6068    9.6883    1.6884 O   0  0  0  0  0  0  0  0  0  0  0  0
    7.1363    9.6897    3.9800 N   0  0  0  0  0  0  0  0  0  0  0  0
    5.7740   10.1827    3.8219 C   0  0  0  0  0  0  0  0  0  0  0  0
    5.7937   11.6475    3.5369 C   0  0  0  0  0  0  0  0  0  0  0  0
    5.6279   12.2464    2.3031 C   0  0  0  0  0  0  0  0  0  0  0  0
    5.7452   13.5468    2.4389 O   0  0  0  0  0  0  0  0  0  0  0  0
    5.9876   13.8098    3.7024 C   0  0  0  0  0  0  0  0  0  0  0  0
    6.1669   15.0948    4.1999 O   0  0  0  0  0  0  0  0  0  0  0  0
    6.0387   12.6523    4.4488 C   0  0  0  0  0  0  0  0  0  0  0  0
   10.3959   10.1515    3.0079 C   0  0  0  0  0  0  0  0  0  0  0  0
   11.8314    9.7200    3.3035 C   0  0  0  0  0  0  0  0  0  0  0  0
   13.2933    6.9111    0.3371 H   0  0  0  0  0  0  0  0  0  0  0  0
   13.9863    6.2216    1.8671 H   0  0  0  0  0  0  0  0  0  0  0  0
   15.0006    7.2114    0.7529 H   0  0  0  0  0  0  0  0  0  0  0  0
   13.3809    9.1010    1.1483 H   0  0  0  0  0  0  0  0  0  0  0  0
   14.9940    8.1903    3.4606 H   0  0  0  0  0  0  0  0  0  0  0  0
   15.5288    9.0534    2.1006 H   0  0  0  0  0  0  0  0  0  0  0  0
   14.4916    9.7903    3.1975 H   0  0  0  0  0  0  0  0  0  0  0  0
   12.6569    7.8404    3.7044 H   0  0  0  0  0  0  0  0  0  0  0  0
   11.4415    6.6840    1.5309 H   0  0  0  0  0  0  0  0  0  0  0  0
   11.0041    6.5966    3.2357 H   0  0  0  0  0  0  0  0  0  0  0  0
    9.0354    7.1124    2.0790 H   0  0  0  0  0  0  0  0  0  0  0  0
    9.8282    8.3625    1.0616 H   0  0  0  0  0  0  0  0  0  0  0  0
    9.4748    8.5456    4.1277 H   0  0  0  0  0  0  0  0  0  0  0  0
    7.4805    9.4923    4.9469 H   0  0  0  0  0  0  0  0  0  0  0  0
    5.2071   10.0079    4.7617 H   0  0  0  0  0  0  0  0  0  0  0  0
    5.2576    9.6287    3.0082 H   0  0  0  0  0  0  0  0  0  0  0  0
    5.4330   11.7427    1.3655 H   0  0  0  0  0  0  0  0  0  0  0  0
    6.3527   15.2500    5.1835 H   0  0  0  0  0  0  0  0  0  0  0  0
    6.2292   12.5545    5.5095 H   0  0  0  0  0  0  0  0  0  0  0  0
   10.3530   10.5881    1.9842 H   0  0  0  0  0  0  0  0  0  0  0  0
   10.1034   10.9532    3.7223 H   0  0  0  0  0  0  0  0  0  0  0  0
   12.4757   10.5266    2.8957 H   0  0  0  0  0  0  0  0  0  0  0  0
   11.9666    9.7516    4.4090 H   0  0  0  0  0  0  0  0  0  0  0  0
  1  2  1  0
  2  3  1  0
  2  4  1  0
  4  5  1  0
  5  6  1  0
  6  7  1  0
  7  8  1  0
  8  9  2  0
  8 10  1  0
 10 11  1  0
 11 12  1  0
 12 13  2  0
 13 14  1  0
 14 15  1  0
 15 16  1  0
 15 17  2  0
  7 18  1  0
 18 19  1  0
 19  4  1  0
 17 12  1  0
  1 20  1  0
  1 21  1  0
  1 22  1  0
  2 23  1  0
  3 24  1  0
  3 25  1  0
  3 26  1  0
  4 27  1  0
  5 28  1  0
  5 29  1  0
  6 30  1  0
  6 31  1  0
  7 32  1  0
 10 33  1  0
 11 34  1  0
 11 35  1  0
 13 36  1  0
 16 37  1  0
 17 38  1  0
 18 39  1  0
 18 40  1  0
 19 41  1  0
 19 42  1  0
M  CHG  1   3   1
M  END
>  <EmbedRMS>  (203) 
0.19659542053195042

$$$$

     RDKit          3D

 42 43  0  0  0  0  0  0  0  0999 V2000
   14.0270    7.2309    1.0860 C   0  0  0  0  0  0  0  0  0  0  0  0
   13.6443    7.9633    2.3851 C   0  0  0  0  0  0  0  0  0  0  0  0
   14.6252    9.0253    2.6475 N   0  0  0  0  0  4  0  0  0  0  0  0
   12.1796    8.5084    2.2957 C   0  0  0  0  0  0  0  0  0  0  0  0
   11.1971    7.3492    2.5412 C   0  0  0  0  0  0  0  0  0  0  0  0
    9.7338    7.7397    2.3697 C   0  0  0  0  0  0  0  0  0  0  0  0
    9.4420    9.2074    2.6412 C   0  0  0  0  0  0  0  0  0  0  0  0
    7.9754    9.5223    2.7309 C   0  0  0  0  0  0  0  0  0  0  0  0
    7.3935    9.6437    1.6253 O   0  0  0  0  0  0  0  0  0  0  0  0
    7.2201    9.7115    3.9452 N   0  0  0  0  0  0  0  0  0  0  0  0
    5.9337   10.3832    3.9415 C   0  0  0  0  0  0  0  0  0  0  0  0
    4.8726    9.8658    4.7077 C   0  0  0  0  0  0  0  0  0  0  0  0
    3.6188   10.4931    4.7106 C   0  0  0  0  0  0  0  0  0  0  0  0
    3.4074   11.6435    3.9490 C   0  0  0  0  0  0  0  0  0  0  0  0
    4.4499   12.1753    3.1904 C   0  0  0  0  0  0  0  0  0  0  0  0
    5.7146   11.5726    3.1972 C   0  0  0  0  0  0  0  0  0  0  0  0
    6.7376   12.2058    2.4918 O   0  0  0  0  0  0  0  0  0  0  0  0
   10.4123   10.0718    3.4269 C   0  0  0  0  0  0  0  0  0  0  0  0
   11.8917    9.6372    3.3181 C   0  0  0  0  0  0  0  0  0  0  0  0
   13.9565    7.9175    0.2155 H   0  0  0  0  0  0  0  0  0  0  0  0
   15.0706    6.8563    1.1523 H   0  0  0  0  0  0  0  0  0  0  0  0
   13.3804    6.3502    0.9044 H   0  0  0  0  0  0  0  0  0  0  0  0
   13.7129    7.2284    3.2200 H   0  0  0  0  0  0  0  0  0  0  0  0
   15.5971    8.6431    2.5861 H   0  0  0  0  0  0  0  0  0  0  0  0
   14.5114    9.4008    3.6161 H   0  0  0  0  0  0  0  0  0  0  0  0
   14.5244    9.7983    1.9496 H   0  0  0  0  0  0  0  0  0  0  0  0
   12.0083    8.9216    1.2760 H   0  0  0  0  0  0  0  0  0  0  0  0
   11.4000    6.4975    1.8611 H   0  0  0  0  0  0  0  0  0  0  0  0
   11.3411    6.9723    3.5791 H   0  0  0  0  0  0  0  0  0  0  0  0
    9.4001    7.4713    1.3403 H   0  0  0  0  0  0  0  0  0  0  0  0
    9.1270    7.1193    3.0658 H   0  0  0  0  0  0  0  0  0  0  0  0
    9.6927    9.6195    1.6317 H   0  0  0  0  0  0  0  0  0  0  0  0
    7.5666    9.2691    4.8256 H   0  0  0  0  0  0  0  0  0  0  0  0
    5.0187    8.9685    5.2957 H   0  0  0  0  0  0  0  0  0  0  0  0
    2.8109   10.0813    5.3014 H   0  0  0  0  0  0  0  0  0  0  0  0
    2.4375   12.1238    3.9501 H   0  0  0  0  0  0  0  0  0  0  0  0
    4.2844   13.0783    2.6163 H   0  0  0  0  0  0  0  0  0  0  0  0
    7.7187   12.0361    2.6675 H   0  0  0  0  0  0  0  0  0  0  0  0
   10.1136   10.0307    4.4970 H   0  0  0  0  0  0  0  0  0  0  0  0
   10.3088   11.1375    3.1177 H   0  0  0  0  0  0  0  0  0  0  0  0
   12.4900   10.5354    3.0524 H   0  0  0  0  0  0  0  0  0  0  0  0
   12.2298    9.3015    4.3240 H   0  0  0  0  0  0  0  0  0  0  0  0
  1  2  1  0
  2  3  1  0
  2  4  1  0
  4  5  1  0
  5  6  1  0
  6  7  1  0
  7  8  1  0
  8  9  2  0
  8 10  1  0
 10 11  1  0
 11 12  2  0
 12 13  1  0
 13 14  2  0
 14 15  1  0
 15 16  2  0
 16 17  1  0
  7 18  1  0
 18 19  1  0
 19  4  1  0
 16 11  1  0
  1 20  1  0
  1 21  1  0
  1 22  1  0
  2 23  1  0
  3 24  1  0
  3 25  1  0
  3 26  1  0
  4 27  1  0
  5 28  1  0
  5 29  1  0
  6 30  1  0
  6 31  1  0
  7 32  1  0
 10 33  1  0
 12 34  1  0
 13 35  1  0
 14 36  1  0
 15 37  1  0
 17 38  1  0
 18 39  1  0
 18 40  1  0
 19 41  1  0
 19 42  1  0
M  CHG  1   3   1
M  END
>  <EmbedRMS>  (204) 
0.17190302621350875

$$$$

     RDKit          3D

 41 42  0  0  0  0  0  0  0  0999 V2000
   13.9333    7.3332    1.0251 C   0  0  0  0  0  0  0  0  0  0  0  0
   13.7127    7.9146    2.4297 C   0  0  0  0  0  0  0  0  0  0  0  0
   14.6505    9.0165    2.6726 N   0  0  0  0  0  4  0  0  0  0  0  0
   12.2365    8.2979    2.7979 C   0  0  0  0  0  0  0  0  0  0  0  0
   11.1516    7.3119    2.3263 C   0  0  0  0  0  0  0  0  0  0  0  0
    9.7915    7.9322    2.0765 C   0  0  0  0  0  0  0  0  0  0  0  0
    9.4264    8.9805    3.1220 C   0  0  0  0  0  0  0  0  0  0  0  0
    8.0230    9.4637    2.8663 C   0  0  0  0  0  0  0  0  0  0  0  0
    7.6554    9.6767    1.6798 O   0  0  0  0  0  0  0  0  0  0  0  0
    7.1439    9.7010    3.9760 N   0  0  0  0  0  0  0  0  0  0  0  0
    5.7724   10.1423    3.9204 C   0  0  0  0  0  0  0  0  0  0  0  0
    5.0948   10.4444    2.7182 C   0  0  0  0  0  0  0  0  0  0  0  0
    3.8045   10.8607    2.7453 N   0  0  0  0  0  0  0  0  0  0  0  0
    3.1201   11.0024    3.9067 C   0  0  0  0  0  0  0  0  0  0  0  0
    3.7421   10.7168    5.1209 C   0  0  0  0  0  0  0  0  0  0  0  0
    2.8465   10.9021    6.6565 S   0  0  0  0  0  0  0  0  0  0  0  0
    5.0688   10.2869    5.1252 C   0  0  0  0  0  0  0  0  0  0  0  0
   10.3971   10.1657    3.0678 C   0  0  0  0  0  0  0  0  0  0  0  0
   11.8885    9.7883    2.9928 C   0  0  0  0  0  0  0  0  0  0  0  0
   15.0172    7.2786    0.7883 H   0  0  0  0  0  0  0  0  0  0  0  0
   13.4389    7.9746    0.2650 H   0  0  0  0  0  0  0  0  0  0  0  0
   13.5404    6.2972    0.9559 H   0  0  0  0  0  0  0  0  0  0  0  0
   14.0110    7.0845    3.1147 H   0  0  0  0  0  0  0  0  0  0  0  0
   14.5091    9.7874    1.9808 H   0  0  0  0  0  0  0  0  0  0  0  0
   15.6338    8.6710    2.5808 H   0  0  0  0  0  0  0  0  0  0  0  0
   14.5447    9.3792    3.6472 H   0  0  0  0  0  0  0  0  0  0  0  0
   12.2426    8.0317    3.8833 H   0  0  0  0  0  0  0  0  0  0  0  0
   11.0353    6.4818    3.0618 H   0  0  0  0  0  0  0  0  0  0  0  0
   11.4355    6.8242    1.3753 H   0  0  0  0  0  0  0  0  0  0  0  0
    9.8009    8.4006    1.0656 H   0  0  0  0  0  0  0  0  0  0  0  0
    9.0264    7.1236    2.0651 H   0  0  0  0  0  0  0  0  0  0  0  0
    9.4835    8.5086    4.1284 H   0  0  0  0  0  0  0  0  0  0  0  0
    7.5460    9.5319    4.9262 H   0  0  0  0  0  0  0  0  0  0  0  0
    5.5424   10.3693    1.7485 H   0  0  0  0  0  0  0  0  0  0  0  0
    2.0914   11.3373    3.8835 H   0  0  0  0  0  0  0  0  0  0  0  0
    2.3873    9.5724    6.6118 H   0  0  0  0  0  0  0  0  0  0  0  0
    5.5525   10.0656    6.0688 H   0  0  0  0  0  0  0  0  0  0  0  0
   10.2256   10.8071    3.9607 H   0  0  0  0  0  0  0  0  0  0  0  0
   10.1537   10.7934    2.1798 H   0  0  0  0  0  0  0  0  0  0  0  0
   12.3116   10.3421    2.1278 H   0  0  0  0  0  0  0  0  0  0  0  0
   12.3999   10.1965    3.8945 H   0  0  0  0  0  0  0  0  0  0  0  0
  1  2  1  0
  2  3  1  0
  2  4  1  0
  4  5  1  0
  5  6  1  0
  6  7  1  0
  7  8  1  0
  8  9  2  0
  8 10  1  0
 10 11  1  0
 11 12  2  0
 12 13  1  0
 13 14  2  0
 14 15  1  0
 15 16  1  0
 15 17  2  0
  7 18  1  0
 18 19  1  0
 19  4  1  0
 17 11  1  0
  1 20  1  0
  1 21  1  0
  1 22  1  0
  2 23  1  0
  3 24  1  0
  3 25  1  0
  3 26  1  0
  4 27  1  0
  5 28  1  0
  5 29  1  0
  6 30  1  0
  6 31  1  0
  7 32  1  0
 10 33  1  0
 12 34  1  0
 14 35  1  0
 16 36  1  0
 17 37  1  0
 18 38  1  0
 18 39  1  0
 19 40  1  0
 19 41  1  0
M  CHG  1   3   1
M  END
>  <EmbedRMS>  (205) 
0.16053378509433933

$$$$

     RDKit          3D

 42 43  0  0  0  0  0  0  0  0999 V2000
   14.0270    7.2309    1.0860 C   0  0  0  0  0  0  0  0  0  0  0  0
   13.6443    7.9633    2.3851 C   0  0  0  0  0  0  0  0  0  0  0  0
   14.6252    9.0253    2.6475 N   0  0  0  0  0  4  0  0  0  0  0  0
   12.1796    8.5084    2.2957 C   0  0  0  0  0  0  0  0  0  0  0  0
   11.1971    7.3492    2.5412 C   0  0  0  0  0  0  0  0  0  0  0  0
    9.7338    7.7397    2.3697 C   0  0  0  0  0  0  0  0  0  0  0  0
    9.4420    9.2074    2.6412 C   0  0  0  0  0  0  0  0  0  0  0  0
    7.9754    9.5223    2.7309 C   0  0  0  0  0  0  0  0  0  0  0  0
    7.3935    9.6437    1.6253 O   0  0  0  0  0  0  0  0  0  0  0  0
    7.2201    9.7115    3.9452 N   0  0  0  0  0  0  0  0  0  0  0  0
    5.9337   10.3832    3.9415 C   0  0  0  0  0  0  0  0  0  0  0  0
    4.8726    9.8658    4.7077 C   0  0  0  0  0  0  0  0  0  0  0  0
    3.6188   10.4931    4.7106 C   0  0  0  0  0  0  0  0  0  0  0  0
    3.4074   11.6435    3.9490 C   0  0  0  0  0  0  0  0  0  0  0  0
    4.4499   12.1753    3.1904 C   0  0  0  0  0  0  0  0  0  0  0  0
    5.7146   11.5726    3.1972 C   0  0  0  0  0  0  0  0  0  0  0  0
    6.7376   12.2058    2.4918 O   0  0  0  0  0  0  0  0  0  0  0  0
   10.4123   10.0718    3.4269 C   0  0  0  0  0  0  0  0  0  0  0  0
   11.8917    9.6372    3.3181 C   0  0  0  0  0  0  0  0  0  0  0  0
   13.9565    7.9175    0.2155 H   0  0  0  0  0  0  0  0  0  0  0  0
   15.0706    6.8563    1.1523 H   0  0  0  0  0  0  0  0  0  0  0  0
   13.3804    6.3502    0.9044 H   0  0  0  0  0  0  0  0  0  0  0  0
   13.7129    7.2284    3.2200 H   0  0  0  0  0  0  0  0  0  0  0  0
   15.5971    8.6431    2.5861 H   0  0  0  0  0  0  0  0  0  0  0  0
   14.5114    9.4008    3.6161 H   0  0  0  0  0  0  0  0  0  0  0  0
   14.5244    9.7983    1.9496 H   0  0  0  0  0  0  0  0  0  0  0  0
   12.0083    8.9216    1.2760 H   0  0  0  0  0  0  0  0  0  0  0  0
   11.4000    6.4975    1.8611 H   0  0  0  0  0  0  0  0  0  0  0  0
   11.3411    6.9723    3.5791 H   0  0  0  0  0  0  0  0  0  0  0  0
    9.4001    7.4713    1.3403 H   0  0  0  0  0  0  0  0  0  0  0  0
    9.1270    7.1193    3.0658 H   0  0  0  0  0  0  0  0  0  0  0  0
    9.6927    9.6195    1.6317 H   0  0  0  0  0  0  0  0  0  0  0  0
    7.5666    9.2691    4.8256 H   0  0  0  0  0  0  0  0  0  0  0  0
    5.0187    8.9685    5.2957 H   0  0  0  0  0  0  0  0  0  0  0  0
    2.8109   10.0813    5.3014 H   0  0  0  0  0  0  0  0  0  0  0  0
    2.4375   12.1238    3.9501 H   0  0  0  0  0  0  0  0  0  0  0  0
    4.2844   13.0783    2.6163 H   0  0  0  0  0  0  0  0  0  0  0  0
    7.7187   12.0361    2.6675 H   0  0  0  0  0  0  0  0  0  0  0  0
   10.1136   10.0307    4.4970 H   0  0  0  0  0  0  0  0  0  0  0  0
   10.3088   11.1375    3.1177 H   0  0  0  0  0  0  0  0  0  0  0  0
   12.4900   10.5354    3.0524 H   0  0  0  0  0  0  0  0  0  0  0  0
   12.2298    9.3015    4.3240 H   0  0  0  0  0  0  0  0  0  0  0  0
  1  2  1  0
  2  3  1  0
  2  4  1  0
  4  5  1  0
  5  6  1  0
  6  7  1  0
  7  8  1  0
  8  9  2  0
  8 10  1  0
 10 11  1  0
 11 12  2  0
 12 13  1  0
 13 14  2  0
 14 15  1  0
 15 16  2  0
 16 17  1  0
  7 18  1  0
 18 19  1  0
 19  4  1  0
 16 11  1  0
  1 20  1  0
  1 21  1  0
  1 22  1  0
  2 23  1  0
  3 24  1  0
  3 25  1  0
  3 26  1  0
  4 27  1  0
  5 28  1  0
  5 29  1  0
  6 30  1  0
  6 31  1  0
  7 32  1  0
 10 33  1  0
 12 34  1  0
 13 35  1  0
 14 36  1  0
 15 37  1  0
 17 38  1  0
 18 39  1  0
 18 40  1  0
 19 41  1  0
 19 42  1  0
M  CHG  1   3   1
M  END
>  <EmbedRMS>  (206) 
0.17190302621350875

$$$$

     RDKit          3D

 42 43  0  0  0  0  0  0  0  0999 V2000
   14.0270    7.2309    1.0860 C   0  0  0  0  0  0  0  0  0  0  0  0
   13.6443    7.9633    2.3851 C   0  0  0  0  0  0  0  0  0  0  0  0
   14.6252    9.0253    2.6475 N   0  0  0  0  0  4  0  0  0  0  0  0
   12.1796    8.5084    2.2957 C   0  0  0  0  0  0  0  0  0  0  0  0
   11.1971    7.3492    2.5412 C   0  0  0  0  0  0  0  0  0  0  0  0
    9.7338    7.7397    2.3697 C   0  0  0  0  0  0  0  0  0  0  0  0
    9.4420    9.2074    2.6412 C   0  0  0  0  0  0  0  0  0  0  0  0
    7.9754    9.5223    2.7309 C   0  0  0  0  0  0  0  0  0  0  0  0
    7.3935    9.6437    1.6253 O   0  0  0  0  0  0  0  0  0  0  0  0
    7.2201    9.7115    3.9452 N   0  0  0  0  0  0  0  0  0  0  0  0
    5.9337   10.3832    3.9415 C   0  0  0  0  0  0  0  0  0  0  0  0
    4.8726    9.8658    4.7077 C   0  0  0  0  0  0  0  0  0  0  0  0
    3.6188   10.4931    4.7106 C   0  0  0  0  0  0  0  0  0  0  0  0
    3.4074   11.6435    3.9490 C   0  0  0  0  0  0  0  0  0  0  0  0
    4.4499   12.1753    3.1904 C   0  0  0  0  0  0  0  0  0  0  0  0
    5.7146   11.5726    3.1972 C   0  0  0  0  0  0  0  0  0  0  0  0
    6.7376   12.2058    2.4918 O   0  0  0  0  0  0  0  0  0  0  0  0
   10.4123   10.0718    3.4269 C   0  0  0  0  0  0  0  0  0  0  0  0
   11.8917    9.6372    3.3181 C   0  0  0  0  0  0  0  0  0  0  0  0
   13.9565    7.9175    0.2155 H   0  0  0  0  0  0  0  0  0  0  0  0
   15.0706    6.8563    1.1523 H   0  0  0  0  0  0  0  0  0  0  0  0
   13.3804    6.3502    0.9044 H   0  0  0  0  0  0  0  0  0  0  0  0
   13.7129    7.2284    3.2200 H   0  0  0  0  0  0  0  0  0  0  0  0
   15.5971    8.6431    2.5861 H   0  0  0  0  0  0  0  0  0  0  0  0
   14.5114    9.4008    3.6161 H   0  0  0  0  0  0  0  0  0  0  0  0
   14.5244    9.7983    1.9496 H   0  0  0  0  0  0  0  0  0  0  0  0
   12.0083    8.9216    1.2760 H   0  0  0  0  0  0  0  0  0  0  0  0
   11.4000    6.4975    1.8611 H   0  0  0  0  0  0  0  0  0  0  0  0
   11.3411    6.9723    3.5791 H   0  0  0  0  0  0  0  0  0  0  0  0
    9.4001    7.4713    1.3403 H   0  0  0  0  0  0  0  0  0  0  0  0
    9.1270    7.1193    3.0658 H   0  0  0  0  0  0  0  0  0  0  0  0
    9.6927    9.6195    1.6317 H   0  0  0  0  0  0  0  0  0  0  0  0
    7.5666    9.2691    4.8256 H   0  0  0  0  0  0  0  0  0  0  0  0
    5.0187    8.9685    5.2957 H   0  0  0  0  0  0  0  0  0  0  0  0
    2.8109   10.0813    5.3014 H   0  0  0  0  0  0  0  0  0  0  0  0
    2.4375   12.1238    3.9501 H   0  0  0  0  0  0  0  0  0  0  0  0
    4.2844   13.0783    2.6163 H   0  0  0  0  0  0  0  0  0  0  0  0
    7.7187   12.0361    2.6675 H   0  0  0  0  0  0  0  0  0  0  0  0
   10.1136   10.0307    4.4970 H   0  0  0  0  0  0  0  0  0  0  0  0
   10.3088   11.1375    3.1177 H   0  0  0  0  0  0  0  0  0  0  0  0
   12.4900   10.5354    3.0524 H   0  0  0  0  0  0  0  0  0  0  0  0
   12.2298    9.3015    4.3240 H   0  0  0  0  0  0  0  0  0  0  0  0
  1  2  1  0
  2  3  1  0
  2  4  1  0
  4  5  1  0
  5  6  1  0
  6  7  1  0
  7  8  1  0
  8  9  2  0
  8 10  1  0
 10 11  1  0
 11 12  2  0
 12 13  1  0
 13 14  2  0
 14 15  1  0
 15 16  2  0
 16 17  1  0
  7 18  1  0
 18 19  1  0
 19  4  1  0
 16 11  1  0
  1 20  1  0
  1 21  1  0
  1 22  1  0
  2 23  1  0
  3 24  1  0
  3 25  1  0
  3 26  1  0
  4 27  1  0
  5 28  1  0
  5 29  1  0
  6 30  1  0
  6 31  1  0
  7 32  1  0
 10 33  1  0
 12 34  1  0
 13 35  1  0
 14 36  1  0
 15 37  1  0
 17 38  1  0
 18 39  1  0
 18 40  1  0
 19 41  1  0
 19 42  1  0
M  CHG  1   3   1
M  END
>  <EmbedRMS>  (207) 
0.17190302621350875

$$$$

     RDKit          3D

 42 43  0  0  0  0  0  0  0  0999 V2000
   13.9855    7.0988    1.1847 C   0  0  0  0  0  0  0  0  0  0  0  0
   13.5828    8.3571    1.9535 C   0  0  0  0  0  0  0  0  0  0  0  0
   14.7140    8.8840    2.7291 N   0  0  0  0  0  4  0  0  0  0  0  0
   12.2797    8.3204    2.7750 C   0  0  0  0  0  0  0  0  0  0  0  0
   11.1641    7.3088    2.4002 C   0  0  0  0  0  0  0  0  0  0  0  0
    9.8069    7.9177    2.0866 C   0  0  0  0  0  0  0  0  0  0  0  0
    9.4225    8.9843    3.1103 C   0  0  0  0  0  0  0  0  0  0  0  0
    8.0227    9.4652    2.8552 C   0  0  0  0  0  0  0  0  0  0  0  0
    7.6549    9.6743    1.6691 O   0  0  0  0  0  0  0  0  0  0  0  0
    7.1455    9.7021    3.9688 N   0  0  0  0  0  0  0  0  0  0  0  0
    5.7738   10.1424    3.9195 C   0  0  0  0  0  0  0  0  0  0  0  0
    5.1005   10.4448    2.7150 C   0  0  0  0  0  0  0  0  0  0  0  0
    3.7764   10.8728    2.7318 C   0  0  0  0  0  0  0  0  0  0  0  0
    3.0962   11.0092    3.9421 C   0  0  0  0  0  0  0  0  0  0  0  0
    1.7731   11.4384    3.9597 O   0  0  0  0  0  0  0  0  0  0  0  0
    3.7469   10.7137    5.1420 C   0  0  0  0  0  0  0  0  0  0  0  0
    5.0755   10.2835    5.1315 C   0  0  0  0  0  0  0  0  0  0  0  0
   10.4017   10.1485    3.0097 C   0  0  0  0  0  0  0  0  0  0  0  0
   11.8359    9.7179    3.3062 C   0  0  0  0  0  0  0  0  0  0  0  0
   15.0012    7.2126    0.7496 H   0  0  0  0  0  0  0  0  0  0  0  0
   13.9902    6.2217    1.8658 H   0  0  0  0  0  0  0  0  0  0  0  0
   13.2933    6.9110    0.3373 H   0  0  0  0  0  0  0  0  0  0  0  0
   13.3813    9.1011    1.1487 H   0  0  0  0  0  0  0  0  0  0  0  0
   14.4953    9.7900    3.1967 H   0  0  0  0  0  0  0  0  0  0  0  0
   14.9986    8.1899    3.4581 H   0  0  0  0  0  0  0  0  0  0  0  0
   15.5308    9.0540    2.0978 H   0  0  0  0  0  0  0  0  0  0  0  0
   12.6643    7.8396    3.7056 H   0  0  0  0  0  0  0  0  0  0  0  0
   11.0093    6.5964    3.2441 H   0  0  0  0  0  0  0  0  0  0  0  0
   11.4479    6.6761    1.5392 H   0  0  0  0  0  0  0  0  0  0  0  0
    9.0437    7.1074    2.0806 H   0  0  0  0  0  0  0  0  0  0  0  0
    9.8406    8.3561    1.0636 H   0  0  0  0  0  0  0  0  0  0  0  0
    9.4796    8.5410    4.1301 H   0  0  0  0  0  0  0  0  0  0  0  0
    7.5502    9.5346    4.9182 H   0  0  0  0  0  0  0  0  0  0  0  0
    5.5462   10.3731    1.7433 H   0  0  0  0  0  0  0  0  0  0  0  0
    3.2760   11.1015    1.7989 H   0  0  0  0  0  0  0  0  0  0  0  0
    1.2752   11.6601    3.1053 H   0  0  0  0  0  0  0  0  0  0  0  0
    3.2225   10.8181    6.0834 H   0  0  0  0  0  0  0  0  0  0  0  0
    5.5616   10.0607    6.0732 H   0  0  0  0  0  0  0  0  0  0  0  0
   10.1085   10.9502    3.7237 H   0  0  0  0  0  0  0  0  0  0  0  0
   10.3601   10.5843    1.9856 H   0  0  0  0  0  0  0  0  0  0  0  0
   12.4802   10.5253    2.8999 H   0  0  0  0  0  0  0  0  0  0  0  0
   11.9699    9.7484    4.4120 H   0  0  0  0  0  0  0  0  0  0  0  0
  1  2  1  0
  2  3  1  0
  2  4  1  0
  4  5  1  0
  5  6  1  0
  6  7  1  0
  7  8  1  0
  8  9  2  0
  8 10  1  0
 10 11  1  0
 11 12  2  0
 12 13  1  0
 13 14  2  0
 14 15  1  0
 14 16  1  0
 16 17  2  0
  7 18  1  0
 18 19  1  0
 19  4  1  0
 17 11  1  0
  1 20  1  0
  1 21  1  0
  1 22  1  0
  2 23  1  0
  3 24  1  0
  3 25  1  0
  3 26  1  0
  4 27  1  0
  5 28  1  0
  5 29  1  0
  6 30  1  0
  6 31  1  0
  7 32  1  0
 10 33  1  0
 12 34  1  0
 13 35  1  0
 15 36  1  0
 16 37  1  0
 17 38  1  0
 18 39  1  0
 18 40  1  0
 19 41  1  0
 19 42  1  0
M  CHG  1   3   1
M  END
>  <EmbedRMS>  (208) 
0.19734430401381536

$$$$

     RDKit          3D

 42 43  0  0  0  0  0  0  0  0999 V2000
   13.9855    7.0988    1.1847 C   0  0  0  0  0  0  0  0  0  0  0  0
   13.5828    8.3571    1.9535 C   0  0  0  0  0  0  0  0  0  0  0  0
   14.7140    8.8840    2.7291 N   0  0  0  0  0  4  0  0  0  0  0  0
   12.2797    8.3204    2.7750 C   0  0  0  0  0  0  0  0  0  0  0  0
   11.1641    7.3088    2.4002 C   0  0  0  0  0  0  0  0  0  0  0  0
    9.8069    7.9177    2.0866 C   0  0  0  0  0  0  0  0  0  0  0  0
    9.4225    8.9843    3.1103 C   0  0  0  0  0  0  0  0  0  0  0  0
    8.0227    9.4652    2.8552 C   0  0  0  0  0  0  0  0  0  0  0  0
    7.6549    9.6743    1.6691 O   0  0  0  0  0  0  0  0  0  0  0  0
    7.1455    9.7021    3.9688 N   0  0  0  0  0  0  0  0  0  0  0  0
    5.7738   10.1424    3.9195 C   0  0  0  0  0  0  0  0  0  0  0  0
    5.1005   10.4448    2.7150 C   0  0  0  0  0  0  0  0  0  0  0  0
    3.7764   10.8728    2.7318 C   0  0  0  0  0  0  0  0  0  0  0  0
    3.0962   11.0092    3.9421 C   0  0  0  0  0  0  0  0  0  0  0  0
    1.7731   11.4384    3.9597 O   0  0  0  0  0  0  0  0  0  0  0  0
    3.7469   10.7137    5.1420 C   0  0  0  0  0  0  0  0  0  0  0  0
    5.0755   10.2835    5.1315 C   0  0  0  0  0  0  0  0  0  0  0  0
   10.4017   10.1485    3.0097 C   0  0  0  0  0  0  0  0  0  0  0  0
   11.8359    9.7179    3.3062 C   0  0  0  0  0  0  0  0  0  0  0  0
   15.0012    7.2126    0.7496 H   0  0  0  0  0  0  0  0  0  0  0  0
   13.9902    6.2217    1.8658 H   0  0  0  0  0  0  0  0  0  0  0  0
   13.2933    6.9110    0.3373 H   0  0  0  0  0  0  0  0  0  0  0  0
   13.3813    9.1011    1.1487 H   0  0  0  0  0  0  0  0  0  0  0  0
   14.4953    9.7900    3.1967 H   0  0  0  0  0  0  0  0  0  0  0  0
   14.9986    8.1899    3.4581 H   0  0  0  0  0  0  0  0  0  0  0  0
   15.5308    9.0540    2.0978 H   0  0  0  0  0  0  0  0  0  0  0  0
   12.6643    7.8396    3.7056 H   0  0  0  0  0  0  0  0  0  0  0  0
   11.0093    6.5964    3.2441 H   0  0  0  0  0  0  0  0  0  0  0  0
   11.4479    6.6761    1.5392 H   0  0  0  0  0  0  0  0  0  0  0  0
    9.0437    7.1074    2.0806 H   0  0  0  0  0  0  0  0  0  0  0  0
    9.8406    8.3561    1.0636 H   0  0  0  0  0  0  0  0  0  0  0  0
    9.4796    8.5410    4.1301 H   0  0  0  0  0  0  0  0  0  0  0  0
    7.5502    9.5346    4.9182 H   0  0  0  0  0  0  0  0  0  0  0  0
    5.5462   10.3731    1.7433 H   0  0  0  0  0  0  0  0  0  0  0  0
    3.2760   11.1015    1.7989 H   0  0  0  0  0  0  0  0  0  0  0  0
    1.2752   11.6601    3.1053 H   0  0  0  0  0  0  0  0  0  0  0  0
    3.2225   10.8181    6.0834 H   0  0  0  0  0  0  0  0  0  0  0  0
    5.5616   10.0607    6.0732 H   0  0  0  0  0  0  0  0  0  0  0  0
   10.1085   10.9502    3.7237 H   0  0  0  0  0  0  0  0  0  0  0  0
   10.3601   10.5843    1.9856 H   0  0  0  0  0  0  0  0  0  0  0  0
   12.4802   10.5253    2.8999 H   0  0  0  0  0  0  0  0  0  0  0  0
   11.9699    9.7484    4.4120 H   0  0  0  0  0  0  0  0  0  0  0  0
  1  2  1  0
  2  3  1  0
  2  4  1  0
  4  5  1  0
  5  6  1  0
  6  7  1  0
  7  8  1  0
  8  9  2  0
  8 10  1  0
 10 11  1  0
 11 12  2  0
 12 13  1  0
 13 14  2  0
 14 15  1  0
 14 16  1  0
 16 17  2  0
  7 18  1  0
 18 19  1  0
 19  4  1  0
 17 11  1  0
  1 20  1  0
  1 21  1  0
  1 22  1  0
  2 23  1  0
  3 24  1  0
  3 25  1  0
  3 26  1  0
  4 27  1  0
  5 28  1  0
  5 29  1  0
  6 30  1  0
  6 31  1  0
  7 32  1  0
 10 33  1  0
 12 34  1  0
 13 35  1  0
 15 36  1  0
 16 37  1  0
 17 38  1  0
 18 39  1  0
 18 40  1  0
 19 41  1  0
 19 42  1  0
M  CHG  1   3   1
M  END
>  <EmbedRMS>  (209) 
0.19734430401381536

$$$$

     RDKit          3D

 42 43  0  0  0  0  0  0  0  0999 V2000
   14.0286    7.2307    1.0854 C   0  0  0  0  0  0  0  0  0  0  0  0
   13.6492    7.9628    2.3855 C   0  0  0  0  0  0  0  0  0  0  0  0
   14.6304    9.0249    2.6459 N   0  0  0  0  0  4  0  0  0  0  0  0
   12.1856    8.5085    2.2997 C   0  0  0  0  0  0  0  0  0  0  0  0
   11.2037    7.3486    2.5457 C   0  0  0  0  0  0  0  0  0  0  0  0
    9.7420    7.7421    2.3808 C   0  0  0  0  0  0  0  0  0  0  0  0
    9.4599    9.2102    2.6622 C   0  0  0  0  0  0  0  0  0  0  0  0
    7.9983    9.5330    2.7158 C   0  0  0  0  0  0  0  0  0  0  0  0
    7.4784    9.6212    1.5832 O   0  0  0  0  0  0  0  0  0  0  0  0
    7.1939    9.7089    3.9082 N   0  0  0  0  0  0  0  0  0  0  0  0
    5.7991   10.1416    3.9063 C   0  0  0  0  0  0  0  0  0  0  0  0
    5.0926   10.4759    2.7187 C   0  0  0  0  0  0  0  0  0  0  0  0
    3.7644   10.8827    2.7546 C   0  0  0  0  0  0  0  0  0  0  0  0
    3.1026   10.9992    3.9671 C   0  0  0  0  0  0  0  0  0  0  0  0
    3.7690   10.7002    5.1580 C   0  0  0  0  0  0  0  0  0  0  0  0
    3.1064   10.8324    6.3752 O   0  0  0  0  0  0  0  0  0  0  0  0
    5.1069   10.2673    5.1288 C   0  0  0  0  0  0  0  0  0  0  0  0
   10.4247   10.0709    3.4489 C   0  0  0  0  0  0  0  0  0  0  0  0
   11.9027    9.6384    3.3243 C   0  0  0  0  0  0  0  0  0  0  0  0
   15.0725    6.8565    1.1489 H   0  0  0  0  0  0  0  0  0  0  0  0
   13.9556    7.9173    0.2150 H   0  0  0  0  0  0  0  0  0  0  0  0
   13.3821    6.3496    0.9055 H   0  0  0  0  0  0  0  0  0  0  0  0
   13.7198    7.2278    3.2202 H   0  0  0  0  0  0  0  0  0  0  0  0
   14.5206    9.3993    3.6154 H   0  0  0  0  0  0  0  0  0  0  0  0
   14.5274    9.7986    1.9491 H   0  0  0  0  0  0  0  0  0  0  0  0
   15.6022    8.6430    2.5807 H   0  0  0  0  0  0  0  0  0  0  0  0
   12.0135    8.9224    1.2804 H   0  0  0  0  0  0  0  0  0  0  0  0
   11.3510    6.9691    3.5821 H   0  0  0  0  0  0  0  0  0  0  0  0
   11.4029    6.4986    1.8623 H   0  0  0  0  0  0  0  0  0  0  0  0
    9.4051    7.4803    1.3506 H   0  0  0  0  0  0  0  0  0  0  0  0
    9.1351    7.1208    3.0760 H   0  0  0  0  0  0  0  0  0  0  0  0
    9.7394    9.6215    1.6586 H   0  0  0  0  0  0  0  0  0  0  0  0
    7.6574    9.5294    4.8271 H   0  0  0  0  0  0  0  0  0  0  0  0
    5.5047   10.4911    1.7339 H   0  0  0  0  0  0  0  0  0  0  0  0
    3.2479   11.1331    1.8361 H   0  0  0  0  0  0  0  0  0  0  0  0
    2.0717   11.3297    3.9845 H   0  0  0  0  0  0  0  0  0  0  0  0
    2.1429   11.1425    6.4255 H   0  0  0  0  0  0  0  0  0  0  0  0
    5.6091   10.0352    6.0598 H   0  0  0  0  0  0  0  0  0  0  0  0
   10.3163   11.1397    3.1512 H   0  0  0  0  0  0  0  0  0  0  0  0
   10.1331   10.0169    4.5202 H   0  0  0  0  0  0  0  0  0  0  0  0
   12.2507    9.3044    4.3273 H   0  0  0  0  0  0  0  0  0  0  0  0
   12.4968   10.5375    3.0525 H   0  0  0  0  0  0  0  0  0  0  0  0
  1  2  1  0
  2  3  1  0
  2  4  1  0
  4  5  1  0
  5  6  1  0
  6  7  1  0
  7  8  1  0
  8  9  2  0
  8 10  1  0
 10 11  1  0
 11 12  2  0
 12 13  1  0
 13 14  2  0
 14 15  1  0
 15 16  1  0
 15 17  2  0
  7 18  1  0
 18 19  1  0
 19  4  1  0
 17 11  1  0
  1 20  1  0
  1 21  1  0
  1 22  1  0
  2 23  1  0
  3 24  1  0
  3 25  1  0
  3 26  1  0
  4 27  1  0
  5 28  1  0
  5 29  1  0
  6 30  1  0
  6 31  1  0
  7 32  1  0
 10 33  1  0
 12 34  1  0
 13 35  1  0
 14 36  1  0
 16 37  1  0
 17 38  1  0
 18 39  1  0
 18 40  1  0
 19 41  1  0
 19 42  1  0
M  CHG  1   3   1
M  END
>  <EmbedRMS>  (210) 
0.1698449097507964

$$$$

     RDKit          3D

 41 42  0  0  0  0  0  0  0  0999 V2000
    2.1474   11.2489    4.8003 C   0  0  0  0  0  0  0  0  0  0  0  0
    3.4860   10.8494    4.2749 C   0  0  0  0  0  0  0  0  0  0  0  0
    4.7893   10.3721    5.2223 S   0  0  0  0  0  0  0  0  0  0  0  0
    5.7861   10.1355    3.8905 C   0  0  0  0  0  0  0  0  0  0  0  0
    7.1443    9.6976    3.9942 N   0  0  0  0  0  0  0  0  0  0  0  0
    8.0081    9.4688    2.8753 C   0  0  0  0  0  0  0  0  0  0  0  0
    7.6061    9.6887    1.6975 O   0  0  0  0  0  0  0  0  0  0  0  0
    9.4185    8.9859    3.1162 C   0  0  0  0  0  0  0  0  0  0  0  0
    9.7824    7.9371    2.0718 C   0  0  0  0  0  0  0  0  0  0  0  0
   11.1453    7.3164    2.3192 C   0  0  0  0  0  0  0  0  0  0  0  0
   12.2315    8.2992    2.7953 C   0  0  0  0  0  0  0  0  0  0  0  0
   13.7091    7.9152    2.4297 C   0  0  0  0  0  0  0  0  0  0  0  0
   13.9320    7.3324    1.0260 C   0  0  0  0  0  0  0  0  0  0  0  0
   14.6474    9.0168    2.6730 N   0  0  0  0  0  4  0  0  0  0  0  0
   11.8841    9.7893    2.9953 C   0  0  0  0  0  0  0  0  0  0  0  0
   10.3918   10.1689    3.0611 C   0  0  0  0  0  0  0  0  0  0  0  0
    5.1571   10.4106    2.7251 N   0  0  0  0  0  0  0  0  0  0  0  0
    3.8745   10.8092    2.9374 C   0  0  0  0  0  0  0  0  0  0  0  0
    2.7916   11.2447    1.5807 S   0  0  0  0  0  0  0  0  0  0  0  0
    2.1309   11.1786    5.9081 H   0  0  0  0  0  0  0  0  0  0  0  0
    1.3679   10.5764    4.3856 H   0  0  0  0  0  0  0  0  0  0  0  0
    1.9272   12.2952    4.5027 H   0  0  0  0  0  0  0  0  0  0  0  0
    7.5223    9.5329    4.9542 H   0  0  0  0  0  0  0  0  0  0  0  0
    9.4810    8.5139    4.1224 H   0  0  0  0  0  0  0  0  0  0  0  0
    9.7865    8.4059    1.0612 H   0  0  0  0  0  0  0  0  0  0  0  0
    9.0174    7.1285    2.0631 H   0  0  0  0  0  0  0  0  0  0  0  0
   11.0297    6.4820    3.0499 H   0  0  0  0  0  0  0  0  0  0  0  0
   11.4294    6.8343    1.3653 H   0  0  0  0  0  0  0  0  0  0  0  0
   12.2348    8.0290    3.8798 H   0  0  0  0  0  0  0  0  0  0  0  0
   14.0060    7.0854    3.1158 H   0  0  0  0  0  0  0  0  0  0  0  0
   13.4420    7.9752    0.2641 H   0  0  0  0  0  0  0  0  0  0  0  0
   15.0165    7.2741    0.7926 H   0  0  0  0  0  0  0  0  0  0  0  0
   13.5355    6.2978    0.9563 H   0  0  0  0  0  0  0  0  0  0  0  0
   14.5083    9.7865    1.9795 H   0  0  0  0  0  0  0  0  0  0  0  0
   15.6306    8.6702    2.5845 H   0  0  0  0  0  0  0  0  0  0  0  0
   14.5391    9.3814    3.6466 H   0  0  0  0  0  0  0  0  0  0  0  0
   12.3141   10.3477    2.1368 H   0  0  0  0  0  0  0  0  0  0  0  0
   12.3894   10.1919    3.9031 H   0  0  0  0  0  0  0  0  0  0  0  0
   10.2170   10.8158    3.9493 H   0  0  0  0  0  0  0  0  0  0  0  0
   10.1519   10.7907    2.1681 H   0  0  0  0  0  0  0  0  0  0  0  0
    3.1851   12.5949    1.6322 H   0  0  0  0  0  0  0  0  0  0  0  0
  1  2  1  0
  2  3  1  0
  3  4  1  0
  4  5  1  0
  5  6  1  0
  6  7  2  0
  6  8  1  0
  8  9  1  0
  9 10  1  0
 10 11  1  0
 11 12  1  0
 12 13  1  0
 12 14  1  0
 11 15  1  0
 15 16  1  0
  4 17  2  0
 17 18  1  0
 18 19  1  0
 18  2  2  0
 16  8  1  0
  1 20  1  0
  1 21  1  0
  1 22  1  0
  5 23  1  0
  8 24  1  0
  9 25  1  0
  9 26  1  0
 10 27  1  0
 10 28  1  0
 11 29  1  0
 12 30  1  0
 13 31  1  0
 13 32  1  0
 13 33  1  0
 14 34  1  0
 14 35  1  0
 14 36  1  0
 15 37  1  0
 15 38  1  0
 16 39  1  0
 16 40  1  0
 19 41  1  0
M  CHG  1  14   1
M  END
>  <EmbedRMS>  (211) 
0.1594382611687576

$$$$

     RDKit          3D

 42 43  0  0  0  0  0  0  0  0999 V2000
   14.0270    7.2309    1.0860 C   0  0  0  0  0  0  0  0  0  0  0  0
   13.6443    7.9633    2.3851 C   0  0  0  0  0  0  0  0  0  0  0  0
   14.6252    9.0253    2.6475 N   0  0  0  0  0  4  0  0  0  0  0  0
   12.1796    8.5084    2.2957 C   0  0  0  0  0  0  0  0  0  0  0  0
   11.1971    7.3492    2.5412 C   0  0  0  0  0  0  0  0  0  0  0  0
    9.7338    7.7397    2.3697 C   0  0  0  0  0  0  0  0  0  0  0  0
    9.4420    9.2074    2.6412 C   0  0  0  0  0  0  0  0  0  0  0  0
    7.9754    9.5223    2.7309 C   0  0  0  0  0  0  0  0  0  0  0  0
    7.3935    9.6437    1.6253 O   0  0  0  0  0  0  0  0  0  0  0  0
    7.2201    9.7115    3.9452 N   0  0  0  0  0  0  0  0  0  0  0  0
    5.9337   10.3832    3.9415 C   0  0  0  0  0  0  0  0  0  0  0  0
    4.8726    9.8658    4.7077 C   0  0  0  0  0  0  0  0  0  0  0  0
    3.6188   10.4931    4.7106 C   0  0  0  0  0  0  0  0  0  0  0  0
    3.4074   11.6435    3.9490 C   0  0  0  0  0  0  0  0  0  0  0  0
    4.4499   12.1753    3.1904 C   0  0  0  0  0  0  0  0  0  0  0  0
    5.7146   11.5726    3.1972 C   0  0  0  0  0  0  0  0  0  0  0  0
    6.7376   12.2058    2.4918 O   0  0  0  0  0  0  0  0  0  0  0  0
   10.4123   10.0718    3.4269 C   0  0  0  0  0  0  0  0  0  0  0  0
   11.8917    9.6372    3.3181 C   0  0  0  0  0  0  0  0  0  0  0  0
   13.9565    7.9175    0.2155 H   0  0  0  0  0  0  0  0  0  0  0  0
   15.0706    6.8563    1.1523 H   0  0  0  0  0  0  0  0  0  0  0  0
   13.3804    6.3502    0.9044 H   0  0  0  0  0  0  0  0  0  0  0  0
   13.7129    7.2284    3.2200 H   0  0  0  0  0  0  0  0  0  0  0  0
   15.5971    8.6431    2.5861 H   0  0  0  0  0  0  0  0  0  0  0  0
   14.5114    9.4008    3.6161 H   0  0  0  0  0  0  0  0  0  0  0  0
   14.5244    9.7983    1.9496 H   0  0  0  0  0  0  0  0  0  0  0  0
   12.0083    8.9216    1.2760 H   0  0  0  0  0  0  0  0  0  0  0  0
   11.4000    6.4975    1.8611 H   0  0  0  0  0  0  0  0  0  0  0  0
   11.3411    6.9723    3.5791 H   0  0  0  0  0  0  0  0  0  0  0  0
    9.4001    7.4713    1.3403 H   0  0  0  0  0  0  0  0  0  0  0  0
    9.1270    7.1193    3.0658 H   0  0  0  0  0  0  0  0  0  0  0  0
    9.6927    9.6195    1.6317 H   0  0  0  0  0  0  0  0  0  0  0  0
    7.5666    9.2691    4.8256 H   0  0  0  0  0  0  0  0  0  0  0  0
    5.0187    8.9685    5.2957 H   0  0  0  0  0  0  0  0  0  0  0  0
    2.8109   10.0813    5.3014 H   0  0  0  0  0  0  0  0  0  0  0  0
    2.4375   12.1238    3.9501 H   0  0  0  0  0  0  0  0  0  0  0  0
    4.2844   13.0783    2.6163 H   0  0  0  0  0  0  0  0  0  0  0  0
    7.7187   12.0361    2.6675 H   0  0  0  0  0  0  0  0  0  0  0  0
   10.1136   10.0307    4.4970 H   0  0  0  0  0  0  0  0  0  0  0  0
   10.3088   11.1375    3.1177 H   0  0  0  0  0  0  0  0  0  0  0  0
   12.4900   10.5354    3.0524 H   0  0  0  0  0  0  0  0  0  0  0  0
   12.2298    9.3015    4.3240 H   0  0  0  0  0  0  0  0  0  0  0  0
  1  2  1  0
  2  3  1  0
  2  4  1  0
  4  5  1  0
  5  6  1  0
  6  7  1  0
  7  8  1  0
  8  9  2  0
  8 10  1  0
 10 11  1  0
 11 12  2  0
 12 13  1  0
 13 14  2  0
 14 15  1  0
 15 16  2  0
 16 17  1  0
  7 18  1  0
 18 19  1  0
 19  4  1  0
 16 11  1  0
  1 20  1  0
  1 21  1  0
  1 22  1  0
  2 23  1  0
  3 24  1  0
  3 25  1  0
  3 26  1  0
  4 27  1  0
  5 28  1  0
  5 29  1  0
  6 30  1  0
  6 31  1  0
  7 32  1  0
 10 33  1  0
 12 34  1  0
 13 35  1  0
 14 36  1  0
 15 37  1  0
 17 38  1  0
 18 39  1  0
 18 40  1  0
 19 41  1  0
 19 42  1  0
M  CHG  1   3   1
M  END
>  <EmbedRMS>  (212) 
0.17190302621350875

$$$$

     RDKit          3D

 42 43  0  0  0  0  0  0  0  0999 V2000
   14.0124    7.0514    1.2523 C   0  0  0  0  0  0  0  0  0  0  0  0
   13.6025    8.3251    1.9901 C   0  0  0  0  0  0  0  0  0  0  0  0
   14.7054    8.8923    2.7685 N   0  0  0  0  0  4  0  0  0  0  0  0
   12.2655    8.3269    2.7701 C   0  0  0  0  0  0  0  0  0  0  0  0
   11.1838    7.4391    2.1384 C   0  0  0  0  0  0  0  0  0  0  0  0
    9.7514    7.7248    2.5530 C   0  0  0  0  0  0  0  0  0  0  0  0
    9.4603    9.2008    2.6537 C   0  0  0  0  0  0  0  0  0  0  0  0
    7.9987    9.5224    2.7095 C   0  0  0  0  0  0  0  0  0  0  0  0
    7.4760    9.6076    1.5790 O   0  0  0  0  0  0  0  0  0  0  0  0
    7.2074    9.7223    3.9046 N   0  0  0  0  0  0  0  0  0  0  0  0
    5.8030   10.1367    3.9177 C   0  0  0  0  0  0  0  0  0  0  0  0
    5.0970   10.4712    2.7293 C   0  0  0  0  0  0  0  0  0  0  0  0
    3.7713   10.8785    2.7614 C   0  0  0  0  0  0  0  0  0  0  0  0
    3.1267   10.9932    3.9797 C   0  0  0  0  0  0  0  0  0  0  0  0
    3.7907   10.6988    5.1238 N   0  0  0  0  0  0  0  0  0  0  0  0
    5.0866   10.2736    5.1382 C   0  0  0  0  0  0  0  0  0  0  0  0
    5.6800    9.9798    6.4060 N   0  0  0  0  0  0  0  0  0  0  0  0
   10.3921   10.0193    3.4982 C   0  0  0  0  0  0  0  0  0  0  0  0
   11.8548    9.7806    3.1294 C   0  0  0  0  0  0  0  0  0  0  0  0
   14.1196    6.2185    1.9785 H   0  0  0  0  0  0  0  0  0  0  0  0
   13.2674    6.7652    0.4818 H   0  0  0  0  0  0  0  0  0  0  0  0
   14.9831    7.1941    0.7313 H   0  0  0  0  0  0  0  0  0  0  0  0
   13.4364    9.0297    1.1421 H   0  0  0  0  0  0  0  0  0  0  0  0
   14.8412    8.3431    3.6480 H   0  0  0  0  0  0  0  0  0  0  0  0
   14.5245    9.8934    3.0052 H   0  0  0  0  0  0  0  0  0  0  0  0
   15.5945    8.8663    2.2181 H   0  0  0  0  0  0  0  0  0  0  0  0
   12.4751    7.8384    3.7485 H   0  0  0  0  0  0  0  0  0  0  0  0
   11.4114    6.3663    2.3254 H   0  0  0  0  0  0  0  0  0  0  0  0
   11.2145    7.5929    1.0375 H   0  0  0  0  0  0  0  0  0  0  0  0
    9.5703    7.2654    3.5493 H   0  0  0  0  0  0  0  0  0  0  0  0
    9.0597    7.2373    1.8295 H   0  0  0  0  0  0  0  0  0  0  0  0
    9.7510    9.5613    1.6343 H   0  0  0  0  0  0  0  0  0  0  0  0
    7.7327    9.6310    4.7980 H   0  0  0  0  0  0  0  0  0  0  0  0
    5.5120   10.4937    1.7461 H   0  0  0  0  0  0  0  0  0  0  0  0
    3.2508   11.1316    1.8459 H   0  0  0  0  0  0  0  0  0  0  0  0
    2.0976   11.3240    4.0231 H   0  0  0  0  0  0  0  0  0  0  0  0
    5.1642   10.2253    7.2802 H   0  0  0  0  0  0  0  0  0  0  0  0
    6.5357    9.3968    6.5162 H   0  0  0  0  0  0  0  0  0  0  0  0
   10.1526   11.1022    3.4040 H   0  0  0  0  0  0  0  0  0  0  0  0
   10.2426    9.7319    4.5616 H   0  0  0  0  0  0  0  0  0  0  0  0
   12.4793   10.1499    3.9719 H   0  0  0  0  0  0  0  0  0  0  0  0
   12.0678   10.4424    2.2609 H   0  0  0  0  0  0  0  0  0  0  0  0
  1  2  1  0
  2  3  1  0
  2  4  1  0
  4  5  1  0
  5  6  1  0
  6  7  1  0
  7  8  1  0
  8  9  2  0
  8 10  1  0
 10 11  1  0
 11 12  2  0
 12 13  1  0
 13 14  2  0
 14 15  1  0
 15 16  2  0
 16 17  1  0
  7 18  1  0
 18 19  1  0
 19  4  1  0
 16 11  1  0
  1 20  1  0
  1 21  1  0
  1 22  1  0
  2 23  1  0
  3 24  1  0
  3 25  1  0
  3 26  1  0
  4 27  1  0
  5 28  1  0
  5 29  1  0
  6 30  1  0
  6 31  1  0
  7 32  1  0
 10 33  1  0
 12 34  1  0
 13 35  1  0
 14 36  1  0
 17 37  1  0
 17 38  1  0
 18 39  1  0
 18 40  1  0
 19 41  1  0
 19 42  1  0
M  CHG  1   3   1
M  END
>  <EmbedRMS>  (213) 
0.28526031845668914

$$$$

     RDKit          3D

 42 43  0  0  0  0  0  0  0  0999 V2000
   14.0286    7.2307    1.0854 C   0  0  0  0  0  0  0  0  0  0  0  0
   13.6492    7.9628    2.3855 C   0  0  0  0  0  0  0  0  0  0  0  0
   14.6304    9.0249    2.6459 N   0  0  0  0  0  4  0  0  0  0  0  0
   12.1856    8.5085    2.2997 C   0  0  0  0  0  0  0  0  0  0  0  0
   11.2037    7.3486    2.5457 C   0  0  0  0  0  0  0  0  0  0  0  0
    9.7420    7.7421    2.3808 C   0  0  0  0  0  0  0  0  0  0  0  0
    9.4599    9.2102    2.6622 C   0  0  0  0  0  0  0  0  0  0  0  0
    7.9983    9.5330    2.7158 C   0  0  0  0  0  0  0  0  0  0  0  0
    7.4784    9.6212    1.5832 O   0  0  0  0  0  0  0  0  0  0  0  0
    7.1939    9.7089    3.9082 N   0  0  0  0  0  0  0  0  0  0  0  0
    5.7991   10.1416    3.9063 C   0  0  0  0  0  0  0  0  0  0  0  0
    5.0926   10.4759    2.7187 C   0  0  0  0  0  0  0  0  0  0  0  0
    3.7644   10.8827    2.7546 C   0  0  0  0  0  0  0  0  0  0  0  0
    3.1026   10.9992    3.9671 C   0  0  0  0  0  0  0  0  0  0  0  0
    3.7690   10.7002    5.1580 C   0  0  0  0  0  0  0  0  0  0  0  0
    3.1064   10.8324    6.3752 O   0  0  0  0  0  0  0  0  0  0  0  0
    5.1069   10.2673    5.1288 C   0  0  0  0  0  0  0  0  0  0  0  0
   10.4247   10.0709    3.4489 C   0  0  0  0  0  0  0  0  0  0  0  0
   11.9027    9.6384    3.3243 C   0  0  0  0  0  0  0  0  0  0  0  0
   15.0725    6.8565    1.1489 H   0  0  0  0  0  0  0  0  0  0  0  0
   13.9556    7.9173    0.2150 H   0  0  0  0  0  0  0  0  0  0  0  0
   13.3821    6.3496    0.9055 H   0  0  0  0  0  0  0  0  0  0  0  0
   13.7198    7.2278    3.2202 H   0  0  0  0  0  0  0  0  0  0  0  0
   14.5206    9.3993    3.6154 H   0  0  0  0  0  0  0  0  0  0  0  0
   14.5274    9.7986    1.9491 H   0  0  0  0  0  0  0  0  0  0  0  0
   15.6022    8.6430    2.5807 H   0  0  0  0  0  0  0  0  0  0  0  0
   12.0135    8.9224    1.2804 H   0  0  0  0  0  0  0  0  0  0  0  0
   11.3510    6.9691    3.5821 H   0  0  0  0  0  0  0  0  0  0  0  0
   11.4029    6.4986    1.8623 H   0  0  0  0  0  0  0  0  0  0  0  0
    9.4051    7.4803    1.3506 H   0  0  0  0  0  0  0  0  0  0  0  0
    9.1351    7.1208    3.0760 H   0  0  0  0  0  0  0  0  0  0  0  0
    9.7394    9.6215    1.6586 H   0  0  0  0  0  0  0  0  0  0  0  0
    7.6574    9.5294    4.8271 H   0  0  0  0  0  0  0  0  0  0  0  0
    5.5047   10.4911    1.7339 H   0  0  0  0  0  0  0  0  0  0  0  0
    3.2479   11.1331    1.8361 H   0  0  0  0  0  0  0  0  0  0  0  0
    2.0717   11.3297    3.9845 H   0  0  0  0  0  0  0  0  0  0  0  0
    2.1429   11.1425    6.4255 H   0  0  0  0  0  0  0  0  0  0  0  0
    5.6091   10.0352    6.0598 H   0  0  0  0  0  0  0  0  0  0  0  0
   10.3163   11.1397    3.1512 H   0  0  0  0  0  0  0  0  0  0  0  0
   10.1331   10.0169    4.5202 H   0  0  0  0  0  0  0  0  0  0  0  0
   12.2507    9.3044    4.3273 H   0  0  0  0  0  0  0  0  0  0  0  0
   12.4968   10.5375    3.0525 H   0  0  0  0  0  0  0  0  0  0  0  0
  1  2  1  0
  2  3  1  0
  2  4  1  0
  4  5  1  0
  5  6  1  0
  6  7  1  0
  7  8  1  0
  8  9  2  0
  8 10  1  0
 10 11  1  0
 11 12  2  0
 12 13  1  0
 13 14  2  0
 14 15  1  0
 15 16  1  0
 15 17  2  0
  7 18  1  0
 18 19  1  0
 19  4  1  0
 17 11  1  0
  1 20  1  0
  1 21  1  0
  1 22  1  0
  2 23  1  0
  3 24  1  0
  3 25  1  0
  3 26  1  0
  4 27  1  0
  5 28  1  0
  5 29  1  0
  6 30  1  0
  6 31  1  0
  7 32  1  0
 10 33  1  0
 12 34  1  0
 13 35  1  0
 14 36  1  0
 16 37  1  0
 17 38  1  0
 18 39  1  0
 18 40  1  0
 19 41  1  0
 19 42  1  0
M  CHG  1   3   1
M  END
>  <EmbedRMS>  (214) 
0.1698449097507964

$$$$

     RDKit          3D

 42 43  0  0  0  0  0  0  0  0999 V2000
   14.0270    7.2309    1.0860 C   0  0  0  0  0  0  0  0  0  0  0  0
   13.6443    7.9633    2.3851 C   0  0  0  0  0  0  0  0  0  0  0  0
   14.6252    9.0253    2.6475 N   0  0  0  0  0  4  0  0  0  0  0  0
   12.1796    8.5084    2.2957 C   0  0  0  0  0  0  0  0  0  0  0  0
   11.1971    7.3492    2.5412 C   0  0  0  0  0  0  0  0  0  0  0  0
    9.7338    7.7397    2.3697 C   0  0  0  0  0  0  0  0  0  0  0  0
    9.4420    9.2074    2.6412 C   0  0  0  0  0  0  0  0  0  0  0  0
    7.9754    9.5223    2.7309 C   0  0  0  0  0  0  0  0  0  0  0  0
    7.3935    9.6437    1.6253 O   0  0  0  0  0  0  0  0  0  0  0  0
    7.2201    9.7115    3.9452 N   0  0  0  0  0  0  0  0  0  0  0  0
    5.9337   10.3832    3.9415 C   0  0  0  0  0  0  0  0  0  0  0  0
    4.8726    9.8658    4.7077 C   0  0  0  0  0  0  0  0  0  0  0  0
    3.6188   10.4931    4.7106 C   0  0  0  0  0  0  0  0  0  0  0  0
    3.4074   11.6435    3.9490 C   0  0  0  0  0  0  0  0  0  0  0  0
    4.4499   12.1753    3.1904 C   0  0  0  0  0  0  0  0  0  0  0  0
    5.7146   11.5726    3.1972 C   0  0  0  0  0  0  0  0  0  0  0  0
    6.7376   12.2058    2.4918 O   0  0  0  0  0  0  0  0  0  0  0  0
   10.4123   10.0718    3.4269 C   0  0  0  0  0  0  0  0  0  0  0  0
   11.8917    9.6372    3.3181 C   0  0  0  0  0  0  0  0  0  0  0  0
   13.9565    7.9175    0.2155 H   0  0  0  0  0  0  0  0  0  0  0  0
   15.0706    6.8563    1.1523 H   0  0  0  0  0  0  0  0  0  0  0  0
   13.3804    6.3502    0.9044 H   0  0  0  0  0  0  0  0  0  0  0  0
   13.7129    7.2284    3.2200 H   0  0  0  0  0  0  0  0  0  0  0  0
   15.5971    8.6431    2.5861 H   0  0  0  0  0  0  0  0  0  0  0  0
   14.5114    9.4008    3.6161 H   0  0  0  0  0  0  0  0  0  0  0  0
   14.5244    9.7983    1.9496 H   0  0  0  0  0  0  0  0  0  0  0  0
   12.0083    8.9216    1.2760 H   0  0  0  0  0  0  0  0  0  0  0  0
   11.4000    6.4975    1.8611 H   0  0  0  0  0  0  0  0  0  0  0  0
   11.3411    6.9723    3.5791 H   0  0  0  0  0  0  0  0  0  0  0  0
    9.4001    7.4713    1.3403 H   0  0  0  0  0  0  0  0  0  0  0  0
    9.1270    7.1193    3.0658 H   0  0  0  0  0  0  0  0  0  0  0  0
    9.6927    9.6195    1.6317 H   0  0  0  0  0  0  0  0  0  0  0  0
    7.5666    9.2691    4.8256 H   0  0  0  0  0  0  0  0  0  0  0  0
    5.0187    8.9685    5.2957 H   0  0  0  0  0  0  0  0  0  0  0  0
    2.8109   10.0813    5.3014 H   0  0  0  0  0  0  0  0  0  0  0  0
    2.4375   12.1238    3.9501 H   0  0  0  0  0  0  0  0  0  0  0  0
    4.2844   13.0783    2.6163 H   0  0  0  0  0  0  0  0  0  0  0  0
    7.7187   12.0361    2.6675 H   0  0  0  0  0  0  0  0  0  0  0  0
   10.1136   10.0307    4.4970 H   0  0  0  0  0  0  0  0  0  0  0  0
   10.3088   11.1375    3.1177 H   0  0  0  0  0  0  0  0  0  0  0  0
   12.4900   10.5354    3.0524 H   0  0  0  0  0  0  0  0  0  0  0  0
   12.2298    9.3015    4.3240 H   0  0  0  0  0  0  0  0  0  0  0  0
  1  2  1  0
  2  3  1  0
  2  4  1  0
  4  5  1  0
  5  6  1  0
  6  7  1  0
  7  8  1  0
  8  9  2  0
  8 10  1  0
 10 11  1  0
 11 12  2  0
 12 13  1  0
 13 14  2  0
 14 15  1  0
 15 16  2  0
 16 17  1  0
  7 18  1  0
 18 19  1  0
 19  4  1  0
 16 11  1  0
  1 20  1  0
  1 21  1  0
  1 22  1  0
  2 23  1  0
  3 24  1  0
  3 25  1  0
  3 26  1  0
  4 27  1  0
  5 28  1  0
  5 29  1  0
  6 30  1  0
  6 31  1  0
  7 32  1  0
 10 33  1  0
 12 34  1  0
 13 35  1  0
 14 36  1  0
 15 37  1  0
 17 38  1  0
 18 39  1  0
 18 40  1  0
 19 41  1  0
 19 42  1  0
M  CHG  1   3   1
M  END
>  <EmbedRMS>  (215) 
0.17190302621350875

$$$$

     RDKit          3D

 41 42  0  0  0  0  0  0  0  0999 V2000
   14.0102    7.0511    1.2528 C   0  0  0  0  0  0  0  0  0  0  0  0
   13.5994    8.3247    1.9901 C   0  0  0  0  0  0  0  0  0  0  0  0
   14.7012    8.8917    2.7703 N   0  0  0  0  0  4  0  0  0  0  0  0
   12.2594    8.3275    2.7671 C   0  0  0  0  0  0  0  0  0  0  0  0
   11.1780    7.4410    2.1332 C   0  0  0  0  0  0  0  0  0  0  0  0
    9.7432    7.7242    2.5458 C   0  0  0  0  0  0  0  0  0  0  0  0
    9.4435    9.1986    2.6419 C   0  0  0  0  0  0  0  0  0  0  0  0
    7.9795    9.5183    2.7324 C   0  0  0  0  0  0  0  0  0  0  0  0
    7.4006    9.6407    1.6255 O   0  0  0  0  0  0  0  0  0  0  0  0
    7.2236    9.7021    3.9464 N   0  0  0  0  0  0  0  0  0  0  0  0
    5.9423   10.3756    3.9444 C   0  0  0  0  0  0  0  0  0  0  0  0
    5.0352    9.9943    4.7337 O   0  0  0  0  0  0  0  0  0  0  0  0
    5.6763   11.5324    3.0570 C   0  0  0  0  0  0  0  0  0  0  0  0
    4.4309   12.0773    2.7947 C   0  0  0  0  0  0  0  0  0  0  0  0
    4.6484   13.1515    1.9538 C   0  0  0  0  0  0  0  0  0  0  0  0
    6.0104   13.2222    1.7464 C   0  0  0  0  0  0  0  0  0  0  0  0
    6.6323   12.2454    2.4272 N   0  0  0  0  0  0  0  0  0  0  0  0
   10.3813   10.0194    3.4839 C   0  0  0  0  0  0  0  0  0  0  0  0
   11.8460    9.7807    3.1212 C   0  0  0  0  0  0  0  0  0  0  0  0
   14.1162    6.2182    1.9791 H   0  0  0  0  0  0  0  0  0  0  0  0
   14.9816    7.1938    0.7331 H   0  0  0  0  0  0  0  0  0  0  0  0
   13.2659    6.7652    0.4815 H   0  0  0  0  0  0  0  0  0  0  0  0
   13.4356    9.0293    1.1415 H   0  0  0  0  0  0  0  0  0  0  0  0
   14.5185    9.8920    3.0092 H   0  0  0  0  0  0  0  0  0  0  0  0
   15.5906    8.8678    2.2203 H   0  0  0  0  0  0  0  0  0  0  0  0
   14.8368    8.3408    3.6488 H   0  0  0  0  0  0  0  0  0  0  0  0
   12.4660    7.8405    3.7468 H   0  0  0  0  0  0  0  0  0  0  0  0
   11.2104    7.5967    1.0326 H   0  0  0  0  0  0  0  0  0  0  0  0
   11.4061    6.3680    2.3185 H   0  0  0  0  0  0  0  0  0  0  0  0
    9.5631    7.2664    3.5430 H   0  0  0  0  0  0  0  0  0  0  0  0
    9.0529    7.2333    1.8233 H   0  0  0  0  0  0  0  0  0  0  0  0
    9.7100    9.5600    1.6177 H   0  0  0  0  0  0  0  0  0  0  0  0
    7.5701    9.2637    4.8286 H   0  0  0  0  0  0  0  0  0  0  0  0
    3.4757   11.7352    3.1707 H   0  0  0  0  0  0  0  0  0  0  0  0
    3.8975   13.8145    1.5455 H   0  0  0  0  0  0  0  0  0  0  0  0
    6.5210   13.9675    1.1508 H   0  0  0  0  0  0  0  0  0  0  0  0
    7.6664   12.1209    2.4891 H   0  0  0  0  0  0  0  0  0  0  0  0
   10.2279    9.7379    4.5485 H   0  0  0  0  0  0  0  0  0  0  0  0
   10.1426   11.1021    3.3852 H   0  0  0  0  0  0  0  0  0  0  0  0
   12.0604   10.4401    2.2512 H   0  0  0  0  0  0  0  0  0  0  0  0
   12.4675   10.1533    3.9644 H   0  0  0  0  0  0  0  0  0  0  0  0
  1  2  1  0
  2  3  1  0
  2  4  1  0
  4  5  1  0
  5  6  1  0
  6  7  1  0
  7  8  1  0
  8  9  2  0
  8 10  1  0
 10 11  1  0
 11 12  2  0
 11 13  1  0
 13 14  2  0
 14 15  1  0
 15 16  2  0
 16 17  1  0
  7 18  1  0
 18 19  1  0
 19  4  1  0
 17 13  1  0
  1 20  1  0
  1 21  1  0
  1 22  1  0
  2 23  1  0
  3 24  1  0
  3 25  1  0
  3 26  1  0
  4 27  1  0
  5 28  1  0
  5 29  1  0
  6 30  1  0
  6 31  1  0
  7 32  1  0
 10 33  1  0
 14 34  1  0
 15 35  1  0
 16 36  1  0
 17 37  1  0
 18 38  1  0
 18 39  1  0
 19 40  1  0
 19 41  1  0
M  CHG  1   3   1
M  END
>  <EmbedRMS>  (216) 
0.2855930768038495

$$$$

     RDKit          3D

 45 46  0  0  0  0  0  0  0  0999 V2000
   14.0107    7.0505    1.2530 C   0  0  0  0  0  0  0  0  0  0  0  0
   13.5998    8.3243    1.9898 C   0  0  0  0  0  0  0  0  0  0  0  0
   14.7018    8.8917    2.7697 N   0  0  0  0  0  4  0  0  0  0  0  0
   12.2602    8.3272    2.7671 C   0  0  0  0  0  0  0  0  0  0  0  0
   11.1782    7.4397    2.1348 C   0  0  0  0  0  0  0  0  0  0  0  0
    9.7428    7.7265    2.5442 C   0  0  0  0  0  0  0  0  0  0  0  0
    9.4475    9.2021    2.6360 C   0  0  0  0  0  0  0  0  0  0  0  0
    7.9848    9.5269    2.7206 C   0  0  0  0  0  0  0  0  0  0  0  0
    7.4175    9.6951    1.6151 O   0  0  0  0  0  0  0  0  0  0  0  0
    7.2158    9.6608    3.9281 N   0  0  0  0  0  0  0  0  0  0  0  0
    5.8027   10.0656    3.8684 C   0  0  0  0  0  0  0  0  0  0  0  0
    4.9485    8.9395    3.3546 C   0  0  0  0  0  0  0  0  0  0  0  0
    4.7223    7.8098    4.0522 N   0  0  0  0  0  0  0  0  0  0  0  0
    3.9481    7.0321    3.3107 N   0  0  0  0  0  0  0  0  0  0  0  0
    3.5080    5.7057    3.7161 C   0  0  0  0  0  0  0  0  0  0  0  0
    3.6791    7.6242    2.1319 C   0  0  0  0  0  0  0  0  0  0  0  0
    4.3003    8.8529    2.1305 C   0  0  0  0  0  0  0  0  0  0  0  0
    4.2528   10.0617    0.8125 S   0  0  0  0  0  0  0  0  0  0  0  0
   10.3834   10.0201    3.4821 C   0  0  0  0  0  0  0  0  0  0  0  0
   11.8479    9.7807    3.1212 C   0  0  0  0  0  0  0  0  0  0  0  0
   14.1165    6.2178    1.9796 H   0  0  0  0  0  0  0  0  0  0  0  0
   13.2666    6.7643    0.4816 H   0  0  0  0  0  0  0  0  0  0  0  0
   14.9822    7.1930    0.7334 H   0  0  0  0  0  0  0  0  0  0  0  0
   13.4358    9.0284    1.1410 H   0  0  0  0  0  0  0  0  0  0  0  0
   14.8374    8.3413    3.6485 H   0  0  0  0  0  0  0  0  0  0  0  0
   15.5912    8.8674    2.2197 H   0  0  0  0  0  0  0  0  0  0  0  0
   14.5192    9.8921    3.0080 H   0  0  0  0  0  0  0  0  0  0  0  0
   12.4674    7.8407    3.7470 H   0  0  0  0  0  0  0  0  0  0  0  0
   11.4046    6.3670    2.3240 H   0  0  0  0  0  0  0  0  0  0  0  0
   11.2121    7.5914    1.0338 H   0  0  0  0  0  0  0  0  0  0  0  0
    9.0524    7.2361    1.8214 H   0  0  0  0  0  0  0  0  0  0  0  0
    9.5594    7.2714    3.5420 H   0  0  0  0  0  0  0  0  0  0  0  0
    9.7206    9.5601    1.6122 H   0  0  0  0  0  0  0  0  0  0  0  0
    7.6753    9.5136    4.8544 H   0  0  0  0  0  0  0  0  0  0  0  0
    5.4562   10.3295    4.8903 H   0  0  0  0  0  0  0  0  0  0  0  0
    5.6921   10.9718    3.2353 H   0  0  0  0  0  0  0  0  0  0  0  0
    4.1475    4.9384    3.2321 H   0  0  0  0  0  0  0  0  0  0  0  0
    3.5830    5.5990    4.8191 H   0  0  0  0  0  0  0  0  0  0  0  0
    2.4510    5.5472    3.4138 H   0  0  0  0  0  0  0  0  0  0  0  0
    3.0773    7.1969    1.3401 H   0  0  0  0  0  0  0  0  0  0  0  0
    3.1095   10.6801    1.3517 H   0  0  0  0  0  0  0  0  0  0  0  0
   10.1461   11.1032    3.3855 H   0  0  0  0  0  0  0  0  0  0  0  0
   10.2292    9.7359    4.5458 H   0  0  0  0  0  0  0  0  0  0  0  0
   12.4687   10.1523    3.9655 H   0  0  0  0  0  0  0  0  0  0  0  0
   12.0640   10.4405    2.2520 H   0  0  0  0  0  0  0  0  0  0  0  0
  1  2  1  0
  2  3  1  0
  2  4  1  0
  4  5  1  0
  5  6  1  0
  6  7  1  0
  7  8  1  0
  8  9  2  0
  8 10  1  0
 10 11  1  0
 11 12  1  0
 12 13  2  0
 13 14  1  0
 14 15  1  0
 14 16  1  0
 16 17  2  0
 17 18  1  0
  7 19  1  0
 19 20  1  0
 20  4  1  0
 17 12  1  0
  1 21  1  0
  1 22  1  0
  1 23  1  0
  2 24  1  0
  3 25  1  0
  3 26  1  0
  3 27  1  0
  4 28  1  0
  5 29  1  0
  5 30  1  0
  6 31  1  0
  6 32  1  0
  7 33  1  0
 10 34  1  0
 11 35  1  0
 11 36  1  0
 15 37  1  0
 15 38  1  0
 15 39  1  0
 16 40  1  0
 18 41  1  0
 19 42  1  0
 19 43  1  0
 20 44  1  0
 20 45  1  0
M  CHG  1   3   1
M  END
>  <EmbedRMS>  (217) 
0.2783095371808358

$$$$

     RDKit          3D

 45 46  0  0  0  0  0  0  0  0999 V2000
   14.0283    7.0398    1.2342 C   0  0  0  0  0  0  0  0  0  0  0  0
   13.6696    8.3364    1.9396 C   0  0  0  0  0  0  0  0  0  0  0  0
   14.6136    8.7686    2.9623 N   0  0  0  0  0  4  0  0  0  0  0  0
   12.1582    8.5898    2.2120 C   0  0  0  0  0  0  0  0  0  0  0  0
   11.2412    7.3769    2.4521 C   0  0  0  0  0  0  0  0  0  0  0  0
    9.7893    7.8237    2.2114 C   0  0  0  0  0  0  0  0  0  0  0  0
    9.4122    8.9833    3.1516 C   0  0  0  0  0  0  0  0  0  0  0  0
    8.0155    9.4636    2.8745 C   0  0  0  0  0  0  0  0  0  0  0  0
    7.6267    9.6754    1.6910 O   0  0  0  0  0  0  0  0  0  0  0  0
    7.1393    9.7034    3.9754 N   0  0  0  0  0  0  0  0  0  0  0  0
    5.7653   10.1449    3.7823 C   0  0  0  0  0  0  0  0  0  0  0  0
    5.0916   10.2825    5.1134 C   0  0  0  0  0  0  0  0  0  0  0  0
    5.1838   11.4864    5.8278 C   0  0  0  0  0  0  0  0  0  0  0  0
    4.5965   11.5986    7.0903 C   0  0  0  0  0  0  0  0  0  0  0  0
    3.9296   10.5059    7.6542 C   0  0  0  0  0  0  0  0  0  0  0  0
    3.3415   10.6319    8.9094 O   0  0  0  0  0  0  0  0  0  0  0  0
    3.8604    9.2940    6.9547 C   0  0  0  0  0  0  0  0  0  0  0  0
    4.4469    9.1795    5.6927 C   0  0  0  0  0  0  0  0  0  0  0  0
   10.4066   10.1583    3.0871 C   0  0  0  0  0  0  0  0  0  0  0  0
   11.8560    9.6807    3.2542 C   0  0  0  0  0  0  0  0  0  0  0  0
   15.0834    7.0605    0.8855 H   0  0  0  0  0  0  0  0  0  0  0  0
   13.9082    6.1867    1.9345 H   0  0  0  0  0  0  0  0  0  0  0  0
   13.3773    6.8823    0.3473 H   0  0  0  0  0  0  0  0  0  0  0  0
   13.8834    9.0583    1.1115 H   0  0  0  0  0  0  0  0  0  0  0  0
   15.5899    8.5022    2.6974 H   0  0  0  0  0  0  0  0  0  0  0  0
   14.5964    9.8059    3.0882 H   0  0  0  0  0  0  0  0  0  0  0  0
   14.3779    8.3020    3.8676 H   0  0  0  0  0  0  0  0  0  0  0  0
   11.8030    9.0087    1.2373 H   0  0  0  0  0  0  0  0  0  0  0  0
   11.4641    6.5564    1.7398 H   0  0  0  0  0  0  0  0  0  0  0  0
   11.3702    6.9867    3.4855 H   0  0  0  0  0  0  0  0  0  0  0  0
    9.1139    6.9610    2.4022 H   0  0  0  0  0  0  0  0  0  0  0  0
    9.6598    8.1223    1.1471 H   0  0  0  0  0  0  0  0  0  0  0  0
    9.4466    8.5782    4.1882 H   0  0  0  0  0  0  0  0  0  0  0  0
    7.5043    9.5597    4.9455 H   0  0  0  0  0  0  0  0  0  0  0  0
    5.7591   11.1193    3.2467 H   0  0  0  0  0  0  0  0  0  0  0  0
    5.2217    9.4065    3.1531 H   0  0  0  0  0  0  0  0  0  0  0  0
    5.7068   12.3365    5.4073 H   0  0  0  0  0  0  0  0  0  0  0  0
    4.6612   12.5335    7.6323 H   0  0  0  0  0  0  0  0  0  0  0  0
    2.8520    9.8591    9.3453 H   0  0  0  0  0  0  0  0  0  0  0  0
    3.3552    8.4408    7.3893 H   0  0  0  0  0  0  0  0  0  0  0  0
    4.3963    8.2339    5.1670 H   0  0  0  0  0  0  0  0  0  0  0  0
   10.1717   10.8879    3.8930 H   0  0  0  0  0  0  0  0  0  0  0  0
   10.3037   10.6868    2.1127 H   0  0  0  0  0  0  0  0  0  0  0  0
   12.5089   10.5642    3.0949 H   0  0  0  0  0  0  0  0  0  0  0  0
   12.0208    9.2948    4.2841 H   0  0  0  0  0  0  0  0  0  0  0  0
  1  2  1  0
  2  3  1  0
  2  4  1  0
  4  5  1  0
  5  6  1  0
  6  7  1  0
  7  8  1  0
  8  9  2  0
  8 10  1  0
 10 11  1  0
 11 12  1  0
 12 13  2  0
 13 14  1  0
 14 15  2  0
 15 16  1  0
 15 17  1  0
 17 18  2  0
  7 19  1  0
 19 20  1  0
 20  4  1  0
 18 12  1  0
  1 21  1  0
  1 22  1  0
  1 23  1  0
  2 24  1  0
  3 25  1  0
  3 26  1  0
  3 27  1  0
  4 28  1  0
  5 29  1  0
  5 30  1  0
  6 31  1  0
  6 32  1  0
  7 33  1  0
 10 34  1  0
 11 35  1  0
 11 36  1  0
 13 37  1  0
 14 38  1  0
 16 39  1  0
 17 40  1  0
 18 41  1  0
 19 42  1  0
 19 43  1  0
 20 44  1  0
 20 45  1  0
M  CHG  1   3   1
M  END
>  <EmbedRMS>  (218) 
0.17297359091211484

$$$$

     RDKit          3D

 45 46  0  0  0  0  0  0  0  0999 V2000
   14.0283    7.0398    1.2342 C   0  0  0  0  0  0  0  0  0  0  0  0
   13.6696    8.3364    1.9396 C   0  0  0  0  0  0  0  0  0  0  0  0
   14.6136    8.7686    2.9623 N   0  0  0  0  0  4  0  0  0  0  0  0
   12.1582    8.5898    2.2120 C   0  0  0  0  0  0  0  0  0  0  0  0
   11.2412    7.3769    2.4521 C   0  0  0  0  0  0  0  0  0  0  0  0
    9.7893    7.8237    2.2114 C   0  0  0  0  0  0  0  0  0  0  0  0
    9.4122    8.9833    3.1516 C   0  0  0  0  0  0  0  0  0  0  0  0
    8.0155    9.4636    2.8745 C   0  0  0  0  0  0  0  0  0  0  0  0
    7.6267    9.6754    1.6910 O   0  0  0  0  0  0  0  0  0  0  0  0
    7.1393    9.7034    3.9754 N   0  0  0  0  0  0  0  0  0  0  0  0
    5.7653   10.1449    3.7823 C   0  0  0  0  0  0  0  0  0  0  0  0
    5.0916   10.2825    5.1134 C   0  0  0  0  0  0  0  0  0  0  0  0
    5.1838   11.4864    5.8278 C   0  0  0  0  0  0  0  0  0  0  0  0
    4.5965   11.5986    7.0903 C   0  0  0  0  0  0  0  0  0  0  0  0
    3.9296   10.5059    7.6542 C   0  0  0  0  0  0  0  0  0  0  0  0
    3.3415   10.6319    8.9094 O   0  0  0  0  0  0  0  0  0  0  0  0
    3.8604    9.2940    6.9547 C   0  0  0  0  0  0  0  0  0  0  0  0
    4.4469    9.1795    5.6927 C   0  0  0  0  0  0  0  0  0  0  0  0
   10.4066   10.1583    3.0871 C   0  0  0  0  0  0  0  0  0  0  0  0
   11.8560    9.6807    3.2542 C   0  0  0  0  0  0  0  0  0  0  0  0
   15.0834    7.0605    0.8855 H   0  0  0  0  0  0  0  0  0  0  0  0
   13.9082    6.1867    1.9345 H   0  0  0  0  0  0  0  0  0  0  0  0
   13.3773    6.8823    0.3473 H   0  0  0  0  0  0  0  0  0  0  0  0
   13.8834    9.0583    1.1115 H   0  0  0  0  0  0  0  0  0  0  0  0
   15.5899    8.5022    2.6974 H   0  0  0  0  0  0  0  0  0  0  0  0
   14.5964    9.8059    3.0882 H   0  0  0  0  0  0  0  0  0  0  0  0
   14.3779    8.3020    3.8676 H   0  0  0  0  0  0  0  0  0  0  0  0
   11.8030    9.0087    1.2373 H   0  0  0  0  0  0  0  0  0  0  0  0
   11.4641    6.5564    1.7398 H   0  0  0  0  0  0  0  0  0  0  0  0
   11.3702    6.9867    3.4855 H   0  0  0  0  0  0  0  0  0  0  0  0
    9.1139    6.9610    2.4022 H   0  0  0  0  0  0  0  0  0  0  0  0
    9.6598    8.1223    1.1471 H   0  0  0  0  0  0  0  0  0  0  0  0
    9.4466    8.5782    4.1882 H   0  0  0  0  0  0  0  0  0  0  0  0
    7.5043    9.5597    4.9455 H   0  0  0  0  0  0  0  0  0  0  0  0
    5.7591   11.1193    3.2467 H   0  0  0  0  0  0  0  0  0  0  0  0
    5.2217    9.4065    3.1531 H   0  0  0  0  0  0  0  0  0  0  0  0
    5.7068   12.3365    5.4073 H   0  0  0  0  0  0  0  0  0  0  0  0
    4.6612   12.5335    7.6323 H   0  0  0  0  0  0  0  0  0  0  0  0
    2.8520    9.8591    9.3453 H   0  0  0  0  0  0  0  0  0  0  0  0
    3.3552    8.4408    7.3893 H   0  0  0  0  0  0  0  0  0  0  0  0
    4.3963    8.2339    5.1670 H   0  0  0  0  0  0  0  0  0  0  0  0
   10.1717   10.8879    3.8930 H   0  0  0  0  0  0  0  0  0  0  0  0
   10.3037   10.6868    2.1127 H   0  0  0  0  0  0  0  0  0  0  0  0
   12.5089   10.5642    3.0949 H   0  0  0  0  0  0  0  0  0  0  0  0
   12.0208    9.2948    4.2841 H   0  0  0  0  0  0  0  0  0  0  0  0
  1  2  1  0
  2  3  1  0
  2  4  1  0
  4  5  1  0
  5  6  1  0
  6  7  1  0
  7  8  1  0
  8  9  2  0
  8 10  1  0
 10 11  1  0
 11 12  1  0
 12 13  2  0
 13 14  1  0
 14 15  2  0
 15 16  1  0
 15 17  1  0
 17 18  2  0
  7 19  1  0
 19 20  1  0
 20  4  1  0
 18 12  1  0
  1 21  1  0
  1 22  1  0
  1 23  1  0
  2 24  1  0
  3 25  1  0
  3 26  1  0
  3 27  1  0
  4 28  1  0
  5 29  1  0
  5 30  1  0
  6 31  1  0
  6 32  1  0
  7 33  1  0
 10 34  1  0
 11 35  1  0
 11 36  1  0
 13 37  1  0
 14 38  1  0
 16 39  1  0
 17 40  1  0
 18 41  1  0
 19 42  1  0
 19 43  1  0
 20 44  1  0
 20 45  1  0
M  CHG  1   3   1
M  END
>  <EmbedRMS>  (219) 
0.17297359091211484

$$$$

     RDKit          3D

 45 46  0  0  0  0  0  0  0  0999 V2000
    5.5869   11.4424    3.2178 C   0  0  0  0  0  0  0  0  0  0  0  0
    5.7891   10.0778    3.8982 C   0  0  0  0  0  0  0  0  0  0  0  0
    7.2127    9.6785    3.9180 N   0  0  0  0  0  0  0  0  0  0  0  0
    7.9914    9.5369    2.7136 C   0  0  0  0  0  0  0  0  0  0  0  0
    7.4369    9.6849    1.6008 O   0  0  0  0  0  0  0  0  0  0  0  0
    9.4534    9.2125    2.6396 C   0  0  0  0  0  0  0  0  0  0  0  0
    9.7360    7.7421    2.3753 C   0  0  0  0  0  0  0  0  0  0  0  0
   11.1992    7.3489    2.5415 C   0  0  0  0  0  0  0  0  0  0  0  0
   12.1828    8.5080    2.2965 C   0  0  0  0  0  0  0  0  0  0  0  0
   13.6467    7.9625    2.3852 C   0  0  0  0  0  0  0  0  0  0  0  0
   14.0282    7.2301    1.0859 C   0  0  0  0  0  0  0  0  0  0  0  0
   14.6278    9.0246    2.6469 N   0  0  0  0  0  4  0  0  0  0  0  0
   11.8972    9.6377    3.3192 C   0  0  0  0  0  0  0  0  0  0  0  0
   10.4190   10.0725    3.4314 C   0  0  0  0  0  0  0  0  0  0  0  0
    4.9240    9.0024    3.2825 C   0  0  0  0  0  0  0  0  0  0  0  0
    4.6605    8.7921    1.9245 C   0  0  0  0  0  0  0  0  0  0  0  0
    3.9066    7.6960    1.6502 N   0  0  0  0  0  0  0  0  0  0  0  0
    3.5648    7.0378    2.7771 C   0  0  0  0  0  0  0  0  0  0  0  0
    2.7765    5.8519    2.7831 N   0  0  0  0  0  0  0  0  0  0  0  0
    4.1788    7.7700    4.1571 S   0  0  0  0  0  0  0  0  0  0  0  0
    5.8207   11.4255    2.1359 H   0  0  0  0  0  0  0  0  0  0  0  0
    6.2372   12.1997    3.7046 H   0  0  0  0  0  0  0  0  0  0  0  0
    4.5308   11.7659    3.3372 H   0  0  0  0  0  0  0  0  0  0  0  0
    5.4578   10.1998    4.9531 H   0  0  0  0  0  0  0  0  0  0  0  0
    7.6758    9.5068    4.8383 H   0  0  0  0  0  0  0  0  0  0  0  0
    9.7205    9.6187    1.6316 H   0  0  0  0  0  0  0  0  0  0  0  0
    9.3959    7.4697    1.3490 H   0  0  0  0  0  0  0  0  0  0  0  0
    9.1301    7.1286    3.0783 H   0  0  0  0  0  0  0  0  0  0  0  0
   11.3993    6.4989    1.8582 H   0  0  0  0  0  0  0  0  0  0  0  0
   11.3456    6.9689    3.5778 H   0  0  0  0  0  0  0  0  0  0  0  0
   12.0123    8.9214    1.2768 H   0  0  0  0  0  0  0  0  0  0  0  0
   13.7157    7.2276    3.2202 H   0  0  0  0  0  0  0  0  0  0  0  0
   13.3813    6.3495    0.9048 H   0  0  0  0  0  0  0  0  0  0  0  0
   13.9573    7.9168    0.2154 H   0  0  0  0  0  0  0  0  0  0  0  0
   15.0717    6.8553    1.1514 H   0  0  0  0  0  0  0  0  0  0  0  0
   14.5264    9.7978    1.9494 H   0  0  0  0  0  0  0  0  0  0  0  0
   15.5996    8.6423    2.5841 H   0  0  0  0  0  0  0  0  0  0  0  0
   14.5156    9.3996    3.6159 H   0  0  0  0  0  0  0  0  0  0  0  0
   12.2376    9.3026    4.3245 H   0  0  0  0  0  0  0  0  0  0  0  0
   12.4949   10.5356    3.0515 H   0  0  0  0  0  0  0  0  0  0  0  0
   10.3151   11.1399    3.1279 H   0  0  0  0  0  0  0  0  0  0  0  0
   10.1212   10.0244    4.5012 H   0  0  0  0  0  0  0  0  0  0  0  0
    5.0036    9.4433    1.1344 H   0  0  0  0  0  0  0  0  0  0  0  0
    2.4249    5.4422    1.8897 H   0  0  0  0  0  0  0  0  0  0  0  0
    2.4249    5.4422    1.8897 H   0  0  0  0  0  0  0  0  0  0  0  0
  1  2  1  0
  2  3  1  0
  3  4  1  0
  4  5  2  0
  4  6  1  0
  6  7  1  0
  7  8  1  0
  8  9  1  0
  9 10  1  0
 10 11  1  0
 10 12  1  0
  9 13  1  0
 13 14  1  0
  2 15  1  0
 15 16  2  0
 16 17  1  0
 17 18  2  0
 18 19  1  0
 18 20  1  0
 14  6  1  0
 20 15  1  0
  1 21  1  0
  1 22  1  0
  1 23  1  0
  2 24  1  0
  3 25  1  0
  6 26  1  0
  7 27  1  0
  7 28  1  0
  8 29  1  0
  8 30  1  0
  9 31  1  0
 10 32  1  0
 11 33  1  0
 11 34  1  0
 11 35  1  0
 12 36  1  0
 12 37  1  0
 12 38  1  0
 13 39  1  0
 13 40  1  0
 14 41  1  0
 14 42  1  0
 16 43  1  0
 19 44  1  0
 19 45  1  0
M  CHG  1  12   1
M  END
>  <EmbedRMS>  (220) 
0.1673814478956744

$$$$

     RDKit          3D

 44 45  0  0  0  0  0  0  0  0999 V2000
    1.6930   11.4706    3.9665 C   0  0  0  0  0  0  0  0  0  0  0  0
    3.1097   10.9900    3.9468 C   0  0  0  0  0  0  0  0  0  0  0  0
    3.7842   10.8719    2.7325 C   0  0  0  0  0  0  0  0  0  0  0  0
    5.1051   10.4464    2.7199 C   0  0  0  0  0  0  0  0  0  0  0  0
    5.7694   10.1435    3.9249 C   0  0  0  0  0  0  0  0  0  0  0  0
    7.1430    9.7071    3.9757 N   0  0  0  0  0  0  0  0  0  0  0  0
    8.0249    9.4595    2.8706 C   0  0  0  0  0  0  0  0  0  0  0  0
    7.6692    9.6626    1.6790 O   0  0  0  0  0  0  0  0  0  0  0  0
    9.4179    8.9789    3.1562 C   0  0  0  0  0  0  0  0  0  0  0  0
    9.7946    7.8194    2.2150 C   0  0  0  0  0  0  0  0  0  0  0  0
   11.2459    7.3748    2.4544 C   0  0  0  0  0  0  0  0  0  0  0  0
   12.1605    8.5889    2.2124 C   0  0  0  0  0  0  0  0  0  0  0  0
   13.6714    8.3366    1.9392 C   0  0  0  0  0  0  0  0  0  0  0  0
   14.0299    7.0400    1.2335 C   0  0  0  0  0  0  0  0  0  0  0  0
   14.6153    8.7682    2.9622 N   0  0  0  0  0  4  0  0  0  0  0  0
   11.8591    9.6799    3.2548 C   0  0  0  0  0  0  0  0  0  0  0  0
   10.4098   10.1558    3.0897 C   0  0  0  0  0  0  0  0  0  0  0  0
    5.0521   10.2916    5.1298 C   0  0  0  0  0  0  0  0  0  0  0  0
    5.6021   10.0365    6.2361 O   0  0  0  0  0  0  0  0  0  0  0  0
    3.7581   10.7128    5.1123 N   0  0  0  0  0  0  0  0  0  0  0  0
    1.1435   11.1083    3.0715 H   0  0  0  0  0  0  0  0  0  0  0  0
    1.6801   12.5804    3.9771 H   0  0  0  0  0  0  0  0  0  0  0  0
    1.1661   11.0941    4.8686 H   0  0  0  0  0  0  0  0  0  0  0  0
    3.2872   11.1092    1.7993 H   0  0  0  0  0  0  0  0  0  0  0  0
    5.5603   10.3816    1.7517 H   0  0  0  0  0  0  0  0  0  0  0  0
    7.5564    9.5535    4.9228 H   0  0  0  0  0  0  0  0  0  0  0  0
    9.4533    8.5726    4.1921 H   0  0  0  0  0  0  0  0  0  0  0  0
    9.6655    8.1160    1.1500 H   0  0  0  0  0  0  0  0  0  0  0  0
    9.1203    6.9561    2.4068 H   0  0  0  0  0  0  0  0  0  0  0  0
   11.4689    6.5541    1.7423 H   0  0  0  0  0  0  0  0  0  0  0  0
   11.3766    6.9855    3.4878 H   0  0  0  0  0  0  0  0  0  0  0  0
   11.8042    9.0072    1.2378 H   0  0  0  0  0  0  0  0  0  0  0  0
   13.8848    9.0589    1.1115 H   0  0  0  0  0  0  0  0  0  0  0  0
   13.3784    6.8824    0.3470 H   0  0  0  0  0  0  0  0  0  0  0  0
   15.0848    7.0612    0.8840 H   0  0  0  0  0  0  0  0  0  0  0  0
   13.9108    6.1868    1.9338 H   0  0  0  0  0  0  0  0  0  0  0  0
   15.5915    8.5021    2.6970 H   0  0  0  0  0  0  0  0  0  0  0  0
   14.5981    9.8054    3.0887 H   0  0  0  0  0  0  0  0  0  0  0  0
   14.3799    8.3009    3.8672 H   0  0  0  0  0  0  0  0  0  0  0  0
   12.5109   10.5640    3.0941 H   0  0  0  0  0  0  0  0  0  0  0  0
   12.0259    9.2945    4.2845 H   0  0  0  0  0  0  0  0  0  0  0  0
   10.1752   10.8850    3.8959 H   0  0  0  0  0  0  0  0  0  0  0  0
   10.3057   10.6843    2.1154 H   0  0  0  0  0  0  0  0  0  0  0  0
    3.2512   10.8222    6.0205 H   0  0  0  0  0  0  0  0  0  0  0  0
  1  2  1  0
  2  3  2  0
  3  4  1  0
  4  5  2  0
  5  6  1  0
  6  7  1  0
  7  8  2  0
  7  9  1  0
  9 10  1  0
 10 11  1  0
 11 12  1  0
 12 13  1  0
 13 14  1  0
 13 15  1  0
 12 16  1  0
 16 17  1  0
  5 18  1  0
 18 19  2  0
 18 20  1  0
 20  2  1  0
 17  9  1  0
  1 21  1  0
  1 22  1  0
  1 23  1  0
  3 24  1  0
  4 25  1  0
  6 26  1  0
  9 27  1  0
 10 28  1  0
 10 29  1  0
 11 30  1  0
 11 31  1  0
 12 32  1  0
 13 33  1  0
 14 34  1  0
 14 35  1  0
 14 36  1  0
 15 37  1  0
 15 38  1  0
 15 39  1  0
 16 40  1  0
 16 41  1  0
 17 42  1  0
 17 43  1  0
 20 44  1  0
M  CHG  1  15   1
M  END
>  <EmbedRMS>  (221) 
0.17414057247410028

$$$$

     RDKit          3D

 45 46  0  0  0  0  0  0  0  0999 V2000
    5.7151    9.9312    6.4738 C   0  0  0  0  0  0  0  0  0  0  0  0
    5.0546   10.2693    5.1557 C   0  0  0  0  0  0  0  0  0  0  0  0
    3.7151   10.7242    5.1317 C   0  0  0  0  0  0  0  0  0  0  0  0
    2.9698   10.9185    6.2962 O   0  0  0  0  0  0  0  0  0  0  0  0
    3.0923   11.0019    3.9144 C   0  0  0  0  0  0  0  0  0  0  0  0
    3.7837   10.8635    2.7193 C   0  0  0  0  0  0  0  0  0  0  0  0
    5.1087   10.4486    2.7229 C   0  0  0  0  0  0  0  0  0  0  0  0
    5.7734   10.1502    3.9333 C   0  0  0  0  0  0  0  0  0  0  0  0
    7.1704    9.7824    3.9643 N   0  0  0  0  0  0  0  0  0  0  0  0
    8.0245    9.4611    2.8591 C   0  0  0  0  0  0  0  0  0  0  0  0
    7.6614    9.6377    1.6664 O   0  0  0  0  0  0  0  0  0  0  0  0
    9.4155    8.9774    3.1501 C   0  0  0  0  0  0  0  0  0  0  0  0
    9.7953    7.8173    2.2117 C   0  0  0  0  0  0  0  0  0  0  0  0
   11.2462    7.3739    2.4544 C   0  0  0  0  0  0  0  0  0  0  0  0
   12.1605    8.5883    2.2127 C   0  0  0  0  0  0  0  0  0  0  0  0
   13.6714    8.3365    1.9395 C   0  0  0  0  0  0  0  0  0  0  0  0
   14.0303    7.0402    1.2335 C   0  0  0  0  0  0  0  0  0  0  0  0
   14.6152    8.7684    2.9625 N   0  0  0  0  0  4  0  0  0  0  0  0
   11.8582    9.6785    3.2555 C   0  0  0  0  0  0  0  0  0  0  0  0
   10.4090   10.1542    3.0891 C   0  0  0  0  0  0  0  0  0  0  0  0
    6.2877   10.8054    6.8476 H   0  0  0  0  0  0  0  0  0  0  0  0
    6.3824    9.0510    6.3739 H   0  0  0  0  0  0  0  0  0  0  0  0
    4.9892    9.6031    7.2413 H   0  0  0  0  0  0  0  0  0  0  0  0
    3.3614   10.9535    7.2268 H   0  0  0  0  0  0  0  0  0  0  0  0
    2.0641   11.3410    3.8984 H   0  0  0  0  0  0  0  0  0  0  0  0
    3.2908   11.0944    1.7832 H   0  0  0  0  0  0  0  0  0  0  0  0
    5.5759   10.4085    1.7597 H   0  0  0  0  0  0  0  0  0  0  0  0
    7.6779    9.8707    4.8704 H   0  0  0  0  0  0  0  0  0  0  0  0
    9.4406    8.5709    4.1866 H   0  0  0  0  0  0  0  0  0  0  0  0
    9.6687    8.1124    1.1459 H   0  0  0  0  0  0  0  0  0  0  0  0
    9.1210    6.9538    2.4027 H   0  0  0  0  0  0  0  0  0  0  0  0
   11.4709    6.5524    1.7439 H   0  0  0  0  0  0  0  0  0  0  0  0
   11.3750    6.9859    3.4886 H   0  0  0  0  0  0  0  0  0  0  0  0
   11.8044    9.0069    1.2382 H   0  0  0  0  0  0  0  0  0  0  0  0
   13.8846    9.0590    1.1118 H   0  0  0  0  0  0  0  0  0  0  0  0
   13.9116    6.1868    1.9337 H   0  0  0  0  0  0  0  0  0  0  0  0
   15.0851    7.0618    0.8840 H   0  0  0  0  0  0  0  0  0  0  0  0
   13.3788    6.8825    0.3470 H   0  0  0  0  0  0  0  0  0  0  0  0
   15.5915    8.5023    2.6974 H   0  0  0  0  0  0  0  0  0  0  0  0
   14.5979    9.8056    3.0888 H   0  0  0  0  0  0  0  0  0  0  0  0
   14.3798    8.3012    3.8675 H   0  0  0  0  0  0  0  0  0  0  0  0
   12.0237    9.2923    4.2851 H   0  0  0  0  0  0  0  0  0  0  0  0
   12.5101   10.5627    3.0963 H   0  0  0  0  0  0  0  0  0  0  0  0
   10.3068   10.6852    2.1160 H   0  0  0  0  0  0  0  0  0  0  0  0
   10.1731   10.8816    3.8966 H   0  0  0  0  0  0  0  0  0  0  0  0
  1  2  1  0
  2  3  2  0
  3  4  1  0
  3  5  1  0
  5  6  2  0
  6  7  1  0
  7  8  2  0
  8  9  1  0
  9 10  1  0
 10 11  2  0
 10 12  1  0
 12 13  1  0
 13 14  1  0
 14 15  1  0
 15 16  1  0
 16 17  1  0
 16 18  1  0
 15 19  1  0
 19 20  1  0
  8  2  1  0
 20 12  1  0
  1 21  1  0
  1 22  1  0
  1 23  1  0
  4 24  1  0
  5 25  1  0
  6 26  1  0
  7 27  1  0
  9 28  1  0
 12 29  1  0
 13 30  1  0
 13 31  1  0
 14 32  1  0
 14 33  1  0
 15 34  1  0
 16 35  1  0
 17 36  1  0
 17 37  1  0
 17 38  1  0
 18 39  1  0
 18 40  1  0
 18 41  1  0
 19 42  1  0
 19 43  1  0
 20 44  1  0
 20 45  1  0
M  CHG  1  18   1
M  END
>  <EmbedRMS>  (222) 
0.17616291877976234

$$$$

     RDKit          3D

 45 46  0  0  0  0  0  0  0  0999 V2000
   14.0283    7.0398    1.2342 C   0  0  0  0  0  0  0  0  0  0  0  0
   13.6696    8.3364    1.9396 C   0  0  0  0  0  0  0  0  0  0  0  0
   14.6136    8.7686    2.9623 N   0  0  0  0  0  4  0  0  0  0  0  0
   12.1582    8.5898    2.2120 C   0  0  0  0  0  0  0  0  0  0  0  0
   11.2412    7.3769    2.4521 C   0  0  0  0  0  0  0  0  0  0  0  0
    9.7893    7.8237    2.2114 C   0  0  0  0  0  0  0  0  0  0  0  0
    9.4122    8.9833    3.1516 C   0  0  0  0  0  0  0  0  0  0  0  0
    8.0155    9.4636    2.8745 C   0  0  0  0  0  0  0  0  0  0  0  0
    7.6267    9.6754    1.6910 O   0  0  0  0  0  0  0  0  0  0  0  0
    7.1393    9.7034    3.9754 N   0  0  0  0  0  0  0  0  0  0  0  0
    5.7653   10.1449    3.7823 C   0  0  0  0  0  0  0  0  0  0  0  0
    5.0916   10.2825    5.1134 C   0  0  0  0  0  0  0  0  0  0  0  0
    5.1838   11.4864    5.8278 C   0  0  0  0  0  0  0  0  0  0  0  0
    4.5965   11.5986    7.0903 C   0  0  0  0  0  0  0  0  0  0  0  0
    3.9296   10.5059    7.6542 C   0  0  0  0  0  0  0  0  0  0  0  0
    3.3415   10.6319    8.9094 O   0  0  0  0  0  0  0  0  0  0  0  0
    3.8604    9.2940    6.9547 C   0  0  0  0  0  0  0  0  0  0  0  0
    4.4469    9.1795    5.6927 C   0  0  0  0  0  0  0  0  0  0  0  0
   10.4066   10.1583    3.0871 C   0  0  0  0  0  0  0  0  0  0  0  0
   11.8560    9.6807    3.2542 C   0  0  0  0  0  0  0  0  0  0  0  0
   15.0834    7.0605    0.8855 H   0  0  0  0  0  0  0  0  0  0  0  0
   13.9082    6.1867    1.9345 H   0  0  0  0  0  0  0  0  0  0  0  0
   13.3773    6.8823    0.3473 H   0  0  0  0  0  0  0  0  0  0  0  0
   13.8834    9.0583    1.1115 H   0  0  0  0  0  0  0  0  0  0  0  0
   15.5899    8.5022    2.6974 H   0  0  0  0  0  0  0  0  0  0  0  0
   14.5964    9.8059    3.0882 H   0  0  0  0  0  0  0  0  0  0  0  0
   14.3779    8.3020    3.8676 H   0  0  0  0  0  0  0  0  0  0  0  0
   11.8030    9.0087    1.2373 H   0  0  0  0  0  0  0  0  0  0  0  0
   11.4641    6.5564    1.7398 H   0  0  0  0  0  0  0  0  0  0  0  0
   11.3702    6.9867    3.4855 H   0  0  0  0  0  0  0  0  0  0  0  0
    9.1139    6.9610    2.4022 H   0  0  0  0  0  0  0  0  0  0  0  0
    9.6598    8.1223    1.1471 H   0  0  0  0  0  0  0  0  0  0  0  0
    9.4466    8.5782    4.1882 H   0  0  0  0  0  0  0  0  0  0  0  0
    7.5043    9.5597    4.9455 H   0  0  0  0  0  0  0  0  0  0  0  0
    5.7591   11.1193    3.2467 H   0  0  0  0  0  0  0  0  0  0  0  0
    5.2217    9.4065    3.1531 H   0  0  0  0  0  0  0  0  0  0  0  0
    5.7068   12.3365    5.4073 H   0  0  0  0  0  0  0  0  0  0  0  0
    4.6612   12.5335    7.6323 H   0  0  0  0  0  0  0  0  0  0  0  0
    2.8520    9.8591    9.3453 H   0  0  0  0  0  0  0  0  0  0  0  0
    3.3552    8.4408    7.3893 H   0  0  0  0  0  0  0  0  0  0  0  0
    4.3963    8.2339    5.1670 H   0  0  0  0  0  0  0  0  0  0  0  0
   10.1717   10.8879    3.8930 H   0  0  0  0  0  0  0  0  0  0  0  0
   10.3037   10.6868    2.1127 H   0  0  0  0  0  0  0  0  0  0  0  0
   12.5089   10.5642    3.0949 H   0  0  0  0  0  0  0  0  0  0  0  0
   12.0208    9.2948    4.2841 H   0  0  0  0  0  0  0  0  0  0  0  0
  1  2  1  0
  2  3  1  0
  2  4  1  0
  4  5  1  0
  5  6  1  0
  6  7  1  0
  7  8  1  0
  8  9  2  0
  8 10  1  0
 10 11  1  0
 11 12  1  0
 12 13  2  0
 13 14  1  0
 14 15  2  0
 15 16  1  0
 15 17  1  0
 17 18  2  0
  7 19  1  0
 19 20  1  0
 20  4  1  0
 18 12  1  0
  1 21  1  0
  1 22  1  0
  1 23  1  0
  2 24  1  0
  3 25  1  0
  3 26  1  0
  3 27  1  0
  4 28  1  0
  5 29  1  0
  5 30  1  0
  6 31  1  0
  6 32  1  0
  7 33  1  0
 10 34  1  0
 11 35  1  0
 11 36  1  0
 13 37  1  0
 14 38  1  0
 16 39  1  0
 17 40  1  0
 18 41  1  0
 19 42  1  0
 19 43  1  0
 20 44  1  0
 20 45  1  0
M  CHG  1   3   1
M  END
>  <EmbedRMS>  (223) 
0.17297359091211484

$$$$

     RDKit          3D

 45 46  0  0  0  0  0  0  0  0999 V2000
   14.0283    7.0398    1.2342 C   0  0  0  0  0  0  0  0  0  0  0  0
   13.6696    8.3364    1.9396 C   0  0  0  0  0  0  0  0  0  0  0  0
   14.6136    8.7686    2.9623 N   0  0  0  0  0  4  0  0  0  0  0  0
   12.1582    8.5898    2.2120 C   0  0  0  0  0  0  0  0  0  0  0  0
   11.2412    7.3769    2.4521 C   0  0  0  0  0  0  0  0  0  0  0  0
    9.7893    7.8237    2.2114 C   0  0  0  0  0  0  0  0  0  0  0  0
    9.4122    8.9833    3.1516 C   0  0  0  0  0  0  0  0  0  0  0  0
    8.0155    9.4636    2.8745 C   0  0  0  0  0  0  0  0  0  0  0  0
    7.6267    9.6754    1.6910 O   0  0  0  0  0  0  0  0  0  0  0  0
    7.1393    9.7034    3.9754 N   0  0  0  0  0  0  0  0  0  0  0  0
    5.7653   10.1449    3.7823 C   0  0  0  0  0  0  0  0  0  0  0  0
    5.0916   10.2825    5.1134 C   0  0  0  0  0  0  0  0  0  0  0  0
    5.1838   11.4864    5.8278 C   0  0  0  0  0  0  0  0  0  0  0  0
    4.5965   11.5986    7.0903 C   0  0  0  0  0  0  0  0  0  0  0  0
    3.9296   10.5059    7.6542 C   0  0  0  0  0  0  0  0  0  0  0  0
    3.3415   10.6319    8.9094 O   0  0  0  0  0  0  0  0  0  0  0  0
    3.8604    9.2940    6.9547 C   0  0  0  0  0  0  0  0  0  0  0  0
    4.4469    9.1795    5.6927 C   0  0  0  0  0  0  0  0  0  0  0  0
   10.4066   10.1583    3.0871 C   0  0  0  0  0  0  0  0  0  0  0  0
   11.8560    9.6807    3.2542 C   0  0  0  0  0  0  0  0  0  0  0  0
   15.0834    7.0605    0.8855 H   0  0  0  0  0  0  0  0  0  0  0  0
   13.9082    6.1867    1.9345 H   0  0  0  0  0  0  0  0  0  0  0  0
   13.3773    6.8823    0.3473 H   0  0  0  0  0  0  0  0  0  0  0  0
   13.8834    9.0583    1.1115 H   0  0  0  0  0  0  0  0  0  0  0  0
   15.5899    8.5022    2.6974 H   0  0  0  0  0  0  0  0  0  0  0  0
   14.5964    9.8059    3.0882 H   0  0  0  0  0  0  0  0  0  0  0  0
   14.3779    8.3020    3.8676 H   0  0  0  0  0  0  0  0  0  0  0  0
   11.8030    9.0087    1.2373 H   0  0  0  0  0  0  0  0  0  0  0  0
   11.4641    6.5564    1.7398 H   0  0  0  0  0  0  0  0  0  0  0  0
   11.3702    6.9867    3.4855 H   0  0  0  0  0  0  0  0  0  0  0  0
    9.1139    6.9610    2.4022 H   0  0  0  0  0  0  0  0  0  0  0  0
    9.6598    8.1223    1.1471 H   0  0  0  0  0  0  0  0  0  0  0  0
    9.4466    8.5782    4.1882 H   0  0  0  0  0  0  0  0  0  0  0  0
    7.5043    9.5597    4.9455 H   0  0  0  0  0  0  0  0  0  0  0  0
    5.7591   11.1193    3.2467 H   0  0  0  0  0  0  0  0  0  0  0  0
    5.2217    9.4065    3.1531 H   0  0  0  0  0  0  0  0  0  0  0  0
    5.7068   12.3365    5.4073 H   0  0  0  0  0  0  0  0  0  0  0  0
    4.6612   12.5335    7.6323 H   0  0  0  0  0  0  0  0  0  0  0  0
    2.8520    9.8591    9.3453 H   0  0  0  0  0  0  0  0  0  0  0  0
    3.3552    8.4408    7.3893 H   0  0  0  0  0  0  0  0  0  0  0  0
    4.3963    8.2339    5.1670 H   0  0  0  0  0  0  0  0  0  0  0  0
   10.1717   10.8879    3.8930 H   0  0  0  0  0  0  0  0  0  0  0  0
   10.3037   10.6868    2.1127 H   0  0  0  0  0  0  0  0  0  0  0  0
   12.5089   10.5642    3.0949 H   0  0  0  0  0  0  0  0  0  0  0  0
   12.0208    9.2948    4.2841 H   0  0  0  0  0  0  0  0  0  0  0  0
  1  2  1  0
  2  3  1  0
  2  4  1  0
  4  5  1  0
  5  6  1  0
  6  7  1  0
  7  8  1  0
  8  9  2  0
  8 10  1  0
 10 11  1  0
 11 12  1  0
 12 13  2  0
 13 14  1  0
 14 15  2  0
 15 16  1  0
 15 17  1  0
 17 18  2  0
  7 19  1  0
 19 20  1  0
 20  4  1  0
 18 12  1  0
  1 21  1  0
  1 22  1  0
  1 23  1  0
  2 24  1  0
  3 25  1  0
  3 26  1  0
  3 27  1  0
  4 28  1  0
  5 29  1  0
  5 30  1  0
  6 31  1  0
  6 32  1  0
  7 33  1  0
 10 34  1  0
 11 35  1  0
 11 36  1  0
 13 37  1  0
 14 38  1  0
 16 39  1  0
 17 40  1  0
 18 41  1  0
 19 42  1  0
 19 43  1  0
 20 44  1  0
 20 45  1  0
M  CHG  1   3   1
M  END
>  <EmbedRMS>  (224) 
0.17297359091211484

$$$$

     RDKit          3D

 45 46  0  0  0  0  0  0  0  0999 V2000
    1.6690   11.4714    3.9393 C   0  0  0  0  0  0  0  0  0  0  0  0
    3.0958   11.0038    3.9520 C   0  0  0  0  0  0  0  0  0  0  0  0
    3.7774   10.8815    2.7449 C   0  0  0  0  0  0  0  0  0  0  0  0
    5.1022   10.4753    2.7189 C   0  0  0  0  0  0  0  0  0  0  0  0
    5.8011   10.1401    3.9065 C   0  0  0  0  0  0  0  0  0  0  0  0
    7.1951    9.7049    3.9113 N   0  0  0  0  0  0  0  0  0  0  0  0
    7.9992    9.5213    2.7192 C   0  0  0  0  0  0  0  0  0  0  0  0
    7.4829    9.6138    1.5856 O   0  0  0  0  0  0  0  0  0  0  0  0
    9.4600    9.1985    2.6634 C   0  0  0  0  0  0  0  0  0  0  0  0
    9.7519    7.7231    2.5566 C   0  0  0  0  0  0  0  0  0  0  0  0
   11.1837    7.4395    2.1388 C   0  0  0  0  0  0  0  0  0  0  0  0
   12.2657    8.3267    2.7709 C   0  0  0  0  0  0  0  0  0  0  0  0
   13.6024    8.3252    1.9903 C   0  0  0  0  0  0  0  0  0  0  0  0
   14.0121    7.0517    1.2521 C   0  0  0  0  0  0  0  0  0  0  0  0
   14.7055    8.8924    2.7684 N   0  0  0  0  0  4  0  0  0  0  0  0
   11.8550    9.7801    3.1314 C   0  0  0  0  0  0  0  0  0  0  0  0
   10.3930   10.0182    3.5040 C   0  0  0  0  0  0  0  0  0  0  0  0
    5.1045   10.2669    5.1247 C   0  0  0  0  0  0  0  0  0  0  0  0
    3.7657   10.7016    5.1550 C   0  0  0  0  0  0  0  0  0  0  0  0
    3.1268   10.8256    6.3897 O   0  0  0  0  0  0  0  0  0  0  0  0
    1.2988   11.6493    2.9070 H   0  0  0  0  0  0  0  0  0  0  0  0
    1.5817   12.4236    4.5036 H   0  0  0  0  0  0  0  0  0  0  0  0
    1.0181   10.7028    4.4066 H   0  0  0  0  0  0  0  0  0  0  0  0
    3.2863   11.1282    1.8105 H   0  0  0  0  0  0  0  0  0  0  0  0
    5.5197   10.4957    1.7368 H   0  0  0  0  0  0  0  0  0  0  0  0
    7.6584    9.5294    4.8310 H   0  0  0  0  0  0  0  0  0  0  0  0
    9.7509    9.5602    1.6442 H   0  0  0  0  0  0  0  0  0  0  0  0
    9.0591    7.2379    1.8325 H   0  0  0  0  0  0  0  0  0  0  0  0
    9.5726    7.2602    3.5515 H   0  0  0  0  0  0  0  0  0  0  0  0
   11.2128    7.5957    1.0381 H   0  0  0  0  0  0  0  0  0  0  0  0
   11.4124    6.3664    2.3230 H   0  0  0  0  0  0  0  0  0  0  0  0
   12.4756    7.8373    3.7488 H   0  0  0  0  0  0  0  0  0  0  0  0
   13.4358    9.0301    1.1425 H   0  0  0  0  0  0  0  0  0  0  0  0
   14.1198    6.2187    1.9781 H   0  0  0  0  0  0  0  0  0  0  0  0
   13.2665    6.7656    0.4821 H   0  0  0  0  0  0  0  0  0  0  0  0
   14.9824    7.1947    0.7303 H   0  0  0  0  0  0  0  0  0  0  0  0
   15.5946    8.8657    2.2180 H   0  0  0  0  0  0  0  0  0  0  0  0
   14.5250    9.8937    3.0045 H   0  0  0  0  0  0  0  0  0  0  0  0
   14.8411    8.3436    3.6482 H   0  0  0  0  0  0  0  0  0  0  0  0
   12.0658   10.4421    2.2624 H   0  0  0  0  0  0  0  0  0  0  0  0
   12.4813   10.1496    3.9724 H   0  0  0  0  0  0  0  0  0  0  0  0
   10.1527   11.1009    3.4093 H   0  0  0  0  0  0  0  0  0  0  0  0
   10.2450    9.7319    4.5680 H   0  0  0  0  0  0  0  0  0  0  0  0
    5.6051   10.0335    6.0562 H   0  0  0  0  0  0  0  0  0  0  0  0
    2.1685   11.1349    6.4901 H   0  0  0  0  0  0  0  0  0  0  0  0
  1  2  1  0
  2  3  2  0
  3  4  1  0
  4  5  2  0
  5  6  1  0
  6  7  1  0
  7  8  2  0
  7  9  1  0
  9 10  1  0
 10 11  1  0
 11 12  1  0
 12 13  1  0
 13 14  1  0
 13 15  1  0
 12 16  1  0
 16 17  1  0
  5 18  1  0
 18 19  2  0
 19 20  1  0
 19  2  1  0
 17  9  1  0
  1 21  1  0
  1 22  1  0
  1 23  1  0
  3 24  1  0
  4 25  1  0
  6 26  1  0
  9 27  1  0
 10 28  1  0
 10 29  1  0
 11 30  1  0
 11 31  1  0
 12 32  1  0
 13 33  1  0
 14 34  1  0
 14 35  1  0
 14 36  1  0
 15 37  1  0
 15 38  1  0
 15 39  1  0
 16 40  1  0
 16 41  1  0
 17 42  1  0
 17 43  1  0
 18 44  1  0
 20 45  1  0
M  CHG  1  15   1
M  END
>  <EmbedRMS>  (225) 
0.2770819913414442

$$$$

     RDKit          3D

 44 45  0  0  0  0  0  0  0  0999 V2000
    7.7632   12.6819    2.9458 C   0  0  0  0  0  0  0  0  0  0  0  0
    6.3547   12.4122    2.5205 C   0  0  0  0  0  0  0  0  0  0  0  0
    5.6773   13.2180    1.6825 N   0  0  0  0  0  0  0  0  0  0  0  0
    4.4272   12.7296    1.5887 C   0  0  0  0  0  0  0  0  0  0  0  0
    4.2969   11.5963    2.3662 C   0  0  0  0  0  0  0  0  0  0  0  0
    5.5324   11.3770    2.9455 C   0  0  0  0  0  0  0  0  0  0  0  0
    5.8393   10.2994    3.9035 C   0  0  0  0  0  0  0  0  0  0  0  0
    4.9381    9.9125    4.6935 O   0  0  0  0  0  0  0  0  0  0  0  0
    7.1363    9.7012    3.9940 N   0  0  0  0  0  0  0  0  0  0  0  0
    8.0093    9.4829    2.8778 C   0  0  0  0  0  0  0  0  0  0  0  0
    7.6081    9.6818    1.6962 O   0  0  0  0  0  0  0  0  0  0  0  0
    9.4079    8.9946    3.1338 C   0  0  0  0  0  0  0  0  0  0  0  0
    9.7699    7.8729    2.1553 C   0  0  0  0  0  0  0  0  0  0  0  0
   11.1787    7.3658    2.4337 C   0  0  0  0  0  0  0  0  0  0  0  0
   12.1998    8.5113    2.2736 C   0  0  0  0  0  0  0  0  0  0  0  0
   13.6491    7.9547    2.3990 C   0  0  0  0  0  0  0  0  0  0  0  0
   14.0482    7.2187    1.1048 C   0  0  0  0  0  0  0  0  0  0  0  0
   14.6287    9.0146    2.6715 N   0  0  0  0  0  4  0  0  0  0  0  0
   11.8587    9.6357    3.2824 C   0  0  0  0  0  0  0  0  0  0  0  0
   10.4249   10.1473    3.0662 C   0  0  0  0  0  0  0  0  0  0  0  0
    8.4643   12.2650    2.1956 H   0  0  0  0  0  0  0  0  0  0  0  0
    7.9675   12.2467    3.9453 H   0  0  0  0  0  0  0  0  0  0  0  0
    7.9291   13.7775    3.0107 H   0  0  0  0  0  0  0  0  0  0  0  0
    6.0393   14.0789    1.2149 H   0  0  0  0  0  0  0  0  0  0  0  0
    3.6431   13.1802    0.9947 H   0  0  0  0  0  0  0  0  0  0  0  0
    3.4023   11.0007    2.4934 H   0  0  0  0  0  0  0  0  0  0  0  0
    7.4087    9.3015    4.9202 H   0  0  0  0  0  0  0  0  0  0  0  0
    9.4487    8.5675    4.1612 H   0  0  0  0  0  0  0  0  0  0  0  0
    9.7076    8.2331    1.1039 H   0  0  0  0  0  0  0  0  0  0  0  0
    9.0539    7.0298    2.2740 H   0  0  0  0  0  0  0  0  0  0  0  0
   11.2324    6.9379    3.4598 H   0  0  0  0  0  0  0  0  0  0  0  0
   11.3800    6.5458    1.7162 H   0  0  0  0  0  0  0  0  0  0  0  0
   12.0883    8.9478    1.2540 H   0  0  0  0  0  0  0  0  0  0  0  0
   13.6903    7.2238    3.2390 H   0  0  0  0  0  0  0  0  0  0  0  0
   13.9783    7.8970    0.2277 H   0  0  0  0  0  0  0  0  0  0  0  0
   13.4168    6.3265    0.9268 H   0  0  0  0  0  0  0  0  0  0  0  0
   15.0954    6.8564    1.1810 H   0  0  0  0  0  0  0  0  0  0  0  0
   15.6001    8.6287    2.6300 H   0  0  0  0  0  0  0  0  0  0  0  0
   14.4965    9.3916    3.6374 H   0  0  0  0  0  0  0  0  0  0  0  0
   14.5429    9.7857    1.9693 H   0  0  0  0  0  0  0  0  0  0  0  0
   11.9728    9.2622    4.3241 H   0  0  0  0  0  0  0  0  0  0  0  0
   12.5384   10.5026    3.1443 H   0  0  0  0  0  0  0  0  0  0  0  0
   10.1890   10.8997    3.8499 H   0  0  0  0  0  0  0  0  0  0  0  0
   10.3626   10.6485    2.0748 H   0  0  0  0  0  0  0  0  0  0  0  0
  1  2  1  0
  2  3  1  0
  3  4  1  0
  4  5  2  0
  5  6  1  0
  6  7  1  0
  7  8  2  0
  7  9  1  0
  9 10  1  0
 10 11  2  0
 10 12  1  0
 12 13  1  0
 13 14  1  0
 14 15  1  0
 15 16  1  0
 16 17  1  0
 16 18  1  0
 15 19  1  0
 19 20  1  0
  6  2  2  0
 20 12  1  0
  1 21  1  0
  1 22  1  0
  1 23  1  0
  3 24  1  0
  4 25  1  0
  5 26  1  0
  9 27  1  0
 12 28  1  0
 13 29  1  0
 13 30  1  0
 14 31  1  0
 14 32  1  0
 15 33  1  0
 16 34  1  0
 17 35  1  0
 17 36  1  0
 17 37  1  0
 18 38  1  0
 18 39  1  0
 18 40  1  0
 19 41  1  0
 19 42  1  0
 20 43  1  0
 20 44  1  0
M  CHG  1  18   1
M  END
>  <EmbedRMS>  (226) 
0.028396374432243965

$$$$

     RDKit          3D

 44 45  0  0  0  0  0  0  0  0999 V2000
    1.6930   11.4706    3.9665 C   0  0  0  0  0  0  0  0  0  0  0  0
    3.1097   10.9900    3.9468 C   0  0  0  0  0  0  0  0  0  0  0  0
    3.7842   10.8719    2.7325 C   0  0  0  0  0  0  0  0  0  0  0  0
    5.1051   10.4464    2.7199 C   0  0  0  0  0  0  0  0  0  0  0  0
    5.7694   10.1435    3.9249 C   0  0  0  0  0  0  0  0  0  0  0  0
    7.1430    9.7071    3.9757 N   0  0  0  0  0  0  0  0  0  0  0  0
    8.0249    9.4595    2.8706 C   0  0  0  0  0  0  0  0  0  0  0  0
    7.6692    9.6626    1.6790 O   0  0  0  0  0  0  0  0  0  0  0  0
    9.4179    8.9789    3.1562 C   0  0  0  0  0  0  0  0  0  0  0  0
    9.7946    7.8194    2.2150 C   0  0  0  0  0  0  0  0  0  0  0  0
   11.2459    7.3748    2.4544 C   0  0  0  0  0  0  0  0  0  0  0  0
   12.1605    8.5889    2.2124 C   0  0  0  0  0  0  0  0  0  0  0  0
   13.6714    8.3366    1.9392 C   0  0  0  0  0  0  0  0  0  0  0  0
   14.0299    7.0400    1.2335 C   0  0  0  0  0  0  0  0  0  0  0  0
   14.6153    8.7682    2.9622 N   0  0  0  0  0  4  0  0  0  0  0  0
   11.8591    9.6799    3.2548 C   0  0  0  0  0  0  0  0  0  0  0  0
   10.4098   10.1558    3.0897 C   0  0  0  0  0  0  0  0  0  0  0  0
    5.0521   10.2916    5.1298 C   0  0  0  0  0  0  0  0  0  0  0  0
    5.6021   10.0365    6.2361 O   0  0  0  0  0  0  0  0  0  0  0  0
    3.7581   10.7128    5.1123 N   0  0  0  0  0  0  0  0  0  0  0  0
    1.1435   11.1083    3.0715 H   0  0  0  0  0  0  0  0  0  0  0  0
    1.6801   12.5804    3.9771 H   0  0  0  0  0  0  0  0  0  0  0  0
    1.1661   11.0941    4.8686 H   0  0  0  0  0  0  0  0  0  0  0  0
    3.2872   11.1092    1.7993 H   0  0  0  0  0  0  0  0  0  0  0  0
    5.5603   10.3816    1.7517 H   0  0  0  0  0  0  0  0  0  0  0  0
    7.5564    9.5535    4.9228 H   0  0  0  0  0  0  0  0  0  0  0  0
    9.4533    8.5726    4.1921 H   0  0  0  0  0  0  0  0  0  0  0  0
    9.6655    8.1160    1.1500 H   0  0  0  0  0  0  0  0  0  0  0  0
    9.1203    6.9561    2.4068 H   0  0  0  0  0  0  0  0  0  0  0  0
   11.4689    6.5541    1.7423 H   0  0  0  0  0  0  0  0  0  0  0  0
   11.3766    6.9855    3.4878 H   0  0  0  0  0  0  0  0  0  0  0  0
   11.8042    9.0072    1.2378 H   0  0  0  0  0  0  0  0  0  0  0  0
   13.8848    9.0589    1.1115 H   0  0  0  0  0  0  0  0  0  0  0  0
   13.3784    6.8824    0.3470 H   0  0  0  0  0  0  0  0  0  0  0  0
   15.0848    7.0612    0.8840 H   0  0  0  0  0  0  0  0  0  0  0  0
   13.9108    6.1868    1.9338 H   0  0  0  0  0  0  0  0  0  0  0  0
   15.5915    8.5021    2.6970 H   0  0  0  0  0  0  0  0  0  0  0  0
   14.5981    9.8054    3.0887 H   0  0  0  0  0  0  0  0  0  0  0  0
   14.3799    8.3009    3.8672 H   0  0  0  0  0  0  0  0  0  0  0  0
   12.5109   10.5640    3.0941 H   0  0  0  0  0  0  0  0  0  0  0  0
   12.0259    9.2945    4.2845 H   0  0  0  0  0  0  0  0  0  0  0  0
   10.1752   10.8850    3.8959 H   0  0  0  0  0  0  0  0  0  0  0  0
   10.3057   10.6843    2.1154 H   0  0  0  0  0  0  0  0  0  0  0  0
    3.2512   10.8222    6.0205 H   0  0  0  0  0  0  0  0  0  0  0  0
  1  2  1  0
  2  3  2  0
  3  4  1  0
  4  5  2  0
  5  6  1  0
  6  7  1  0
  7  8  2  0
  7  9  1  0
  9 10  1  0
 10 11  1  0
 11 12  1  0
 12 13  1  0
 13 14  1  0
 13 15  1  0
 12 16  1  0
 16 17  1  0
  5 18  1  0
 18 19  2  0
 18 20  1  0
 20  2  1  0
 17  9  1  0
  1 21  1  0
  1 22  1  0
  1 23  1  0
  3 24  1  0
  4 25  1  0
  6 26  1  0
  9 27  1  0
 10 28  1  0
 10 29  1  0
 11 30  1  0
 11 31  1  0
 12 32  1  0
 13 33  1  0
 14 34  1  0
 14 35  1  0
 14 36  1  0
 15 37  1  0
 15 38  1  0
 15 39  1  0
 16 40  1  0
 16 41  1  0
 17 42  1  0
 17 43  1  0
 20 44  1  0
M  CHG  1  15   1
M  END
>  <EmbedRMS>  (227) 
0.17414057247410028

$$$$

     RDKit          3D

 44 45  0  0  0  0  0  0  0  0999 V2000
    1.6930   11.4706    3.9665 C   0  0  0  0  0  0  0  0  0  0  0  0
    3.1097   10.9900    3.9468 C   0  0  0  0  0  0  0  0  0  0  0  0
    3.7842   10.8719    2.7325 C   0  0  0  0  0  0  0  0  0  0  0  0
    5.1051   10.4464    2.7199 C   0  0  0  0  0  0  0  0  0  0  0  0
    5.7694   10.1435    3.9249 C   0  0  0  0  0  0  0  0  0  0  0  0
    7.1430    9.7071    3.9757 N   0  0  0  0  0  0  0  0  0  0  0  0
    8.0249    9.4595    2.8706 C   0  0  0  0  0  0  0  0  0  0  0  0
    7.6692    9.6626    1.6790 O   0  0  0  0  0  0  0  0  0  0  0  0
    9.4179    8.9789    3.1562 C   0  0  0  0  0  0  0  0  0  0  0  0
    9.7946    7.8194    2.2150 C   0  0  0  0  0  0  0  0  0  0  0  0
   11.2459    7.3748    2.4544 C   0  0  0  0  0  0  0  0  0  0  0  0
   12.1605    8.5889    2.2124 C   0  0  0  0  0  0  0  0  0  0  0  0
   13.6714    8.3366    1.9392 C   0  0  0  0  0  0  0  0  0  0  0  0
   14.0299    7.0400    1.2335 C   0  0  0  0  0  0  0  0  0  0  0  0
   14.6153    8.7682    2.9622 N   0  0  0  0  0  4  0  0  0  0  0  0
   11.8591    9.6799    3.2548 C   0  0  0  0  0  0  0  0  0  0  0  0
   10.4098   10.1558    3.0897 C   0  0  0  0  0  0  0  0  0  0  0  0
    5.0521   10.2916    5.1298 C   0  0  0  0  0  0  0  0  0  0  0  0
    5.6021   10.0365    6.2361 O   0  0  0  0  0  0  0  0  0  0  0  0
    3.7581   10.7128    5.1123 N   0  0  0  0  0  0  0  0  0  0  0  0
    1.1435   11.1083    3.0715 H   0  0  0  0  0  0  0  0  0  0  0  0
    1.6801   12.5804    3.9771 H   0  0  0  0  0  0  0  0  0  0  0  0
    1.1661   11.0941    4.8686 H   0  0  0  0  0  0  0  0  0  0  0  0
    3.2872   11.1092    1.7993 H   0  0  0  0  0  0  0  0  0  0  0  0
    5.5603   10.3816    1.7517 H   0  0  0  0  0  0  0  0  0  0  0  0
    7.5564    9.5535    4.9228 H   0  0  0  0  0  0  0  0  0  0  0  0
    9.4533    8.5726    4.1921 H   0  0  0  0  0  0  0  0  0  0  0  0
    9.6655    8.1160    1.1500 H   0  0  0  0  0  0  0  0  0  0  0  0
    9.1203    6.9561    2.4068 H   0  0  0  0  0  0  0  0  0  0  0  0
   11.4689    6.5541    1.7423 H   0  0  0  0  0  0  0  0  0  0  0  0
   11.3766    6.9855    3.4878 H   0  0  0  0  0  0  0  0  0  0  0  0
   11.8042    9.0072    1.2378 H   0  0  0  0  0  0  0  0  0  0  0  0
   13.8848    9.0589    1.1115 H   0  0  0  0  0  0  0  0  0  0  0  0
   13.3784    6.8824    0.3470 H   0  0  0  0  0  0  0  0  0  0  0  0
   15.0848    7.0612    0.8840 H   0  0  0  0  0  0  0  0  0  0  0  0
   13.9108    6.1868    1.9338 H   0  0  0  0  0  0  0  0  0  0  0  0
   15.5915    8.5021    2.6970 H   0  0  0  0  0  0  0  0  0  0  0  0
   14.5981    9.8054    3.0887 H   0  0  0  0  0  0  0  0  0  0  0  0
   14.3799    8.3009    3.8672 H   0  0  0  0  0  0  0  0  0  0  0  0
   12.5109   10.5640    3.0941 H   0  0  0  0  0  0  0  0  0  0  0  0
   12.0259    9.2945    4.2845 H   0  0  0  0  0  0  0  0  0  0  0  0
   10.1752   10.8850    3.8959 H   0  0  0  0  0  0  0  0  0  0  0  0
   10.3057   10.6843    2.1154 H   0  0  0  0  0  0  0  0  0  0  0  0
    3.2512   10.8222    6.0205 H   0  0  0  0  0  0  0  0  0  0  0  0
  1  2  1  0
  2  3  2  0
  3  4  1  0
  4  5  2  0
  5  6  1  0
  6  7  1  0
  7  8  2  0
  7  9  1  0
  9 10  1  0
 10 11  1  0
 11 12  1  0
 12 13  1  0
 13 14  1  0
 13 15  1  0
 12 16  1  0
 16 17  1  0
  5 18  1  0
 18 19  2  0
 18 20  1  0
 20  2  1  0
 17  9  1  0
  1 21  1  0
  1 22  1  0
  1 23  1  0
  3 24  1  0
  4 25  1  0
  6 26  1  0
  9 27  1  0
 10 28  1  0
 10 29  1  0
 11 30  1  0
 11 31  1  0
 12 32  1  0
 13 33  1  0
 14 34  1  0
 14 35  1  0
 14 36  1  0
 15 37  1  0
 15 38  1  0
 15 39  1  0
 16 40  1  0
 16 41  1  0
 17 42  1  0
 17 43  1  0
 20 44  1  0
M  CHG  1  15   1
M  END
>  <EmbedRMS>  (228) 
0.17414057247410028

$$$$

     RDKit          3D

 47 48  0  0  0  0  0  0  0  0999 V2000
   14.0113    7.0501    1.2531 C   0  0  0  0  0  0  0  0  0  0  0  0
   13.6006    8.3241    1.9895 C   0  0  0  0  0  0  0  0  0  0  0  0
   14.7023    8.8915    2.7697 N   0  0  0  0  0  4  0  0  0  0  0  0
   12.2608    8.3276    2.7662 C   0  0  0  0  0  0  0  0  0  0  0  0
   11.1789    7.4402    2.1336 C   0  0  0  0  0  0  0  0  0  0  0  0
    9.7437    7.7283    2.5414 C   0  0  0  0  0  0  0  0  0  0  0  0
    9.4493    9.2043    2.6305 C   0  0  0  0  0  0  0  0  0  0  0  0
    7.9884    9.5283    2.7265 C   0  0  0  0  0  0  0  0  0  0  0  0
    7.4047    9.6789    1.6272 O   0  0  0  0  0  0  0  0  0  0  0  0
    7.2479    9.6963    3.9462 N   0  0  0  0  0  0  0  0  0  0  0  0
    5.8561   10.1670    3.9323 C   0  0  0  0  0  0  0  0  0  0  0  0
    5.7814   11.6174    3.4774 C   0  0  0  0  0  0  0  0  0  0  0  0
    6.2844   12.5631    4.3920 C   0  0  0  0  0  0  0  0  0  0  0  0
    6.3338   13.9197    4.0781 C   0  0  0  0  0  0  0  0  0  0  0  0
    5.8886   14.3641    2.8381 C   0  0  0  0  0  0  0  0  0  0  0  0
    5.3870   13.4519    1.9108 C   0  0  0  0  0  0  0  0  0  0  0  0
    5.3165   12.0799    2.2039 C   0  0  0  0  0  0  0  0  0  0  0  0
    4.7976   11.2677    1.1819 O   0  0  0  0  0  0  0  0  0  0  0  0
    4.4271    9.9535    1.3426 N   0  0  0  0  0  0  0  0  0  0  0  0
   10.3850   10.0211    3.4784 C   0  0  0  0  0  0  0  0  0  0  0  0
   11.8491    9.7814    3.1191 C   0  0  0  0  0  0  0  0  0  0  0  0
   14.9831    7.1921    0.7340 H   0  0  0  0  0  0  0  0  0  0  0  0
   14.1165    6.2174    1.9799 H   0  0  0  0  0  0  0  0  0  0  0  0
   13.2676    6.7640    0.4813 H   0  0  0  0  0  0  0  0  0  0  0  0
   13.4371    9.0280    1.1403 H   0  0  0  0  0  0  0  0  0  0  0  0
   14.8371    8.3417    3.6489 H   0  0  0  0  0  0  0  0  0  0  0  0
   14.5201    9.8922    3.0071 H   0  0  0  0  0  0  0  0  0  0  0  0
   15.5920    8.8665    2.2203 H   0  0  0  0  0  0  0  0  0  0  0  0
   12.4674    7.8415    3.7464 H   0  0  0  0  0  0  0  0  0  0  0  0
   11.4045    6.3675    2.3237 H   0  0  0  0  0  0  0  0  0  0  0  0
   11.2137    7.5913    1.0325 H   0  0  0  0  0  0  0  0  0  0  0  0
    9.5596    7.2747    3.5399 H   0  0  0  0  0  0  0  0  0  0  0  0
    9.0536    7.2373    1.8188 H   0  0  0  0  0  0  0  0  0  0  0  0
    9.7170    9.5634    1.6059 H   0  0  0  0  0  0  0  0  0  0  0  0
    7.7215    9.5225    4.8609 H   0  0  0  0  0  0  0  0  0  0  0  0
    5.2318    9.4415    3.4002 H   0  0  0  0  0  0  0  0  0  0  0  0
    5.4654   10.1209    4.9727 H   0  0  0  0  0  0  0  0  0  0  0  0
    6.6553   12.2447    5.3593 H   0  0  0  0  0  0  0  0  0  0  0  0
    6.7264   14.6275    4.7968 H   0  0  0  0  0  0  0  0  0  0  0  0
    5.9321   15.4175    2.5929 H   0  0  0  0  0  0  0  0  0  0  0  0
    5.0450   13.8137    0.9490 H   0  0  0  0  0  0  0  0  0  0  0  0
    4.2562    9.5724    0.3855 H   0  0  0  0  0  0  0  0  0  0  0  0
    3.5000    9.9571    1.8259 H   0  0  0  0  0  0  0  0  0  0  0  0
   10.1482   11.1045    3.3826 H   0  0  0  0  0  0  0  0  0  0  0  0
   10.2308    9.7364    4.5419 H   0  0  0  0  0  0  0  0  0  0  0  0
   12.0659   10.4407    2.2497 H   0  0  0  0  0  0  0  0  0  0  0  0
   12.4694   10.1532    3.9636 H   0  0  0  0  0  0  0  0  0  0  0  0
  1  2  1  0
  2  3  1  0
  2  4  1  0
  4  5  1  0
  5  6  1  0
  6  7  1  0
  7  8  1  0
  8  9  2  0
  8 10  1  0
 10 11  1  0
 11 12  1  0
 12 13  2  0
 13 14  1  0
 14 15  2  0
 15 16  1  0
 16 17  2  0
 17 18  1  0
 18 19  1  0
  7 20  1  0
 20 21  1  0
 21  4  1  0
 17 12  1  0
  1 22  1  0
  1 23  1  0
  1 24  1  0
  2 25  1  0
  3 26  1  0
  3 27  1  0
  3 28  1  0
  4 29  1  0
  5 30  1  0
  5 31  1  0
  6 32  1  0
  6 33  1  0
  7 34  1  0
 10 35  1  0
 11 36  1  0
 11 37  1  0
 13 38  1  0
 14 39  1  0
 15 40  1  0
 16 41  1  0
 19 42  1  0
 19 43  1  0
 20 44  1  0
 20 45  1  0
 21 46  1  0
 21 47  1  0
M  CHG  1   3   1
M  END
>  <EmbedRMS>  (229) 
0.2736762179535196

$$$$

     RDKit          3D

 46 48  0  0  0  0  0  0  0  0999 V2000
   13.9244    7.3363    1.0276 C   0  0  0  0  0  0  0  0  0  0  0  0
   13.7028    7.9196    2.4320 C   0  0  0  0  0  0  0  0  0  0  0  0
   14.6398    9.0224    2.6737 N   0  0  0  0  0  4  0  0  0  0  0  0
   12.2248    8.3021    2.8037 C   0  0  0  0  0  0  0  0  0  0  0  0
   11.1414    7.3093    2.3480 C   0  0  0  0  0  0  0  0  0  0  0  0
    9.7826    7.9251    2.0745 C   0  0  0  0  0  0  0  0  0  0  0  0
    9.3786    8.9786    3.1024 C   0  0  0  0  0  0  0  0  0  0  0  0
    7.9681    9.4378    2.7684 C   0  0  0  0  0  0  0  0  0  0  0  0
    7.6817    9.7942    1.5990 O   0  0  0  0  0  0  0  0  0  0  0  0
    6.8980    9.2999    3.6898 N   0  0  0  0  0  0  0  0  0  0  0  0
    6.3449   10.4442    4.3281 C   0  0  0  0  0  0  0  0  0  0  0  0
    5.7702   11.5959    3.6788 C   0  0  0  0  0  0  0  0  0  0  0  0
    4.9635   11.6995    4.9598 C   0  0  0  0  0  0  0  0  0  0  0  0
    4.4855   12.5321    5.9504 C   0  0  0  0  0  0  0  0  0  0  0  0
    4.5336   13.9163    5.8268 O   0  0  0  0  0  0  0  0  0  0  0  0
    4.0265   11.8855    7.1285 C   0  0  0  0  0  0  0  0  0  0  0  0
    4.1050   10.4636    7.2813 C   0  0  0  0  0  0  0  0  0  0  0  0
    4.7095    9.6432    6.2984 C   0  0  0  0  0  0  0  0  0  0  0  0
    5.1624   10.3134    5.1825 C   0  0  0  0  0  0  0  0  0  0  0  0
   10.3648   10.1616    3.0758 C   0  0  0  0  0  0  0  0  0  0  0  0
   11.8640    9.7904    2.9867 C   0  0  0  0  0  0  0  0  0  0  0  0
   13.4257    7.9741    0.2674 H   0  0  0  0  0  0  0  0  0  0  0  0
   15.0082    7.2860    0.7891 H   0  0  0  0  0  0  0  0  0  0  0  0
   13.5356    6.2987    0.9605 H   0  0  0  0  0  0  0  0  0  0  0  0
   14.0023    7.0904    3.1176 H   0  0  0  0  0  0  0  0  0  0  0  0
   14.5346    9.3832    3.6491 H   0  0  0  0  0  0  0  0  0  0  0  0
   15.6238    8.6797    2.5783 H   0  0  0  0  0  0  0  0  0  0  0  0
   14.4922    9.7946    1.9847 H   0  0  0  0  0  0  0  0  0  0  0  0
   12.2390    8.0472    3.8917 H   0  0  0  0  0  0  0  0  0  0  0  0
   11.0170    6.4969    3.1018 H   0  0  0  0  0  0  0  0  0  0  0  0
   11.4318    6.7977    1.4116 H   0  0  0  0  0  0  0  0  0  0  0  0
    9.0236    7.1109    2.0495 H   0  0  0  0  0  0  0  0  0  0  0  0
    9.8083    8.3874    1.0612 H   0  0  0  0  0  0  0  0  0  0  0  0
    9.3889    8.5202    4.1164 H   0  0  0  0  0  0  0  0  0  0  0  0
    6.8339    8.3941    4.2070 H   0  0  0  0  0  0  0  0  0  0  0  0
    7.1839   10.8068    4.9871 H   0  0  0  0  0  0  0  0  0  0  0  0
    5.1447   11.3471    2.7911 H   0  0  0  0  0  0  0  0  0  0  0  0
    6.4845   12.4371    3.5433 H   0  0  0  0  0  0  0  0  0  0  0  0
    4.2078   14.5206    6.5718 H   0  0  0  0  0  0  0  0  0  0  0  0
    3.6279   12.4796    7.9406 H   0  0  0  0  0  0  0  0  0  0  0  0
    3.7704   10.0147    8.2074 H   0  0  0  0  0  0  0  0  0  0  0  0
    4.9626    8.6096    6.4929 H   0  0  0  0  0  0  0  0  0  0  0  0
   10.1209   10.8148    2.2074 H   0  0  0  0  0  0  0  0  0  0  0  0
   10.1941   10.7802    3.9844 H   0  0  0  0  0  0  0  0  0  0  0  0
   12.2732   10.3348    2.1090 H   0  0  0  0  0  0  0  0  0  0  0  0
   12.3847   10.2150    3.8753 H   0  0  0  0  0  0  0  0  0  0  0  0
  1  2  1  0
  2  3  1  0
  2  4  1  0
  4  5  1  0
  5  6  1  0
  6  7  1  0
  7  8  1  0
  8  9  2  0
  8 10  1  0
 10 11  1  0
 11 12  1  0
 12 13  1  0
 13 14  2  0
 14 15  1  0
 14 16  1  0
 16 17  2  0
 17 18  1  0
 18 19  2  0
  7 20  1  0
 20 21  1  0
 21  4  1  0
 19 11  1  0
 19 13  1  0
  1 22  1  0
  1 23  1  0
  1 24  1  0
  2 25  1  0
  3 26  1  0
  3 27  1  0
  3 28  1  0
  4 29  1  0
  5 30  1  0
  5 31  1  0
  6 32  1  0
  6 33  1  0
  7 34  1  0
 10 35  1  0
 11 36  1  0
 12 37  1  0
 12 38  1  0
 15 39  1  0
 16 40  1  0
 17 41  1  0
 18 42  1  0
 20 43  1  0
 20 44  1  0
 21 45  1  0
 21 46  1  0
M  CHG  1   3   1
M  END
>  <EmbedRMS>  (230) 
0.2712054588564652

$$$$

     RDKit          3D

 45 46  0  0  0  0  0  0  0  0999 V2000
   13.9234    7.3284    1.0387 C   0  0  0  0  0  0  0  0  0  0  0  0
   13.7078    7.9211    2.4415 C   0  0  0  0  0  0  0  0  0  0  0  0
   14.6425    9.0270    2.6702 N   0  0  0  0  0  4  0  0  0  0  0  0
   12.2296    8.2935    2.8212 C   0  0  0  0  0  0  0  0  0  0  0  0
   11.1748    7.4151    2.1500 C   0  0  0  0  0  0  0  0  0  0  0  0
    9.7363    7.7236    2.5352 C   0  0  0  0  0  0  0  0  0  0  0  0
    9.4519    9.2036    2.6236 C   0  0  0  0  0  0  0  0  0  0  0  0
    7.9915    9.5358    2.7190 C   0  0  0  0  0  0  0  0  0  0  0  0
    7.4120    9.6818    1.6162 O   0  0  0  0  0  0  0  0  0  0  0  0
    7.2350    9.6955    3.9307 N   0  0  0  0  0  0  0  0  0  0  0  0
    5.8469   10.1791    3.8765 C   0  0  0  0  0  0  0  0  0  0  0  0
    5.8178   11.6565    3.5733 C   0  0  0  0  0  0  0  0  0  0  0  0
    5.5838   12.1324    2.2700 C   0  0  0  0  0  0  0  0  0  0  0  0
    5.6158   13.5065    2.0056 C   0  0  0  0  0  0  0  0  0  0  0  0
    5.8776   14.4125    3.0374 C   0  0  0  0  0  0  0  0  0  0  0  0
    6.1100   13.9476    4.3362 C   0  0  0  0  0  0  0  0  0  0  0  0
    6.3690   14.8561    5.3589 O   0  0  0  0  0  0  0  0  0  0  0  0
    6.0842   12.5728    4.6002 C   0  0  0  0  0  0  0  0  0  0  0  0
   10.4238   10.0509    3.4137 C   0  0  0  0  0  0  0  0  0  0  0  0
   11.8790    9.7843    2.9967 C   0  0  0  0  0  0  0  0  0  0  0  0
   13.3792    6.3675    0.9251 H   0  0  0  0  0  0  0  0  0  0  0  0
   13.5736    8.0448    0.2655 H   0  0  0  0  0  0  0  0  0  0  0  0
   15.0005    7.1188    0.8658 H   0  0  0  0  0  0  0  0  0  0  0  0
   14.0115    7.0971    3.1302 H   0  0  0  0  0  0  0  0  0  0  0  0
   15.6234    8.7092    2.4930 H   0  0  0  0  0  0  0  0  0  0  0  0
   14.5979    9.3372    3.6676 H   0  0  0  0  0  0  0  0  0  0  0  0
   14.4336    9.8275    2.0307 H   0  0  0  0  0  0  0  0  0  0  0  0
   12.1629    7.9506    3.8811 H   0  0  0  0  0  0  0  0  0  0  0  0
   11.3811    6.3420    2.3598 H   0  0  0  0  0  0  0  0  0  0  0  0
   11.2480    7.5622    1.0509 H   0  0  0  0  0  0  0  0  0  0  0  0
    9.0518    7.2388    1.8032 H   0  0  0  0  0  0  0  0  0  0  0  0
    9.5317    7.2730    3.5310 H   0  0  0  0  0  0  0  0  0  0  0  0
    9.7032    9.5358    1.5855 H   0  0  0  0  0  0  0  0  0  0  0  0
    7.6851    9.5036    4.8534 H   0  0  0  0  0  0  0  0  0  0  0  0
    5.3598    9.9973    4.8591 H   0  0  0  0  0  0  0  0  0  0  0  0
    5.2687    9.6024    3.1218 H   0  0  0  0  0  0  0  0  0  0  0  0
    5.3778   11.4425    1.4617 H   0  0  0  0  0  0  0  0  0  0  0  0
    5.4362   13.8681    1.0014 H   0  0  0  0  0  0  0  0  0  0  0  0
    5.8995   15.4745    2.8286 H   0  0  0  0  0  0  0  0  0  0  0  0
    6.5423   14.5501    6.3093 H   0  0  0  0  0  0  0  0  0  0  0  0
    6.2787   12.2178    5.6051 H   0  0  0  0  0  0  0  0  0  0  0  0
   10.1917   11.1307    3.2792 H   0  0  0  0  0  0  0  0  0  0  0  0
   10.3070    9.8091    4.4923 H   0  0  0  0  0  0  0  0  0  0  0  0
   12.5374   10.2609    3.7534 H   0  0  0  0  0  0  0  0  0  0  0  0
   12.0585   10.2955    2.0260 H   0  0  0  0  0  0  0  0  0  0  0  0
  1  2  1  0
  2  3  1  0
  2  4  1  0
  4  5  1  0
  5  6  1  0
  6  7  1  0
  7  8  1  0
  8  9  2  0
  8 10  1  0
 10 11  1  0
 11 12  1  0
 12 13  2  0
 13 14  1  0
 14 15  2  0
 15 16  1  0
 16 17  1  0
 16 18  2  0
  7 19  1  0
 19 20  1  0
 20  4  1  0
 18 12  1  0
  1 21  1  0
  1 22  1  0
  1 23  1  0
  2 24  1  0
  3 25  1  0
  3 26  1  0
  3 27  1  0
  4 28  1  0
  5 29  1  0
  5 30  1  0
  6 31  1  0
  6 32  1  0
  7 33  1  0
 10 34  1  0
 11 35  1  0
 11 36  1  0
 13 37  1  0
 14 38  1  0
 15 39  1  0
 17 40  1  0
 18 41  1  0
 19 42  1  0
 19 43  1  0
 20 44  1  0
 20 45  1  0
M  CHG  1   3   1
M  END
>  <EmbedRMS>  (231) 
0.24874902131530774

$$$$

     RDKit          3D

 48 49  0  0  0  0  0  0  0  0999 V2000
   13.9835    7.0984    1.1856 C   0  0  0  0  0  0  0  0  0  0  0  0
   13.5806    8.3570    1.9538 C   0  0  0  0  0  0  0  0  0  0  0  0
   14.7115    8.8837    2.7302 N   0  0  0  0  0  4  0  0  0  0  0  0
   12.2758    8.3215    2.7739 C   0  0  0  0  0  0  0  0  0  0  0  0
   11.1582    7.3123    2.3970 C   0  0  0  0  0  0  0  0  0  0  0  0
    9.7985    7.9221    2.0872 C   0  0  0  0  0  0  0  0  0  0  0  0
    9.4152    8.9901    3.1101 C   0  0  0  0  0  0  0  0  0  0  0  0
    8.0126    9.4731    2.8622 C   0  0  0  0  0  0  0  0  0  0  0  0
    7.6158    9.6883    1.6824 O   0  0  0  0  0  0  0  0  0  0  0  0
    7.1393    9.7165    3.9713 N   0  0  0  0  0  0  0  0  0  0  0  0
    5.7507   10.1274    3.7882 C   0  0  0  0  0  0  0  0  0  0  0  0
    4.9009    8.9597    3.2717 C   0  0  0  0  0  0  0  0  0  0  0  0
    4.7664    7.8328    4.3015 C   0  0  0  0  0  0  0  0  0  0  0  0
    3.8391    8.2247    5.4070 C   0  0  0  0  0  0  0  0  0  0  0  0
    2.4587    8.1800    5.3642 C   0  0  0  0  0  0  0  0  0  0  0  0
    1.9796    8.6488    6.4922 O   0  0  0  0  0  0  0  0  0  0  0  0
    2.9900    9.0022    7.2534 C   0  0  0  0  0  0  0  0  0  0  0  0
    2.8496    9.5430    8.5245 O   0  0  0  0  0  0  0  0  0  0  0  0
    4.1922    8.7674    6.6250 C   0  0  0  0  0  0  0  0  0  0  0  0
   10.3981   10.1514    3.0088 C   0  0  0  0  0  0  0  0  0  0  0  0
   11.8327    9.7190    3.3053 C   0  0  0  0  0  0  0  0  0  0  0  0
   13.2919    6.9106    0.3377 H   0  0  0  0  0  0  0  0  0  0  0  0
   13.9870    6.2215    1.8669 H   0  0  0  0  0  0  0  0  0  0  0  0
   14.9997    7.2116    0.7514 H   0  0  0  0  0  0  0  0  0  0  0  0
   13.3804    9.1009    1.1486 H   0  0  0  0  0  0  0  0  0  0  0  0
   14.4928    9.7900    3.1970 H   0  0  0  0  0  0  0  0  0  0  0  0
   14.9948    8.1898    3.4599 H   0  0  0  0  0  0  0  0  0  0  0  0
   15.5290    9.0528    2.0996 H   0  0  0  0  0  0  0  0  0  0  0  0
   12.6585    7.8395    3.7047 H   0  0  0  0  0  0  0  0  0  0  0  0
   11.0048    6.5965    3.2382 H   0  0  0  0  0  0  0  0  0  0  0  0
   11.4409    6.6832    1.5330 H   0  0  0  0  0  0  0  0  0  0  0  0
    9.0349    7.1122    2.0840 H   0  0  0  0  0  0  0  0  0  0  0  0
    9.8276    8.3603    1.0640 H   0  0  0  0  0  0  0  0  0  0  0  0
    9.4699    8.5486    4.1310 H   0  0  0  0  0  0  0  0  0  0  0  0
    7.5130    9.6448    4.9446 H   0  0  0  0  0  0  0  0  0  0  0  0
    5.3421   10.5061    4.7487 H   0  0  0  0  0  0  0  0  0  0  0  0
    5.7058   10.9683    3.0628 H   0  0  0  0  0  0  0  0  0  0  0  0
    5.3561    8.5470    2.3465 H   0  0  0  0  0  0  0  0  0  0  0  0
    3.8924    9.3371    2.9927 H   0  0  0  0  0  0  0  0  0  0  0  0
    4.3542    6.9329    3.7959 H   0  0  0  0  0  0  0  0  0  0  0  0
    5.7597    7.5525    4.7139 H   0  0  0  0  0  0  0  0  0  0  0  0
    1.8533    7.8227    4.5416 H   0  0  0  0  0  0  0  0  0  0  0  0
    1.9297    9.6879    8.9220 H   0  0  0  0  0  0  0  0  0  0  0  0
    5.1872    8.9685    6.9998 H   0  0  0  0  0  0  0  0  0  0  0  0
   10.1068   10.9544    3.7222 H   0  0  0  0  0  0  0  0  0  0  0  0
   10.3565   10.5867    1.9845 H   0  0  0  0  0  0  0  0  0  0  0  0
   12.4776   10.5258    2.8991 H   0  0  0  0  0  0  0  0  0  0  0  0
   11.9667    9.7492    4.4111 H   0  0  0  0  0  0  0  0  0  0  0  0
  1  2  1  0
  2  3  1  0
  2  4  1  0
  4  5  1  0
  5  6  1  0
  6  7  1  0
  7  8  1  0
  8  9  2  0
  8 10  1  0
 10 11  1  0
 11 12  1  0
 12 13  1  0
 13 14  1  0
 14 15  2  0
 15 16  1  0
 16 17  1  0
 17 18  1  0
 17 19  2  0
  7 20  1  0
 20 21  1  0
 21  4  1  0
 19 14  1  0
  1 22  1  0
  1 23  1  0
  1 24  1  0
  2 25  1  0
  3 26  1  0
  3 27  1  0
  3 28  1  0
  4 29  1  0
  5 30  1  0
  5 31  1  0
  6 32  1  0
  6 33  1  0
  7 34  1  0
 10 35  1  0
 11 36  1  0
 11 37  1  0
 12 38  1  0
 12 39  1  0
 13 40  1  0
 13 41  1  0
 15 42  1  0
 18 43  1  0
 19 44  1  0
 20 45  1  0
 20 46  1  0
 21 47  1  0
 21 48  1  0
M  CHG  1   3   1
M  END
>  <EmbedRMS>  (232) 
0.1871938294692605

$$$$

     RDKit          3D

 48 49  0  0  0  0  0  0  0  0999 V2000
    5.1809   10.5979    5.1565 C   0  0  0  0  0  0  0  0  0  0  0  0
    5.7513   10.1220    3.8208 C   0  0  0  0  0  0  0  0  0  0  0  0
    7.1396    9.7027    3.9896 N   0  0  0  0  0  0  0  0  0  0  0  0
    8.0131    9.4636    2.8819 C   0  0  0  0  0  0  0  0  0  0  0  0
    7.6216    9.6760    1.6990 O   0  0  0  0  0  0  0  0  0  0  0  0
    9.4114    8.9836    3.1537 C   0  0  0  0  0  0  0  0  0  0  0  0
    9.7875    7.8246    2.2121 C   0  0  0  0  0  0  0  0  0  0  0  0
   11.2397    7.3772    2.4517 C   0  0  0  0  0  0  0  0  0  0  0  0
   12.1573    8.5898    2.2118 C   0  0  0  0  0  0  0  0  0  0  0  0
   13.6689    8.3363    1.9395 C   0  0  0  0  0  0  0  0  0  0  0  0
   14.0277    7.0396    1.2343 C   0  0  0  0  0  0  0  0  0  0  0  0
   14.6130    8.7687    2.9622 N   0  0  0  0  0  4  0  0  0  0  0  0
   11.8553    9.6809    3.2540 C   0  0  0  0  0  0  0  0  0  0  0  0
   10.4057   10.1586    3.0874 C   0  0  0  0  0  0  0  0  0  0  0  0
    4.9338    8.9837    3.2885 C   0  0  0  0  0  0  0  0  0  0  0  0
    4.8389    7.7094    3.8169 C   0  0  0  0  0  0  0  0  0  0  0  0
    4.0070    7.0046    3.0867 O   0  0  0  0  0  0  0  0  0  0  0  0
    3.5613    7.7620    2.1090 C   0  0  0  0  0  0  0  0  0  0  0  0
    2.5705    7.3074    1.0905 C   0  0  0  0  0  0  0  0  0  0  0  0
    1.2729    7.4461    1.5972 O   0  0  0  0  0  0  0  0  0  0  0  0
    4.1047    9.0267    2.1899 C   0  0  0  0  0  0  0  0  0  0  0  0
    5.7774   11.4540    5.5377 H   0  0  0  0  0  0  0  0  0  0  0  0
    5.2045    9.7820    5.9111 H   0  0  0  0  0  0  0  0  0  0  0  0
    4.1305   10.9355    5.0245 H   0  0  0  0  0  0  0  0  0  0  0  0
    5.7142   10.9775    3.1100 H   0  0  0  0  0  0  0  0  0  0  0  0
    7.5151    9.5669    4.9564 H   0  0  0  0  0  0  0  0  0  0  0  0
    9.4486    8.5776    4.1898 H   0  0  0  0  0  0  0  0  0  0  0  0
    9.1117    6.9621    2.4027 H   0  0  0  0  0  0  0  0  0  0  0  0
    9.6571    8.1245    1.1482 H   0  0  0  0  0  0  0  0  0  0  0  0
   11.4620    6.5571    1.7387 H   0  0  0  0  0  0  0  0  0  0  0  0
   11.3692    6.9863    3.4847 H   0  0  0  0  0  0  0  0  0  0  0  0
   11.8022    9.0088    1.2372 H   0  0  0  0  0  0  0  0  0  0  0  0
   13.8827    9.0580    1.1113 H   0  0  0  0  0  0  0  0  0  0  0  0
   13.3768    6.8821    0.3473 H   0  0  0  0  0  0  0  0  0  0  0  0
   15.0828    7.0601    0.8858 H   0  0  0  0  0  0  0  0  0  0  0  0
   13.9072    6.1866    1.9346 H   0  0  0  0  0  0  0  0  0  0  0  0
   14.3774    8.3022    3.8675 H   0  0  0  0  0  0  0  0  0  0  0  0
   14.5957    9.8060    3.0879 H   0  0  0  0  0  0  0  0  0  0  0  0
   15.5892    8.5024    2.6972 H   0  0  0  0  0  0  0  0  0  0  0  0
   12.5081   10.5644    3.0943 H   0  0  0  0  0  0  0  0  0  0  0  0
   12.0206    9.2952    4.2838 H   0  0  0  0  0  0  0  0  0  0  0  0
   10.1715   10.8887    3.8929 H   0  0  0  0  0  0  0  0  0  0  0  0
   10.3019   10.6862    2.1127 H   0  0  0  0  0  0  0  0  0  0  0  0
    5.3566    7.3361    4.6907 H   0  0  0  0  0  0  0  0  0  0  0  0
    2.6662    7.9235    0.1714 H   0  0  0  0  0  0  0  0  0  0  0  0
    2.7724    6.2482    0.8137 H   0  0  0  0  0  0  0  0  0  0  0  0
    1.1321    6.6938    2.2302 H   0  0  0  0  0  0  0  0  0  0  0  0
    3.9170    9.8693    1.5370 H   0  0  0  0  0  0  0  0  0  0  0  0
  1  2  1  0
  2  3  1  0
  3  4  1  0
  4  5  2  0
  4  6  1  0
  6  7  1  0
  7  8  1  0
  8  9  1  0
  9 10  1  0
 10 11  1  0
 10 12  1  0
  9 13  1  0
 13 14  1  0
  2 15  1  0
 15 16  2  0
 16 17  1  0
 17 18  1  0
 18 19  1  0
 19 20  1  0
 18 21  2  0
 14  6  1  0
 21 15  1  0
  1 22  1  0
  1 23  1  0
  1 24  1  0
  2 25  1  0
  3 26  1  0
  6 27  1  0
  7 28  1  0
  7 29  1  0
  8 30  1  0
  8 31  1  0
  9 32  1  0
 10 33  1  0
 11 34  1  0
 11 35  1  0
 11 36  1  0
 12 37  1  0
 12 38  1  0
 12 39  1  0
 13 40  1  0
 13 41  1  0
 14 42  1  0
 14 43  1  0
 16 44  1  0
 19 45  1  0
 19 46  1  0
 20 47  1  0
 21 48  1  0
M  CHG  1  12   1
M  END
>  <EmbedRMS>  (233) 
0.16920447723953586

$$$$

     RDKit          3D

 48 49  0  0  0  0  0  0  0  0999 V2000
   13.9226    7.3283    1.0385 C   0  0  0  0  0  0  0  0  0  0  0  0
   13.7074    7.9210    2.4414 C   0  0  0  0  0  0  0  0  0  0  0  0
   14.6423    9.0268    2.6701 N   0  0  0  0  0  4  0  0  0  0  0  0
   12.2292    8.2936    2.8215 C   0  0  0  0  0  0  0  0  0  0  0  0
   11.1736    7.4162    2.1504 C   0  0  0  0  0  0  0  0  0  0  0  0
    9.7351    7.7239    2.5378 C   0  0  0  0  0  0  0  0  0  0  0  0
    9.4497    9.2039    2.6319 C   0  0  0  0  0  0  0  0  0  0  0  0
    7.9880    9.5375    2.7270 C   0  0  0  0  0  0  0  0  0  0  0  0
    7.4131    9.6901    1.6213 O   0  0  0  0  0  0  0  0  0  0  0  0
    7.2214    9.6956    3.9349 N   0  0  0  0  0  0  0  0  0  0  0  0
    5.8122   10.1104    3.8174 C   0  0  0  0  0  0  0  0  0  0  0  0
    5.1300   10.2696    5.1787 C   0  0  0  0  0  0  0  0  0  0  0  0
    5.7105   11.3397    5.8741 O   0  0  0  0  0  0  0  0  0  0  0  0
    3.6446   10.5128    5.0000 C   0  0  0  0  0  0  0  0  0  0  0  0
    2.7238    9.5156    5.3625 C   0  0  0  0  0  0  0  0  0  0  0  0
    1.3516    9.7289    5.2048 C   0  0  0  0  0  0  0  0  0  0  0  0
    0.8855   10.9355    4.6771 C   0  0  0  0  0  0  0  0  0  0  0  0
    1.7920   11.9316    4.3044 C   0  0  0  0  0  0  0  0  0  0  0  0
    3.1665   11.7238    4.4629 C   0  0  0  0  0  0  0  0  0  0  0  0
   10.4246   10.0510    3.4181 C   0  0  0  0  0  0  0  0  0  0  0  0
   11.8788    9.7843    2.9972 C   0  0  0  0  0  0  0  0  0  0  0  0
   13.5730    8.0450    0.2655 H   0  0  0  0  0  0  0  0  0  0  0  0
   13.3779    6.3678    0.9249 H   0  0  0  0  0  0  0  0  0  0  0  0
   14.9996    7.1183    0.8656 H   0  0  0  0  0  0  0  0  0  0  0  0
   14.0110    7.0969    3.1300 H   0  0  0  0  0  0  0  0  0  0  0  0
   14.5984    9.3364    3.6676 H   0  0  0  0  0  0  0  0  0  0  0  0
   14.4330    9.8276    2.0311 H   0  0  0  0  0  0  0  0  0  0  0  0
   15.6231    8.7089    2.4921 H   0  0  0  0  0  0  0  0  0  0  0  0
   12.1627    7.9504    3.8813 H   0  0  0  0  0  0  0  0  0  0  0  0
   11.3802    6.3428    2.3584 H   0  0  0  0  0  0  0  0  0  0  0  0
   11.2458    7.5648    1.0514 H   0  0  0  0  0  0  0  0  0  0  0  0
    9.0498    7.2413    1.8051 H   0  0  0  0  0  0  0  0  0  0  0  0
    9.5315    7.2701    3.5323 H   0  0  0  0  0  0  0  0  0  0  0  0
    9.7004    9.5369    1.5938 H   0  0  0  0  0  0  0  0  0  0  0  0
    7.6733    9.5460    4.8650 H   0  0  0  0  0  0  0  0  0  0  0  0
    5.2633    9.3418    3.2288 H   0  0  0  0  0  0  0  0  0  0  0  0
    5.7602   11.0742    3.2643 H   0  0  0  0  0  0  0  0  0  0  0  0
    5.2968    9.3274    5.7525 H   0  0  0  0  0  0  0  0  0  0  0  0
    5.4172   11.2586    6.8195 H   0  0  0  0  0  0  0  0  0  0  0  0
    3.0652    8.5723    5.7704 H   0  0  0  0  0  0  0  0  0  0  0  0
    0.6485    8.9570    5.4900 H   0  0  0  0  0  0  0  0  0  0  0  0
   -0.1775   11.0980    4.5550 H   0  0  0  0  0  0  0  0  0  0  0  0
    1.4302   12.8653    3.8937 H   0  0  0  0  0  0  0  0  0  0  0  0
    3.8574   12.5054    4.1728 H   0  0  0  0  0  0  0  0  0  0  0  0
   10.1926   11.1309    3.2841 H   0  0  0  0  0  0  0  0  0  0  0  0
   10.3108    9.8095    4.4971 H   0  0  0  0  0  0  0  0  0  0  0  0
   12.0560   10.2952    2.0260 H   0  0  0  0  0  0  0  0  0  0  0  0
   12.5389   10.2612    3.7522 H   0  0  0  0  0  0  0  0  0  0  0  0
  1  2  1  0
  2  3  1  0
  2  4  1  0
  4  5  1  0
  5  6  1  0
  6  7  1  0
  7  8  1  0
  8  9  2  0
  8 10  1  0
 10 11  1  0
 11 12  1  0
 12 13  1  0
 12 14  1  0
 14 15  2  0
 15 16  1  0
 16 17  2  0
 17 18  1  0
 18 19  2  0
  7 20  1  0
 20 21  1  0
 21  4  1  0
 19 14  1  0
  1 22  1  0
  1 23  1  0
  1 24  1  0
  2 25  1  0
  3 26  1  0
  3 27  1  0
  3 28  1  0
  4 29  1  0
  5 30  1  0
  5 31  1  0
  6 32  1  0
  6 33  1  0
  7 34  1  0
 10 35  1  0
 11 36  1  0
 11 37  1  0
 12 38  1  0
 13 39  1  0
 15 40  1  0
 16 41  1  0
 17 42  1  0
 18 43  1  0
 19 44  1  0
 20 45  1  0
 20 46  1  0
 21 47  1  0
 21 48  1  0
M  CHG  1   3   1
M  END
>  <EmbedRMS>  (234) 
0.24164198850730356

$$$$

     RDKit          3D

 48 49  0  0  0  0  0  0  0  0999 V2000
   13.9777    7.0995    1.1859 C   0  0  0  0  0  0  0  0  0  0  0  0
   13.5762    8.3588    1.9540 C   0  0  0  0  0  0  0  0  0  0  0  0
   14.7078    8.8824    2.7316 N   0  0  0  0  0  4  0  0  0  0  0  0
   12.2685    8.3263    2.7721 C   0  0  0  0  0  0  0  0  0  0  0  0
   11.1464    7.3216    2.3949 C   0  0  0  0  0  0  0  0  0  0  0  0
    9.7888    7.9374    2.0698 C   0  0  0  0  0  0  0  0  0  0  0  0
    9.4024    9.0216    3.0743 C   0  0  0  0  0  0  0  0  0  0  0  0
    7.9861    9.5112    2.8282 C   0  0  0  0  0  0  0  0  0  0  0  0
    7.5922    9.7934    1.6673 O   0  0  0  0  0  0  0  0  0  0  0  0
    7.0628    9.4618    3.9107 N   0  0  0  0  0  0  0  0  0  0  0  0
    5.9240   10.2974    4.2990 C   0  0  0  0  0  0  0  0  0  0  0  0
    4.7668    9.5678    4.9295 C   0  0  0  0  0  0  0  0  0  0  0  0
    5.5994   11.7075    3.7738 C   0  0  0  0  0  0  0  0  0  0  0  0
    4.8404   11.9931    2.6598 O   0  0  0  0  0  0  0  0  0  0  0  0
    6.4825   12.7365    4.3697 C   0  0  0  0  0  0  0  0  0  0  0  0
    6.0993   13.3908    5.5235 C   0  0  0  0  0  0  0  0  0  0  0  0
    7.2246   13.9703    6.0153 C   0  0  0  0  0  0  0  0  0  0  0  0
    8.2337   13.6553    5.1282 C   0  0  0  0  0  0  0  0  0  0  0  0
    7.7667   12.8996    4.1566 O   0  0  0  0  0  0  0  0  0  0  0  0
   10.3981   10.1699    2.9823 C   0  0  0  0  0  0  0  0  0  0  0  0
   11.8251    9.7237    3.3041 C   0  0  0  0  0  0  0  0  0  0  0  0
   13.2837    6.9111    0.3401 H   0  0  0  0  0  0  0  0  0  0  0  0
   13.9824    6.2232    1.8680 H   0  0  0  0  0  0  0  0  0  0  0  0
   14.9928    7.2124    0.7493 H   0  0  0  0  0  0  0  0  0  0  0  0
   13.3786    9.1036    1.1490 H   0  0  0  0  0  0  0  0  0  0  0  0
   14.4916    9.7890    3.1989 H   0  0  0  0  0  0  0  0  0  0  0  0
   14.9884    8.1874    3.4614 H   0  0  0  0  0  0  0  0  0  0  0  0
   15.5264    9.0494    2.1019 H   0  0  0  0  0  0  0  0  0  0  0  0
   12.6496    7.8431    3.7029 H   0  0  0  0  0  0  0  0  0  0  0  0
   10.9821    6.6148    3.2417 H   0  0  0  0  0  0  0  0  0  0  0  0
   11.4324    6.6825    1.5393 H   0  0  0  0  0  0  0  0  0  0  0  0
    9.0201    7.1327    2.0722 H   0  0  0  0  0  0  0  0  0  0  0  0
    9.8236    8.3644    1.0424 H   0  0  0  0  0  0  0  0  0  0  0  0
    9.4693    8.5902    4.0986 H   0  0  0  0  0  0  0  0  0  0  0  0
    7.2914    8.7190    4.6124 H   0  0  0  0  0  0  0  0  0  0  0  0
    6.3392   10.5879    5.2977 H   0  0  0  0  0  0  0  0  0  0  0  0
    4.0428    9.2913    4.1347 H   0  0  0  0  0  0  0  0  0  0  0  0
    4.2280   10.1680    5.6991 H   0  0  0  0  0  0  0  0  0  0  0  0
    5.1025    8.6278    5.4197 H   0  0  0  0  0  0  0  0  0  0  0  0
    4.7142   11.8828    4.4218 H   0  0  0  0  0  0  0  0  0  0  0  0
    5.4317   11.7961    1.8891 H   0  0  0  0  0  0  0  0  0  0  0  0
    5.1295   13.3906    6.0062 H   0  0  0  0  0  0  0  0  0  0  0  0
    7.3137   14.5536    6.9219 H   0  0  0  0  0  0  0  0  0  0  0  0
    9.2669   13.9639    5.2139 H   0  0  0  0  0  0  0  0  0  0  0  0
   10.3753   10.5990    1.9552 H   0  0  0  0  0  0  0  0  0  0  0  0
   10.1033   10.9797    3.6866 H   0  0  0  0  0  0  0  0  0  0  0  0
   11.9368    9.7454    4.4125 H   0  0  0  0  0  0  0  0  0  0  0  0
   12.4829   10.5290    2.9165 H   0  0  0  0  0  0  0  0  0  0  0  0
  1  2  1  0
  2  3  1  0
  2  4  1  0
  4  5  1  0
  5  6  1  0
  6  7  1  0
  7  8  1  0
  8  9  2  0
  8 10  1  0
 10 11  1  0
 11 12  1  0
 11 13  1  0
 13 14  1  0
 13 15  1  0
 15 16  2  0
 16 17  1  0
 17 18  2  0
 18 19  1  0
  7 20  1  0
 20 21  1  0
 21  4  1  0
 19 15  1  0
  1 22  1  0
  1 23  1  0
  1 24  1  0
  2 25  1  0
  3 26  1  0
  3 27  1  0
  3 28  1  0
  4 29  1  0
  5 30  1  0
  5 31  1  0
  6 32  1  0
  6 33  1  0
  7 34  1  0
 10 35  1  0
 11 36  1  0
 12 37  1  0
 12 38  1  0
 12 39  1  0
 13 40  1  0
 14 41  1  0
 16 42  1  0
 17 43  1  0
 18 44  1  0
 20 45  1  0
 20 46  1  0
 21 47  1  0
 21 48  1  0
M  CHG  1   3   1
M  END
>  <EmbedRMS>  (235) 
0.3162497839416331

$$$$

     RDKit          3D

 48 49  0  0  0  0  0  0  0  0999 V2000
    4.7786   14.2091    1.2471 C   0  0  0  0  0  0  0  0  0  0  0  0
    5.3620   13.3616    2.3258 C   0  0  0  0  0  0  0  0  0  0  0  0
    6.1519   13.8619    3.3336 C   0  0  0  0  0  0  0  0  0  0  0  0
    6.4909   12.7898    4.0957 C   0  0  0  0  0  0  0  0  0  0  0  0
    5.8713   11.6891    3.5391 C   0  0  0  0  0  0  0  0  0  0  0  0
    5.9678   10.3560    4.2452 C   0  0  0  0  0  0  0  0  0  0  0  0
    4.7747    9.6172    4.8124 C   0  0  0  0  0  0  0  0  0  0  0  0
    3.6217   10.3852    4.9044 O   0  0  0  0  0  0  0  0  0  0  0  0
    7.0950    9.4832    3.9571 N   0  0  0  0  0  0  0  0  0  0  0  0
    8.0030    9.4794    2.8614 C   0  0  0  0  0  0  0  0  0  0  0  0
    7.6111    9.7563    1.6955 O   0  0  0  0  0  0  0  0  0  0  0  0
    9.4101    9.0021    3.1274 C   0  0  0  0  0  0  0  0  0  0  0  0
    9.7850    7.8331    2.1994 C   0  0  0  0  0  0  0  0  0  0  0  0
   11.2358    7.3817    2.4480 C   0  0  0  0  0  0  0  0  0  0  0  0
   12.1576    8.5916    2.2092 C   0  0  0  0  0  0  0  0  0  0  0  0
   13.6693    8.3360    1.9398 C   0  0  0  0  0  0  0  0  0  0  0  0
   14.0274    7.0387    1.2353 C   0  0  0  0  0  0  0  0  0  0  0  0
   14.6123    8.7680    2.9636 N   0  0  0  0  0  4  0  0  0  0  0  0
   11.8538    9.6863    3.2474 C   0  0  0  0  0  0  0  0  0  0  0  0
   10.4075   10.1716    3.0670 C   0  0  0  0  0  0  0  0  0  0  0  0
    5.1975   12.0524    2.4603 O   0  0  0  0  0  0  0  0  0  0  0  0
    5.5902   14.7325    0.6996 H   0  0  0  0  0  0  0  0  0  0  0  0
    4.0896   14.9582    1.6905 H   0  0  0  0  0  0  0  0  0  0  0  0
    4.2126   13.5741    0.5340 H   0  0  0  0  0  0  0  0  0  0  0  0
    6.4538   14.8903    3.4836 H   0  0  0  0  0  0  0  0  0  0  0  0
    7.1104   12.8227    4.9835 H   0  0  0  0  0  0  0  0  0  0  0  0
    6.2954   10.7304    5.2443 H   0  0  0  0  0  0  0  0  0  0  0  0
    4.5500    8.7806    4.1173 H   0  0  0  0  0  0  0  0  0  0  0  0
    4.9955    9.1355    5.7967 H   0  0  0  0  0  0  0  0  0  0  0  0
    3.7635   11.0115    5.6614 H   0  0  0  0  0  0  0  0  0  0  0  0
    7.3128    8.7978    4.7180 H   0  0  0  0  0  0  0  0  0  0  0  0
    9.4626    8.6050    4.1663 H   0  0  0  0  0  0  0  0  0  0  0  0
    9.6571    8.1260    1.1333 H   0  0  0  0  0  0  0  0  0  0  0  0
    9.1053    6.9751    2.3955 H   0  0  0  0  0  0  0  0  0  0  0  0
   11.3589    6.9939    3.4829 H   0  0  0  0  0  0  0  0  0  0  0  0
   11.4597    6.5589    1.7387 H   0  0  0  0  0  0  0  0  0  0  0  0
   11.8061    9.0086    1.2324 H   0  0  0  0  0  0  0  0  0  0  0  0
   13.8857    9.0570    1.1116 H   0  0  0  0  0  0  0  0  0  0  0  0
   15.0830    7.0578    0.8883 H   0  0  0  0  0  0  0  0  0  0  0  0
   13.3773    6.8818    0.3476 H   0  0  0  0  0  0  0  0  0  0  0  0
   13.9048    6.1861    1.9357 H   0  0  0  0  0  0  0  0  0  0  0  0
   15.5883    8.4980    2.7018 H   0  0  0  0  0  0  0  0  0  0  0  0
   14.5978    9.8057    3.0868 H   0  0  0  0  0  0  0  0  0  0  0  0
   14.3729    8.3045    3.8696 H   0  0  0  0  0  0  0  0  0  0  0  0
   12.5122   10.5662    3.0910 H   0  0  0  0  0  0  0  0  0  0  0  0
   12.0093    9.3020    4.2793 H   0  0  0  0  0  0  0  0  0  0  0  0
   10.3131   10.6966    2.0901 H   0  0  0  0  0  0  0  0  0  0  0  0
   10.1691   10.9051    3.8683 H   0  0  0  0  0  0  0  0  0  0  0  0
  1  2  1  0
  2  3  2  0
  3  4  1  0
  4  5  2  0
  5  6  1  0
  6  7  1  0
  7  8  1  0
  6  9  1  0
  9 10  1  0
 10 11  2  0
 10 12  1  0
 12 13  1  0
 13 14  1  0
 14 15  1  0
 15 16  1  0
 16 17  1  0
 16 18  1  0
 15 19  1  0
 19 20  1  0
  5 21  1  0
 21  2  1  0
 20 12  1  0
  1 22  1  0
  1 23  1  0
  1 24  1  0
  3 25  1  0
  4 26  1  0
  6 27  1  0
  7 28  1  0
  7 29  1  0
  8 30  1  0
  9 31  1  0
 12 32  1  0
 13 33  1  0
 13 34  1  0
 14 35  1  0
 14 36  1  0
 15 37  1  0
 16 38  1  0
 17 39  1  0
 17 40  1  0
 17 41  1  0
 18 42  1  0
 18 43  1  0
 18 44  1  0
 19 45  1  0
 19 46  1  0
 20 47  1  0
 20 48  1  0
M  CHG  1  18   1
M  END
>  <EmbedRMS>  (236) 
0.24786164465396546

$$$$

     RDKit          3D

 42 43  0  0  0  0  0  0  0  0999 V2000
   14.0269    7.0397    1.2344 C   0  0  0  0  0  0  0  0  0  0  0  0
   13.6681    8.3364    1.9397 C   0  0  0  0  0  0  0  0  0  0  0  0
   14.6123    8.7686    2.9623 N   0  0  0  0  0  4  0  0  0  0  0  0
   12.1564    8.5901    2.2119 C   0  0  0  0  0  0  0  0  0  0  0  0
   11.2386    7.3778    2.4521 C   0  0  0  0  0  0  0  0  0  0  0  0
    9.7860    7.8254    2.2133 C   0  0  0  0  0  0  0  0  0  0  0  0
    9.4095    8.9847    3.1550 C   0  0  0  0  0  0  0  0  0  0  0  0
    8.0101    9.4664    2.8849 C   0  0  0  0  0  0  0  0  0  0  0  0
    7.6148    9.6615    1.7003 O   0  0  0  0  0  0  0  0  0  0  0  0
    7.1346    9.6937    3.9966 N   0  0  0  0  0  0  0  0  0  0  0  0
    5.8810   10.3806    3.9267 C   0  0  0  0  0  0  0  0  0  0  0  0
    4.9457   10.0052    4.6818 O   0  0  0  0  0  0  0  0  0  0  0  0
    5.6715   11.5551    3.0623 C   0  0  0  0  0  0  0  0  0  0  0  0
    6.6606   12.3397    2.4677 C   0  0  0  0  0  0  0  0  0  0  0  0
    6.1498   13.4238    1.7478 C   0  0  0  0  0  0  0  0  0  0  0  0
    4.7674   13.4957    1.8035 C   0  0  0  0  0  0  0  0  0  0  0  0
    3.9731   14.5034    1.1851 N   0  0  0  0  0  0  0  0  0  0  0  0
    4.1638   12.2336    2.7308 S   0  0  0  0  0  0  0  0  0  0  0  0
   10.4043   10.1594    3.0866 C   0  0  0  0  0  0  0  0  0  0  0  0
   11.8542    9.6817    3.2535 C   0  0  0  0  0  0  0  0  0  0  0  0
   13.3759    6.8822    0.3474 H   0  0  0  0  0  0  0  0  0  0  0  0
   15.0821    7.0602    0.8858 H   0  0  0  0  0  0  0  0  0  0  0  0
   13.9064    6.1867    1.9346 H   0  0  0  0  0  0  0  0  0  0  0  0
   13.8819    9.0581    1.1115 H   0  0  0  0  0  0  0  0  0  0  0  0
   15.5886    8.5027    2.6970 H   0  0  0  0  0  0  0  0  0  0  0  0
   14.5946    9.8059    3.0884 H   0  0  0  0  0  0  0  0  0  0  0  0
   14.3771    8.3017    3.8675 H   0  0  0  0  0  0  0  0  0  0  0  0
   11.8013    9.0088    1.2371 H   0  0  0  0  0  0  0  0  0  0  0  0
   11.4605    6.5577    1.7391 H   0  0  0  0  0  0  0  0  0  0  0  0
   11.3684    6.9870    3.4851 H   0  0  0  0  0  0  0  0  0  0  0  0
    9.1106    6.9629    2.4040 H   0  0  0  0  0  0  0  0  0  0  0  0
    9.6555    8.1253    1.1494 H   0  0  0  0  0  0  0  0  0  0  0  0
    9.4501    8.5813    4.1918 H   0  0  0  0  0  0  0  0  0  0  0  0
    7.3719    9.2418    4.9085 H   0  0  0  0  0  0  0  0  0  0  0  0
    7.7222   12.1634    2.5732 H   0  0  0  0  0  0  0  0  0  0  0  0
    6.7699   14.1403    1.2255 H   0  0  0  0  0  0  0  0  0  0  0  0
    2.9340   14.4882    1.2839 H   0  0  0  0  0  0  0  0  0  0  0  0
    4.4216   15.2642    0.6282 H   0  0  0  0  0  0  0  0  0  0  0  0
   10.1702   10.8911    3.8908 H   0  0  0  0  0  0  0  0  0  0  0  0
   10.2998   10.6858    2.1113 H   0  0  0  0  0  0  0  0  0  0  0  0
   12.5070   10.5651    3.0933 H   0  0  0  0  0  0  0  0  0  0  0  0
   12.0195    9.2966    4.2836 H   0  0  0  0  0  0  0  0  0  0  0  0
  1  2  1  0
  2  3  1  0
  2  4  1  0
  4  5  1  0
  5  6  1  0
  6  7  1  0
  7  8  1  0
  8  9  2  0
  8 10  1  0
 10 11  1  0
 11 12  2  0
 11 13  1  0
 13 14  2  0
 14 15  1  0
 15 16  2  0
 16 17  1  0
 16 18  1  0
  7 19  1  0
 19 20  1  0
 20  4  1  0
 18 13  1  0
  1 21  1  0
  1 22  1  0
  1 23  1  0
  2 24  1  0
  3 25  1  0
  3 26  1  0
  3 27  1  0
  4 28  1  0
  5 29  1  0
  5 30  1  0
  6 31  1  0
  6 32  1  0
  7 33  1  0
 10 34  1  0
 14 35  1  0
 15 36  1  0
 17 37  1  0
 17 38  1  0
 19 39  1  0
 19 40  1  0
 20 41  1  0
 20 42  1  0
M  CHG  1   3   1
M  END
>  <EmbedRMS>  (237) 
0.1732114448472343

$$$$

     RDKit          3D

 46 47  0  0  0  0  0  0  0  0999 V2000
    5.9481   15.6881    1.3871 C   0  0  0  0  0  0  0  0  0  0  0  0
    5.9051   14.3617    1.2556 C   0  0  0  0  0  0  0  0  0  0  0  0
    5.8941   13.8223   -0.0288 O   0  0  0  0  0  0  0  0  0  0  0  0
    5.8710   13.4603    2.4276 C   0  0  0  0  0  0  0  0  0  0  0  0
    5.8798   13.8330    3.7631 C   0  0  0  0  0  0  0  0  0  0  0  0
    5.8498   12.6606    4.4830 C   0  0  0  0  0  0  0  0  0  0  0  0
    5.8229   11.6458    3.5503 C   0  0  0  0  0  0  0  0  0  0  0  0
    5.8439   10.1801    3.8726 C   0  0  0  0  0  0  0  0  0  0  0  0
    7.2292    9.6931    3.9281 N   0  0  0  0  0  0  0  0  0  0  0  0
    7.9887    9.5394    2.7175 C   0  0  0  0  0  0  0  0  0  0  0  0
    7.4111    9.6865    1.6134 O   0  0  0  0  0  0  0  0  0  0  0  0
    9.4508    9.2150    2.6319 C   0  0  0  0  0  0  0  0  0  0  0  0
    9.7345    7.7437    2.3715 C   0  0  0  0  0  0  0  0  0  0  0  0
   11.1977    7.3499    2.5400 C   0  0  0  0  0  0  0  0  0  0  0  0
   12.1820    8.5083    2.2953 C   0  0  0  0  0  0  0  0  0  0  0  0
   13.6459    7.9626    2.3851 C   0  0  0  0  0  0  0  0  0  0  0  0
   14.0280    7.2301    1.0860 C   0  0  0  0  0  0  0  0  0  0  0  0
   14.6271    9.0244    2.6473 N   0  0  0  0  0  4  0  0  0  0  0  0
   11.8956    9.6379    3.3173 C   0  0  0  0  0  0  0  0  0  0  0  0
   10.4175   10.0740    3.4251 C   0  0  0  0  0  0  0  0  0  0  0  0
    5.8361   12.1481    2.3348 O   0  0  0  0  0  0  0  0  0  0  0  0
    5.9595   16.1745    2.3519 H   0  0  0  0  0  0  0  0  0  0  0  0
    5.9728   16.3173    0.5064 H   0  0  0  0  0  0  0  0  0  0  0  0
    5.8638   12.8218   -0.1847 H   0  0  0  0  0  0  0  0  0  0  0  0
    5.9124   14.8303    4.1790 H   0  0  0  0  0  0  0  0  0  0  0  0
    5.8625   12.5593    5.5602 H   0  0  0  0  0  0  0  0  0  0  0  0
    5.3574   10.0142    4.8580 H   0  0  0  0  0  0  0  0  0  0  0  0
    5.2651    9.6122    3.1130 H   0  0  0  0  0  0  0  0  0  0  0  0
    7.6720    9.4856    4.8510 H   0  0  0  0  0  0  0  0  0  0  0  0
    9.7095    9.6217    1.6222 H   0  0  0  0  0  0  0  0  0  0  0  0
    9.3954    7.4693    1.3455 H   0  0  0  0  0  0  0  0  0  0  0  0
    9.1280    7.1316    3.0753 H   0  0  0  0  0  0  0  0  0  0  0  0
   11.3428    6.9707    3.5768 H   0  0  0  0  0  0  0  0  0  0  0  0
   11.3983    6.4994    1.8576 H   0  0  0  0  0  0  0  0  0  0  0  0
   12.0120    8.9217    1.2754 H   0  0  0  0  0  0  0  0  0  0  0  0
   13.7141    7.2277    3.2201 H   0  0  0  0  0  0  0  0  0  0  0  0
   13.9580    7.9168    0.2155 H   0  0  0  0  0  0  0  0  0  0  0  0
   13.3808    6.3498    0.9045 H   0  0  0  0  0  0  0  0  0  0  0  0
   15.0713    6.8548    1.1523 H   0  0  0  0  0  0  0  0  0  0  0  0
   14.5265    9.7975    1.9495 H   0  0  0  0  0  0  0  0  0  0  0  0
   14.5142    9.3997    3.6160 H   0  0  0  0  0  0  0  0  0  0  0  0
   15.5989    8.6418    2.5854 H   0  0  0  0  0  0  0  0  0  0  0  0
   12.2332    9.3023    4.3233 H   0  0  0  0  0  0  0  0  0  0  0  0
   12.4948   10.5353    3.0512 H   0  0  0  0  0  0  0  0  0  0  0  0
   10.1177   10.0282    4.4945 H   0  0  0  0  0  0  0  0  0  0  0  0
   10.3156   11.1411    3.1199 H   0  0  0  0  0  0  0  0  0  0  0  0
  1  2  2  3
  2  3  1  0
  2  4  1  0
  4  5  2  0
  5  6  1  0
  6  7  2  0
  7  8  1  0
  8  9  1  0
  9 10  1  0
 10 11  2  0
 10 12  1  0
 12 13  1  0
 13 14  1  0
 14 15  1  0
 15 16  1  0
 16 17  1  0
 16 18  1  0
 15 19  1  0
 19 20  1  0
  7 21  1  0
 21  4  1  0
 20 12  1  0
  1 22  1  0
  1 23  1  0
  3 24  1  0
  5 25  1  0
  6 26  1  0
  8 27  1  0
  8 28  1  0
  9 29  1  0
 12 30  1  0
 13 31  1  0
 13 32  1  0
 14 33  1  0
 14 34  1  0
 15 35  1  0
 16 36  1  0
 17 37  1  0
 17 38  1  0
 17 39  1  0
 18 40  1  0
 18 41  1  0
 18 42  1  0
 19 43  1  0
 19 44  1  0
 20 45  1  0
 20 46  1  0
M  CHG  1  18   1
M  END
>  <EmbedRMS>  (238) 
0.16482552060735584

$$$$

     RDKit          3D

 48 49  0  0  0  0  0  0  0  0999 V2000
    8.5154   13.2543    3.3676 C   0  0  0  0  0  0  0  0  0  0  0  0
    7.5179   13.1936    4.4781 C   0  0  0  0  0  0  0  0  0  0  0  0
    7.6602   13.8357    5.6143 O   0  0  0  0  0  0  0  0  0  0  0  0
    6.6061   13.6081    6.3658 C   0  0  0  0  0  0  0  0  0  0  0  0
    5.7232   12.7832    5.6973 C   0  0  0  0  0  0  0  0  0  0  0  0
    6.3080   12.5224    4.4726 C   0  0  0  0  0  0  0  0  0  0  0  0
    5.7497   11.6496    3.3806 C   0  0  0  0  0  0  0  0  0  0  0  0
    4.4360   12.0470    3.1007 O   0  0  0  0  0  0  0  0  0  0  0  0
    5.7690   10.1741    3.8056 C   0  0  0  0  0  0  0  0  0  0  0  0
    7.1392    9.7009    3.9768 N   0  0  0  0  0  0  0  0  0  0  0  0
    8.0118    9.4631    2.8653 C   0  0  0  0  0  0  0  0  0  0  0  0
    7.6117    9.6748    1.6857 O   0  0  0  0  0  0  0  0  0  0  0  0
    9.4159    8.9806    3.1117 C   0  0  0  0  0  0  0  0  0  0  0  0
    9.8030    7.9242    2.0799 C   0  0  0  0  0  0  0  0  0  0  0  0
   11.1596    7.3106    2.3923 C   0  0  0  0  0  0  0  0  0  0  0  0
   12.2776    8.3174    2.7719 C   0  0  0  0  0  0  0  0  0  0  0  0
   13.5822    8.3546    1.9525 C   0  0  0  0  0  0  0  0  0  0  0  0
   13.9863    7.0963    1.1850 C   0  0  0  0  0  0  0  0  0  0  0  0
   14.7120    8.8831    2.7294 N   0  0  0  0  0  4  0  0  0  0  0  0
   11.8377    9.7143    3.3033 C   0  0  0  0  0  0  0  0  0  0  0  0
   10.3986   10.1437    3.0298 C   0  0  0  0  0  0  0  0  0  0  0  0
    9.5294   13.4260    3.7848 H   0  0  0  0  0  0  0  0  0  0  0  0
    8.2575   14.0950    2.6912 H   0  0  0  0  0  0  0  0  0  0  0  0
    8.5256   12.3160    2.7828 H   0  0  0  0  0  0  0  0  0  0  0  0
    6.4656   14.0137    7.3586 H   0  0  0  0  0  0  0  0  0  0  0  0
    4.7712   12.4185    6.0597 H   0  0  0  0  0  0  0  0  0  0  0  0
    6.3551   11.7798    2.4578 H   0  0  0  0  0  0  0  0  0  0  0  0
    4.1889   11.6414    2.2283 H   0  0  0  0  0  0  0  0  0  0  0  0
    5.2115   10.0502    4.7601 H   0  0  0  0  0  0  0  0  0  0  0  0
    5.2578    9.5499    3.0407 H   0  0  0  0  0  0  0  0  0  0  0  0
    7.4738    9.4929    4.9446 H   0  0  0  0  0  0  0  0  0  0  0  0
    9.4694    8.5274    4.1273 H   0  0  0  0  0  0  0  0  0  0  0  0
    9.8393    8.3742    1.0621 H   0  0  0  0  0  0  0  0  0  0  0  0
    9.0392    7.1148    2.0634 H   0  0  0  0  0  0  0  0  0  0  0  0
   11.0027    6.5942    3.2323 H   0  0  0  0  0  0  0  0  0  0  0  0
   11.4428    6.6820    1.5281 H   0  0  0  0  0  0  0  0  0  0  0  0
   12.6591    7.8328    3.7019 H   0  0  0  0  0  0  0  0  0  0  0  0
   13.3817    9.0978    1.1467 H   0  0  0  0  0  0  0  0  0  0  0  0
   15.0028    7.2099    0.7518 H   0  0  0  0  0  0  0  0  0  0  0  0
   13.9896    6.2195    1.8665 H   0  0  0  0  0  0  0  0  0  0  0  0
   13.2957    6.9080    0.3364 H   0  0  0  0  0  0  0  0  0  0  0  0
   14.4924    9.7904    3.1939 H   0  0  0  0  0  0  0  0  0  0  0  0
   15.5303    9.0512    2.0996 H   0  0  0  0  0  0  0  0  0  0  0  0
   14.9945    8.1908    3.4609 H   0  0  0  0  0  0  0  0  0  0  0  0
   12.4740   10.5213    2.8832 H   0  0  0  0  0  0  0  0  0  0  0  0
   11.9925    9.7497    4.4064 H   0  0  0  0  0  0  0  0  0  0  0  0
   10.1195   10.9138    3.7803 H   0  0  0  0  0  0  0  0  0  0  0  0
   10.3429   10.6113    2.0206 H   0  0  0  0  0  0  0  0  0  0  0  0
  1  2  1  0
  2  3  1  0
  3  4  1  0
  4  5  2  0
  5  6  1  0
  6  7  1  0
  7  8  1  0
  7  9  1  0
  9 10  1  0
 10 11  1  0
 11 12  2  0
 11 13  1  0
 13 14  1  0
 14 15  1  0
 15 16  1  0
 16 17  1  0
 17 18  1  0
 17 19  1  0
 16 20  1  0
 20 21  1  0
  6  2  2  0
 21 13  1  0
  1 22  1  0
  1 23  1  0
  1 24  1  0
  4 25  1  0
  5 26  1  0
  7 27  1  0
  8 28  1  0
  9 29  1  0
  9 30  1  0
 10 31  1  0
 13 32  1  0
 14 33  1  0
 14 34  1  0
 15 35  1  0
 15 36  1  0
 16 37  1  0
 17 38  1  0
 18 39  1  0
 18 40  1  0
 18 41  1  0
 19 42  1  0
 19 43  1  0
 19 44  1  0
 20 45  1  0
 20 46  1  0
 21 47  1  0
 21 48  1  0
M  CHG  1  19   1
M  END
>  <EmbedRMS>  (239) 
0.1873918701950534

$$$$

     RDKit          3D

 45 46  0  0  0  0  0  0  0  0999 V2000
   13.9226    7.3286    1.0384 C   0  0  0  0  0  0  0  0  0  0  0  0
   13.7079    7.9211    2.4414 C   0  0  0  0  0  0  0  0  0  0  0  0
   14.6427    9.0269    2.6699 N   0  0  0  0  0  4  0  0  0  0  0  0
   12.2300    8.2934    2.8222 C   0  0  0  0  0  0  0  0  0  0  0  0
   11.1743    7.4161    2.1512 C   0  0  0  0  0  0  0  0  0  0  0  0
    9.7363    7.7225    2.5408 C   0  0  0  0  0  0  0  0  0  0  0  0
    9.4507    9.2022    2.6394 C   0  0  0  0  0  0  0  0  0  0  0  0
    7.9885    9.5356    2.7294 C   0  0  0  0  0  0  0  0  0  0  0  0
    7.4296    9.6812    1.6148 O   0  0  0  0  0  0  0  0  0  0  0  0
    7.2125    9.6907    3.9402 N   0  0  0  0  0  0  0  0  0  0  0  0
    5.8287   10.1224    3.8915 C   0  0  0  0  0  0  0  0  0  0  0  0
    5.2959   10.3605    2.7767 O   0  0  0  0  0  0  0  0  0  0  0  0
    5.0695   10.2866    5.1053 N   0  0  0  0  0  0  0  0  0  0  0  0
    3.6899   10.7230    5.2221 C   0  0  0  0  0  0  0  0  0  0  0  0
    2.8748   11.0555    4.1111 C   0  0  0  0  0  0  0  0  0  0  0  0
    1.5543   11.4687    4.2921 C   0  0  0  0  0  0  0  0  0  0  0  0
    1.0172   11.5605    5.5734 C   0  0  0  0  0  0  0  0  0  0  0  0
    1.8017   11.2384    6.6808 C   0  0  0  0  0  0  0  0  0  0  0  0
    3.1261   10.8233    6.5079 C   0  0  0  0  0  0  0  0  0  0  0  0
   10.4259   10.0504    3.4230 C   0  0  0  0  0  0  0  0  0  0  0  0
   11.8795    9.7841    2.9993 C   0  0  0  0  0  0  0  0  0  0  0  0
   13.3779    6.3681    0.9248 H   0  0  0  0  0  0  0  0  0  0  0  0
   13.5727    8.0453    0.2656 H   0  0  0  0  0  0  0  0  0  0  0  0
   14.9996    7.1185    0.8651 H   0  0  0  0  0  0  0  0  0  0  0  0
   14.0120    7.0969    3.1297 H   0  0  0  0  0  0  0  0  0  0  0  0
   14.4328    9.8279    2.0314 H   0  0  0  0  0  0  0  0  0  0  0  0
   14.5996    9.3361    3.6676 H   0  0  0  0  0  0  0  0  0  0  0  0
   15.6234    8.7094    2.4910 H   0  0  0  0  0  0  0  0  0  0  0  0
   12.1640    7.9496    3.8818 H   0  0  0  0  0  0  0  0  0  0  0  0
   11.3818    6.3426    2.3579 H   0  0  0  0  0  0  0  0  0  0  0  0
   11.2452    7.5659    1.0523 H   0  0  0  0  0  0  0  0  0  0  0  0
    9.5337    7.2660    3.5343 H   0  0  0  0  0  0  0  0  0  0  0  0
    9.0505    7.2415    1.8075 H   0  0  0  0  0  0  0  0  0  0  0  0
    9.7056    9.5356    1.6022 H   0  0  0  0  0  0  0  0  0  0  0  0
    7.6689    9.5156    4.8629 H   0  0  0  0  0  0  0  0  0  0  0  0
    5.5778   10.0673    5.9918 H   0  0  0  0  0  0  0  0  0  0  0  0
    3.2016   11.0149    3.0917 H   0  0  0  0  0  0  0  0  0  0  0  0
    0.9430   11.7196    3.4343 H   0  0  0  0  0  0  0  0  0  0  0  0
   -0.0074   11.8815    5.7100 H   0  0  0  0  0  0  0  0  0  0  0  0
    1.3840   11.3098    7.6768 H   0  0  0  0  0  0  0  0  0  0  0  0
    3.7161   10.5783    7.3822 H   0  0  0  0  0  0  0  0  0  0  0  0
   10.1929   11.1300    3.2890 H   0  0  0  0  0  0  0  0  0  0  0  0
   10.3142    9.8092    4.5024 H   0  0  0  0  0  0  0  0  0  0  0  0
   12.0551   10.2956    2.0280 H   0  0  0  0  0  0  0  0  0  0  0  0
   12.5408   10.2609    3.7533 H   0  0  0  0  0  0  0  0  0  0  0  0
  1  2  1  0
  2  3  1  0
  2  4  1  0
  4  5  1  0
  5  6  1  0
  6  7  1  0
  7  8  1  0
  8  9  2  0
  8 10  1  0
 10 11  1  0
 11 12  2  0
 11 13  1  0
 13 14  1  0
 14 15  2  0
 15 16  1  0
 16 17  2  0
 17 18  1  0
 18 19  2  0
  7 20  1  0
 20 21  1  0
 21  4  1  0
 19 14  1  0
  1 22  1  0
  1 23  1  0
  1 24  1  0
  2 25  1  0
  3 26  1  0
  3 27  1  0
  3 28  1  0
  4 29  1  0
  5 30  1  0
  5 31  1  0
  6 32  1  0
  6 33  1  0
  7 34  1  0
 10 35  1  0
 13 36  1  0
 15 37  1  0
 16 38  1  0
 17 39  1  0
 18 40  1  0
 19 41  1  0
 20 42  1  0
 20 43  1  0
 21 44  1  0
 21 45  1  0
M  CHG  1   3   1
M  END
>  <EmbedRMS>  (240) 
0.24066107094576092

$$$$

     RDKit          3D

 45 46  0  0  0  0  0  0  0  0999 V2000
   13.9234    7.3284    1.0387 C   0  0  0  0  0  0  0  0  0  0  0  0
   13.7078    7.9211    2.4415 C   0  0  0  0  0  0  0  0  0  0  0  0
   14.6425    9.0270    2.6702 N   0  0  0  0  0  4  0  0  0  0  0  0
   12.2296    8.2935    2.8212 C   0  0  0  0  0  0  0  0  0  0  0  0
   11.1748    7.4151    2.1500 C   0  0  0  0  0  0  0  0  0  0  0  0
    9.7363    7.7236    2.5352 C   0  0  0  0  0  0  0  0  0  0  0  0
    9.4519    9.2036    2.6236 C   0  0  0  0  0  0  0  0  0  0  0  0
    7.9915    9.5358    2.7190 C   0  0  0  0  0  0  0  0  0  0  0  0
    7.4120    9.6818    1.6162 O   0  0  0  0  0  0  0  0  0  0  0  0
    7.2350    9.6955    3.9307 N   0  0  0  0  0  0  0  0  0  0  0  0
    5.8469   10.1791    3.8765 C   0  0  0  0  0  0  0  0  0  0  0  0
    5.8178   11.6565    3.5733 C   0  0  0  0  0  0  0  0  0  0  0  0
    5.5838   12.1324    2.2700 C   0  0  0  0  0  0  0  0  0  0  0  0
    5.6158   13.5065    2.0056 C   0  0  0  0  0  0  0  0  0  0  0  0
    5.8776   14.4125    3.0374 C   0  0  0  0  0  0  0  0  0  0  0  0
    6.1100   13.9476    4.3362 C   0  0  0  0  0  0  0  0  0  0  0  0
    6.3690   14.8561    5.3589 O   0  0  0  0  0  0  0  0  0  0  0  0
    6.0842   12.5728    4.6002 C   0  0  0  0  0  0  0  0  0  0  0  0
   10.4238   10.0509    3.4137 C   0  0  0  0  0  0  0  0  0  0  0  0
   11.8790    9.7843    2.9967 C   0  0  0  0  0  0  0  0  0  0  0  0
   13.3792    6.3675    0.9251 H   0  0  0  0  0  0  0  0  0  0  0  0
   13.5736    8.0448    0.2655 H   0  0  0  0  0  0  0  0  0  0  0  0
   15.0005    7.1188    0.8658 H   0  0  0  0  0  0  0  0  0  0  0  0
   14.0115    7.0971    3.1302 H   0  0  0  0  0  0  0  0  0  0  0  0
   15.6234    8.7092    2.4930 H   0  0  0  0  0  0  0  0  0  0  0  0
   14.5979    9.3372    3.6676 H   0  0  0  0  0  0  0  0  0  0  0  0
   14.4336    9.8275    2.0307 H   0  0  0  0  0  0  0  0  0  0  0  0
   12.1629    7.9506    3.8811 H   0  0  0  0  0  0  0  0  0  0  0  0
   11.3811    6.3420    2.3598 H   0  0  0  0  0  0  0  0  0  0  0  0
   11.2480    7.5622    1.0509 H   0  0  0  0  0  0  0  0  0  0  0  0
    9.0518    7.2388    1.8032 H   0  0  0  0  0  0  0  0  0  0  0  0
    9.5317    7.2730    3.5310 H   0  0  0  0  0  0  0  0  0  0  0  0
    9.7032    9.5358    1.5855 H   0  0  0  0  0  0  0  0  0  0  0  0
    7.6851    9.5036    4.8534 H   0  0  0  0  0  0  0  0  0  0  0  0
    5.3598    9.9973    4.8591 H   0  0  0  0  0  0  0  0  0  0  0  0
    5.2687    9.6024    3.1218 H   0  0  0  0  0  0  0  0  0  0  0  0
    5.3778   11.4425    1.4617 H   0  0  0  0  0  0  0  0  0  0  0  0
    5.4362   13.8681    1.0014 H   0  0  0  0  0  0  0  0  0  0  0  0
    5.8995   15.4745    2.8286 H   0  0  0  0  0  0  0  0  0  0  0  0
    6.5423   14.5501    6.3093 H   0  0  0  0  0  0  0  0  0  0  0  0
    6.2787   12.2178    5.6051 H   0  0  0  0  0  0  0  0  0  0  0  0
   10.1917   11.1307    3.2792 H   0  0  0  0  0  0  0  0  0  0  0  0
   10.3070    9.8091    4.4923 H   0  0  0  0  0  0  0  0  0  0  0  0
   12.5374   10.2609    3.7534 H   0  0  0  0  0  0  0  0  0  0  0  0
   12.0585   10.2955    2.0260 H   0  0  0  0  0  0  0  0  0  0  0  0
  1  2  1  0
  2  3  1  0
  2  4  1  0
  4  5  1  0
  5  6  1  0
  6  7  1  0
  7  8  1  0
  8  9  2  0
  8 10  1  0
 10 11  1  0
 11 12  1  0
 12 13  2  0
 13 14  1  0
 14 15  2  0
 15 16  1  0
 16 17  1  0
 16 18  2  0
  7 19  1  0
 19 20  1  0
 20  4  1  0
 18 12  1  0
  1 21  1  0
  1 22  1  0
  1 23  1  0
  2 24  1  0
  3 25  1  0
  3 26  1  0
  3 27  1  0
  4 28  1  0
  5 29  1  0
  5 30  1  0
  6 31  1  0
  6 32  1  0
  7 33  1  0
 10 34  1  0
 11 35  1  0
 11 36  1  0
 13 37  1  0
 14 38  1  0
 15 39  1  0
 17 40  1  0
 18 41  1  0
 19 42  1  0
 19 43  1  0
 20 44  1  0
 20 45  1  0
M  CHG  1   3   1
M  END
>  <EmbedRMS>  (241) 
0.24874902131530774

$$$$

     RDKit          3D

 48 49  0  0  0  0  0  0  0  0999 V2000
    5.9267   15.8990    2.7449 C   0  0  0  0  0  0  0  0  0  0  0  0
    5.8851   14.4266    3.0300 C   0  0  0  0  0  0  0  0  0  0  0  0
    5.6253   13.5178    1.9932 C   0  0  0  0  0  0  0  0  0  0  0  0
    5.5850   12.1471    2.2502 C   0  0  0  0  0  0  0  0  0  0  0  0
    5.8013   11.6655    3.5481 C   0  0  0  0  0  0  0  0  0  0  0  0
    5.7763   10.1911    3.8243 C   0  0  0  0  0  0  0  0  0  0  0  0
    7.1368    9.6908    3.9805 N   0  0  0  0  0  0  0  0  0  0  0  0
    8.0090    9.4686    2.8658 C   0  0  0  0  0  0  0  0  0  0  0  0
    7.6069    9.6872    1.6886 O   0  0  0  0  0  0  0  0  0  0  0  0
    9.4146    8.9887    3.1082 C   0  0  0  0  0  0  0  0  0  0  0  0
    9.7985    7.9226    2.0841 C   0  0  0  0  0  0  0  0  0  0  0  0
   11.1581    7.3128    2.3949 C   0  0  0  0  0  0  0  0  0  0  0  0
   12.2751    8.3221    2.7731 C   0  0  0  0  0  0  0  0  0  0  0  0
   13.5806    8.3573    1.9538 C   0  0  0  0  0  0  0  0  0  0  0  0
   13.9839    7.0986    1.1859 C   0  0  0  0  0  0  0  0  0  0  0  0
   14.7109    8.8841    2.7308 N   0  0  0  0  0  4  0  0  0  0  0  0
   11.8314    9.7201    3.3034 C   0  0  0  0  0  0  0  0  0  0  0  0
   10.3958   10.1516    3.0080 C   0  0  0  0  0  0  0  0  0  0  0  0
    6.0768   12.5686    4.5845 C   0  0  0  0  0  0  0  0  0  0  0  0
    6.1155   13.9461    4.3326 C   0  0  0  0  0  0  0  0  0  0  0  0
    6.3814   14.8368    5.3721 O   0  0  0  0  0  0  0  0  0  0  0  0
    6.9463   16.2887    2.9482 H   0  0  0  0  0  0  0  0  0  0  0  0
    5.6704   16.1202    1.6868 H   0  0  0  0  0  0  0  0  0  0  0  0
    5.1990   16.4276    3.3962 H   0  0  0  0  0  0  0  0  0  0  0  0
    5.4528   13.8685    0.9831 H   0  0  0  0  0  0  0  0  0  0  0  0
    5.3825   11.4626    1.4359 H   0  0  0  0  0  0  0  0  0  0  0  0
    5.2077   10.0072    4.7619 H   0  0  0  0  0  0  0  0  0  0  0  0
    5.2558    9.6316    3.0164 H   0  0  0  0  0  0  0  0  0  0  0  0
    7.4810    9.4923    4.9470 H   0  0  0  0  0  0  0  0  0  0  0  0
    9.4748    8.5455    4.1280 H   0  0  0  0  0  0  0  0  0  0  0  0
    9.8279    8.3626    1.0617 H   0  0  0  0  0  0  0  0  0  0  0  0
    9.0354    7.1123    2.0792 H   0  0  0  0  0  0  0  0  0  0  0  0
   11.4414    6.6844    1.5306 H   0  0  0  0  0  0  0  0  0  0  0  0
   11.0043    6.5964    3.2355 H   0  0  0  0  0  0  0  0  0  0  0  0
   12.6568    7.8405    3.7044 H   0  0  0  0  0  0  0  0  0  0  0  0
   13.3809    9.1010    1.1483 H   0  0  0  0  0  0  0  0  0  0  0  0
   13.2934    6.9112    0.3371 H   0  0  0  0  0  0  0  0  0  0  0  0
   13.9861    6.2216    1.8672 H   0  0  0  0  0  0  0  0  0  0  0  0
   15.0007    7.2113    0.7531 H   0  0  0  0  0  0  0  0  0  0  0  0
   14.4915    9.7905    3.1972 H   0  0  0  0  0  0  0  0  0  0  0  0
   14.9937    8.1905    3.4609 H   0  0  0  0  0  0  0  0  0  0  0  0
   15.5288    9.0532    2.1007 H   0  0  0  0  0  0  0  0  0  0  0  0
   12.4756   10.5267    2.8956 H   0  0  0  0  0  0  0  0  0  0  0  0
   11.9667    9.7518    4.4090 H   0  0  0  0  0  0  0  0  0  0  0  0
   10.3526   10.5882    1.9844 H   0  0  0  0  0  0  0  0  0  0  0  0
   10.1032   10.9532    3.7225 H   0  0  0  0  0  0  0  0  0  0  0  0
    6.2589   12.2010    5.5873 H   0  0  0  0  0  0  0  0  0  0  0  0
    6.5504   14.5146    6.3179 H   0  0  0  0  0  0  0  0  0  0  0  0
  1  2  1  0
  2  3  2  0
  3  4  1  0
  4  5  2  0
  5  6  1  0
  6  7  1  0
  7  8  1  0
  8  9  2  0
  8 10  1  0
 10 11  1  0
 11 12  1  0
 12 13  1  0
 13 14  1  0
 14 15  1  0
 14 16  1  0
 13 17  1  0
 17 18  1  0
  5 19  1  0
 19 20  2  0
 20 21  1  0
 20  2  1  0
 18 10  1  0
  1 22  1  0
  1 23  1  0
  1 24  1  0
  3 25  1  0
  4 26  1  0
  6 27  1  0
  6 28  1  0
  7 29  1  0
 10 30  1  0
 11 31  1  0
 11 32  1  0
 12 33  1  0
 12 34  1  0
 13 35  1  0
 14 36  1  0
 15 37  1  0
 15 38  1  0
 15 39  1  0
 16 40  1  0
 16 41  1  0
 16 42  1  0
 17 43  1  0
 17 44  1  0
 18 45  1  0
 18 46  1  0
 19 47  1  0
 21 48  1  0
M  CHG  1  16   1
M  END
>  <EmbedRMS>  (242) 
0.18694491208324657

$$$$
