
     RDKit          3D

  1  0  0  0  0  0  0  0  0  0999 V2000
    2.6750    5.1680   -0.5370 I   0  0  0  0  0  0  0  0  0  0  0  0
M  END
$$$$

     RDKit          3D

  1  0  0  0  0  0  0  0  0  0999 V2000
    2.6750    5.1680    0.4630 I   0  0  0  0  0  0  0  0  0  0  0  0
M  END
$$$$

     RDKit          3D

  1  0  0  0  0  0  0  0  0  0999 V2000
    2.6750    5.1680    1.4630 I   0  0  0  0  0  0  0  0  0  0  0  0
M  END
$$$$

     RDKit          3D

  1  0  0  0  0  0  0  0  0  0999 V2000
    2.6750    5.1680    2.4630 I   0  0  0  0  0  0  0  0  0  0  0  0
M  END
$$$$

     RDKit          3D

  1  0  0  0  0  0  0  0  0  0999 V2000
    2.6750    5.1680    3.4630 I   0  0  0  0  0  0  0  0  0  0  0  0
M  END
$$$$

     RDKit          3D

  1  0  0  0  0  0  0  0  0  0999 V2000
    2.6750    5.1680    4.4630 I   0  0  0  0  0  0  0  0  0  0  0  0
M  END
$$$$

     RDKit          3D

  1  0  0  0  0  0  0  0  0  0999 V2000
    2.6750    5.1680    5.4630 I   0  0  0  0  0  0  0  0  0  0  0  0
M  END
$$$$

     RDKit          3D

  1  0  0  0  0  0  0  0  0  0999 V2000
    2.6750    5.1680    6.4630 I   0  0  0  0  0  0  0  0  0  0  0  0
M  END
$$$$

     RDKit          3D

  1  0  0  0  0  0  0  0  0  0999 V2000
    2.6750    5.1680    7.4630 I   0  0  0  0  0  0  0  0  0  0  0  0
M  END
$$$$

     RDKit          3D

  1  0  0  0  0  0  0  0  0  0999 V2000
    3.6750    5.1680   -0.5370 I   0  0  0  0  0  0  0  0  0  0  0  0
M  END
$$$$

     RDKit          3D

  1  0  0  0  0  0  0  0  0  0999 V2000
    3.6750    5.1680    0.4630 I   0  0  0  0  0  0  0  0  0  0  0  0
M  END
$$$$

     RDKit          3D

  1  0  0  0  0  0  0  0  0  0999 V2000
    3.6750    5.1680    1.4630 I   0  0  0  0  0  0  0  0  0  0  0  0
M  END
$$$$

     RDKit          3D

  1  0  0  0  0  0  0  0  0  0999 V2000
    3.6750    5.1680    2.4630 I   0  0  0  0  0  0  0  0  0  0  0  0
M  END
$$$$

     RDKit          3D

  1  0  0  0  0  0  0  0  0  0999 V2000
    3.6750    5.1680    3.4630 I   0  0  0  0  0  0  0  0  0  0  0  0
M  END
$$$$

     RDKit          3D

  1  0  0  0  0  0  0  0  0  0999 V2000
    3.6750    5.1680    4.4630 I   0  0  0  0  0  0  0  0  0  0  0  0
M  END
$$$$

     RDKit          3D

  1  0  0  0  0  0  0  0  0  0999 V2000
    3.6750    5.1680    5.4630 I   0  0  0  0  0  0  0  0  0  0  0  0
M  END
$$$$

     RDKit          3D

  1  0  0  0  0  0  0  0  0  0999 V2000
    3.6750    5.1680    6.4630 I   0  0  0  0  0  0  0  0  0  0  0  0
M  END
$$$$

     RDKit          3D

  1  0  0  0  0  0  0  0  0  0999 V2000
    3.6750    5.1680    7.4630 I   0  0  0  0  0  0  0  0  0  0  0  0
M  END
$$$$

     RDKit          3D

  1  0  0  0  0  0  0  0  0  0999 V2000
    4.6750    5.1680   -0.5370 I   0  0  0  0  0  0  0  0  0  0  0  0
M  END
$$$$

     RDKit          3D

  1  0  0  0  0  0  0  0  0  0999 V2000
    4.6750    5.1680    0.4630 I   0  0  0  0  0  0  0  0  0  0  0  0
M  END
$$$$

     RDKit          3D

  1  0  0  0  0  0  0  0  0  0999 V2000
    4.6750    5.1680    1.4630 I   0  0  0  0  0  0  0  0  0  0  0  0
M  END
$$$$

     RDKit          3D

  1  0  0  0  0  0  0  0  0  0999 V2000
    4.6750    5.1680    2.4630 I   0  0  0  0  0  0  0  0  0  0  0  0
M  END
$$$$

     RDKit          3D

  1  0  0  0  0  0  0  0  0  0999 V2000
    4.6750    5.1680    3.4630 I   0  0  0  0  0  0  0  0  0  0  0  0
M  END
$$$$

     RDKit          3D

  1  0  0  0  0  0  0  0  0  0999 V2000
    4.6750    5.1680    4.4630 I   0  0  0  0  0  0  0  0  0  0  0  0
M  END
$$$$

     RDKit          3D

  1  0  0  0  0  0  0  0  0  0999 V2000
    4.6750    5.1680    5.4630 I   0  0  0  0  0  0  0  0  0  0  0  0
M  END
$$$$

     RDKit          3D

  1  0  0  0  0  0  0  0  0  0999 V2000
    4.6750    5.1680    6.4630 I   0  0  0  0  0  0  0  0  0  0  0  0
M  END
$$$$

     RDKit          3D

  1  0  0  0  0  0  0  0  0  0999 V2000
    4.6750    5.1680    7.4630 I   0  0  0  0  0  0  0  0  0  0  0  0
M  END
$$$$

     RDKit          3D

  1  0  0  0  0  0  0  0  0  0999 V2000
    5.6750    5.1680   -0.5370 I   0  0  0  0  0  0  0  0  0  0  0  0
M  END
$$$$

     RDKit          3D

  1  0  0  0  0  0  0  0  0  0999 V2000
    5.6750    5.1680    0.4630 I   0  0  0  0  0  0  0  0  0  0  0  0
M  END
$$$$

     RDKit          3D

  1  0  0  0  0  0  0  0  0  0999 V2000
    5.6750    5.1680    1.4630 I   0  0  0  0  0  0  0  0  0  0  0  0
M  END
$$$$

     RDKit          3D

  1  0  0  0  0  0  0  0  0  0999 V2000
    5.6750    5.1680    2.4630 I   0  0  0  0  0  0  0  0  0  0  0  0
M  END
$$$$

     RDKit          3D

  1  0  0  0  0  0  0  0  0  0999 V2000
    5.6750    5.1680    3.4630 I   0  0  0  0  0  0  0  0  0  0  0  0
M  END
$$$$

     RDKit          3D

  1  0  0  0  0  0  0  0  0  0999 V2000
    5.6750    5.1680    4.4630 I   0  0  0  0  0  0  0  0  0  0  0  0
M  END
$$$$

     RDKit          3D

  1  0  0  0  0  0  0  0  0  0999 V2000
    5.6750    5.1680    5.4630 I   0  0  0  0  0  0  0  0  0  0  0  0
M  END
$$$$

     RDKit          3D

  1  0  0  0  0  0  0  0  0  0999 V2000
    5.6750    5.1680    6.4630 I   0  0  0  0  0  0  0  0  0  0  0  0
M  END
$$$$

     RDKit          3D

  1  0  0  0  0  0  0  0  0  0999 V2000
    5.6750    5.1680    7.4630 I   0  0  0  0  0  0  0  0  0  0  0  0
M  END
$$$$

     RDKit          3D

  1  0  0  0  0  0  0  0  0  0999 V2000
    6.6750    5.1680   -0.5370 I   0  0  0  0  0  0  0  0  0  0  0  0
M  END
$$$$

     RDKit          3D

  1  0  0  0  0  0  0  0  0  0999 V2000
    6.6750    5.1680    0.4630 I   0  0  0  0  0  0  0  0  0  0  0  0
M  END
$$$$

     RDKit          3D

  1  0  0  0  0  0  0  0  0  0999 V2000
    6.6750    5.1680    1.4630 I   0  0  0  0  0  0  0  0  0  0  0  0
M  END
$$$$

     RDKit          3D

  1  0  0  0  0  0  0  0  0  0999 V2000
    6.6750    5.1680    2.4630 I   0  0  0  0  0  0  0  0  0  0  0  0
M  END
$$$$

     RDKit          3D

  1  0  0  0  0  0  0  0  0  0999 V2000
    6.6750    5.1680    3.4630 I   0  0  0  0  0  0  0  0  0  0  0  0
M  END
$$$$

     RDKit          3D

  1  0  0  0  0  0  0  0  0  0999 V2000
    6.6750    5.1680    4.4630 I   0  0  0  0  0  0  0  0  0  0  0  0
M  END
$$$$

     RDKit          3D

  1  0  0  0  0  0  0  0  0  0999 V2000
    6.6750    5.1680    5.4630 I   0  0  0  0  0  0  0  0  0  0  0  0
M  END
$$$$

     RDKit          3D

  1  0  0  0  0  0  0  0  0  0999 V2000
    6.6750    5.1680    6.4630 I   0  0  0  0  0  0  0  0  0  0  0  0
M  END
$$$$

     RDKit          3D

  1  0  0  0  0  0  0  0  0  0999 V2000
    6.6750    5.1680    7.4630 I   0  0  0  0  0  0  0  0  0  0  0  0
M  END
$$$$

     RDKit          3D

  1  0  0  0  0  0  0  0  0  0999 V2000
    7.6750    5.1680   -0.5370 I   0  0  0  0  0  0  0  0  0  0  0  0
M  END
$$$$

     RDKit          3D

  1  0  0  0  0  0  0  0  0  0999 V2000
    7.6750    5.1680    0.4630 I   0  0  0  0  0  0  0  0  0  0  0  0
M  END
$$$$

     RDKit          3D

  1  0  0  0  0  0  0  0  0  0999 V2000
    7.6750    5.1680    1.4630 I   0  0  0  0  0  0  0  0  0  0  0  0
M  END
$$$$

     RDKit          3D

  1  0  0  0  0  0  0  0  0  0999 V2000
    7.6750    5.1680    2.4630 I   0  0  0  0  0  0  0  0  0  0  0  0
M  END
$$$$

     RDKit          3D

  1  0  0  0  0  0  0  0  0  0999 V2000
    7.6750    5.1680    3.4630 I   0  0  0  0  0  0  0  0  0  0  0  0
M  END
$$$$

     RDKit          3D

  1  0  0  0  0  0  0  0  0  0999 V2000
    7.6750    5.1680    4.4630 I   0  0  0  0  0  0  0  0  0  0  0  0
M  END
$$$$

     RDKit          3D

  1  0  0  0  0  0  0  0  0  0999 V2000
    7.6750    5.1680    5.4630 I   0  0  0  0  0  0  0  0  0  0  0  0
M  END
$$$$

     RDKit          3D

  1  0  0  0  0  0  0  0  0  0999 V2000
    7.6750    5.1680    6.4630 I   0  0  0  0  0  0  0  0  0  0  0  0
M  END
$$$$

     RDKit          3D

  1  0  0  0  0  0  0  0  0  0999 V2000
    7.6750    5.1680    7.4630 I   0  0  0  0  0  0  0  0  0  0  0  0
M  END
$$$$

     RDKit          3D

  1  0  0  0  0  0  0  0  0  0999 V2000
    8.6750    5.1680   -0.5370 I   0  0  0  0  0  0  0  0  0  0  0  0
M  END
$$$$

     RDKit          3D

  1  0  0  0  0  0  0  0  0  0999 V2000
    8.6750    5.1680    0.4630 I   0  0  0  0  0  0  0  0  0  0  0  0
M  END
$$$$

     RDKit          3D

  1  0  0  0  0  0  0  0  0  0999 V2000
    8.6750    5.1680    1.4630 I   0  0  0  0  0  0  0  0  0  0  0  0
M  END
$$$$

     RDKit          3D

  1  0  0  0  0  0  0  0  0  0999 V2000
    8.6750    5.1680    2.4630 I   0  0  0  0  0  0  0  0  0  0  0  0
M  END
$$$$

     RDKit          3D

  1  0  0  0  0  0  0  0  0  0999 V2000
    8.6750    5.1680    3.4630 I   0  0  0  0  0  0  0  0  0  0  0  0
M  END
$$$$

     RDKit          3D

  1  0  0  0  0  0  0  0  0  0999 V2000
    8.6750    5.1680    4.4630 I   0  0  0  0  0  0  0  0  0  0  0  0
M  END
$$$$

     RDKit          3D

  1  0  0  0  0  0  0  0  0  0999 V2000
    8.6750    5.1680    5.4630 I   0  0  0  0  0  0  0  0  0  0  0  0
M  END
$$$$

     RDKit          3D

  1  0  0  0  0  0  0  0  0  0999 V2000
    8.6750    5.1680    6.4630 I   0  0  0  0  0  0  0  0  0  0  0  0
M  END
$$$$

     RDKit          3D

  1  0  0  0  0  0  0  0  0  0999 V2000
    8.6750    5.1680    7.4630 I   0  0  0  0  0  0  0  0  0  0  0  0
M  END
$$$$

     RDKit          3D

  1  0  0  0  0  0  0  0  0  0999 V2000
    9.6750    5.1680   -0.5370 I   0  0  0  0  0  0  0  0  0  0  0  0
M  END
$$$$

     RDKit          3D

  1  0  0  0  0  0  0  0  0  0999 V2000
    9.6750    5.1680    0.4630 I   0  0  0  0  0  0  0  0  0  0  0  0
M  END
$$$$

     RDKit          3D

  1  0  0  0  0  0  0  0  0  0999 V2000
    9.6750    5.1680    1.4630 I   0  0  0  0  0  0  0  0  0  0  0  0
M  END
$$$$

     RDKit          3D

  1  0  0  0  0  0  0  0  0  0999 V2000
    9.6750    5.1680    2.4630 I   0  0  0  0  0  0  0  0  0  0  0  0
M  END
$$$$

     RDKit          3D

  1  0  0  0  0  0  0  0  0  0999 V2000
    9.6750    5.1680    3.4630 I   0  0  0  0  0  0  0  0  0  0  0  0
M  END
$$$$

     RDKit          3D

  1  0  0  0  0  0  0  0  0  0999 V2000
    9.6750    5.1680    4.4630 I   0  0  0  0  0  0  0  0  0  0  0  0
M  END
$$$$

     RDKit          3D

  1  0  0  0  0  0  0  0  0  0999 V2000
    9.6750    5.1680    5.4630 I   0  0  0  0  0  0  0  0  0  0  0  0
M  END
$$$$

     RDKit          3D

  1  0  0  0  0  0  0  0  0  0999 V2000
    9.6750    5.1680    6.4630 I   0  0  0  0  0  0  0  0  0  0  0  0
M  END
$$$$

     RDKit          3D

  1  0  0  0  0  0  0  0  0  0999 V2000
    9.6750    5.1680    7.4630 I   0  0  0  0  0  0  0  0  0  0  0  0
M  END
$$$$

     RDKit          3D

  1  0  0  0  0  0  0  0  0  0999 V2000
   10.6750    5.1680   -0.5370 I   0  0  0  0  0  0  0  0  0  0  0  0
M  END
$$$$

     RDKit          3D

  1  0  0  0  0  0  0  0  0  0999 V2000
   10.6750    5.1680    0.4630 I   0  0  0  0  0  0  0  0  0  0  0  0
M  END
$$$$

     RDKit          3D

  1  0  0  0  0  0  0  0  0  0999 V2000
   10.6750    5.1680    1.4630 I   0  0  0  0  0  0  0  0  0  0  0  0
M  END
$$$$

     RDKit          3D

  1  0  0  0  0  0  0  0  0  0999 V2000
   10.6750    5.1680    2.4630 I   0  0  0  0  0  0  0  0  0  0  0  0
M  END
$$$$

     RDKit          3D

  1  0  0  0  0  0  0  0  0  0999 V2000
   10.6750    5.1680    3.4630 I   0  0  0  0  0  0  0  0  0  0  0  0
M  END
$$$$

     RDKit          3D

  1  0  0  0  0  0  0  0  0  0999 V2000
   10.6750    5.1680    4.4630 I   0  0  0  0  0  0  0  0  0  0  0  0
M  END
$$$$

     RDKit          3D

  1  0  0  0  0  0  0  0  0  0999 V2000
   10.6750    5.1680    5.4630 I   0  0  0  0  0  0  0  0  0  0  0  0
M  END
$$$$

     RDKit          3D

  1  0  0  0  0  0  0  0  0  0999 V2000
   10.6750    5.1680    6.4630 I   0  0  0  0  0  0  0  0  0  0  0  0
M  END
$$$$

     RDKit          3D

  1  0  0  0  0  0  0  0  0  0999 V2000
   10.6750    5.1680    7.4630 I   0  0  0  0  0  0  0  0  0  0  0  0
M  END
$$$$

     RDKit          3D

  1  0  0  0  0  0  0  0  0  0999 V2000
    2.6750    6.1680   -0.5370 I   0  0  0  0  0  0  0  0  0  0  0  0
M  END
$$$$

     RDKit          3D

  1  0  0  0  0  0  0  0  0  0999 V2000
    2.6750    6.1680    0.4630 I   0  0  0  0  0  0  0  0  0  0  0  0
M  END
$$$$

     RDKit          3D

  1  0  0  0  0  0  0  0  0  0999 V2000
    2.6750    6.1680    1.4630 I   0  0  0  0  0  0  0  0  0  0  0  0
M  END
$$$$

     RDKit          3D

  1  0  0  0  0  0  0  0  0  0999 V2000
    2.6750    6.1680    2.4630 I   0  0  0  0  0  0  0  0  0  0  0  0
M  END
$$$$

     RDKit          3D

  1  0  0  0  0  0  0  0  0  0999 V2000
    2.6750    6.1680    3.4630 I   0  0  0  0  0  0  0  0  0  0  0  0
M  END
$$$$

     RDKit          3D

  1  0  0  0  0  0  0  0  0  0999 V2000
    2.6750    6.1680    4.4630 I   0  0  0  0  0  0  0  0  0  0  0  0
M  END
$$$$

     RDKit          3D

  1  0  0  0  0  0  0  0  0  0999 V2000
    2.6750    6.1680    5.4630 I   0  0  0  0  0  0  0  0  0  0  0  0
M  END
$$$$

     RDKit          3D

  1  0  0  0  0  0  0  0  0  0999 V2000
    2.6750    6.1680    6.4630 I   0  0  0  0  0  0  0  0  0  0  0  0
M  END
$$$$

     RDKit          3D

  1  0  0  0  0  0  0  0  0  0999 V2000
    2.6750    6.1680    7.4630 I   0  0  0  0  0  0  0  0  0  0  0  0
M  END
$$$$

     RDKit          3D

  1  0  0  0  0  0  0  0  0  0999 V2000
    3.6750    6.1680   -0.5370 I   0  0  0  0  0  0  0  0  0  0  0  0
M  END
$$$$

     RDKit          3D

  1  0  0  0  0  0  0  0  0  0999 V2000
    3.6750    6.1680    0.4630 I   0  0  0  0  0  0  0  0  0  0  0  0
M  END
$$$$

     RDKit          3D

  1  0  0  0  0  0  0  0  0  0999 V2000
    3.6750    6.1680    1.4630 I   0  0  0  0  0  0  0  0  0  0  0  0
M  END
$$$$

     RDKit          3D

  1  0  0  0  0  0  0  0  0  0999 V2000
    3.6750    6.1680    2.4630 I   0  0  0  0  0  0  0  0  0  0  0  0
M  END
$$$$

     RDKit          3D

  1  0  0  0  0  0  0  0  0  0999 V2000
    3.6750    6.1680    3.4630 I   0  0  0  0  0  0  0  0  0  0  0  0
M  END
$$$$

     RDKit          3D

  1  0  0  0  0  0  0  0  0  0999 V2000
    3.6750    6.1680    4.4630 I   0  0  0  0  0  0  0  0  0  0  0  0
M  END
$$$$

     RDKit          3D

  1  0  0  0  0  0  0  0  0  0999 V2000
    3.6750    6.1680    5.4630 I   0  0  0  0  0  0  0  0  0  0  0  0
M  END
$$$$

     RDKit          3D

  1  0  0  0  0  0  0  0  0  0999 V2000
    3.6750    6.1680    6.4630 I   0  0  0  0  0  0  0  0  0  0  0  0
M  END
$$$$

     RDKit          3D

  1  0  0  0  0  0  0  0  0  0999 V2000
    3.6750    6.1680    7.4630 I   0  0  0  0  0  0  0  0  0  0  0  0
M  END
$$$$

     RDKit          3D

  1  0  0  0  0  0  0  0  0  0999 V2000
    4.6750    6.1680   -0.5370 I   0  0  0  0  0  0  0  0  0  0  0  0
M  END
$$$$

     RDKit          3D

  1  0  0  0  0  0  0  0  0  0999 V2000
    4.6750    6.1680    0.4630 I   0  0  0  0  0  0  0  0  0  0  0  0
M  END
$$$$

     RDKit          3D

  1  0  0  0  0  0  0  0  0  0999 V2000
    4.6750    6.1680    1.4630 I   0  0  0  0  0  0  0  0  0  0  0  0
M  END
$$$$

     RDKit          3D

  1  0  0  0  0  0  0  0  0  0999 V2000
    4.6750    6.1680    2.4630 I   0  0  0  0  0  0  0  0  0  0  0  0
M  END
$$$$

     RDKit          3D

  1  0  0  0  0  0  0  0  0  0999 V2000
    4.6750    6.1680    3.4630 I   0  0  0  0  0  0  0  0  0  0  0  0
M  END
$$$$

     RDKit          3D

  1  0  0  0  0  0  0  0  0  0999 V2000
    4.6750    6.1680    4.4630 I   0  0  0  0  0  0  0  0  0  0  0  0
M  END
$$$$

     RDKit          3D

  1  0  0  0  0  0  0  0  0  0999 V2000
    4.6750    6.1680    5.4630 I   0  0  0  0  0  0  0  0  0  0  0  0
M  END
$$$$

     RDKit          3D

  1  0  0  0  0  0  0  0  0  0999 V2000
    4.6750    6.1680    6.4630 I   0  0  0  0  0  0  0  0  0  0  0  0
M  END
$$$$

     RDKit          3D

  1  0  0  0  0  0  0  0  0  0999 V2000
    4.6750    6.1680    7.4630 I   0  0  0  0  0  0  0  0  0  0  0  0
M  END
$$$$

     RDKit          3D

  1  0  0  0  0  0  0  0  0  0999 V2000
    5.6750    6.1680   -0.5370 I   0  0  0  0  0  0  0  0  0  0  0  0
M  END
$$$$

     RDKit          3D

  1  0  0  0  0  0  0  0  0  0999 V2000
    5.6750    6.1680    0.4630 I   0  0  0  0  0  0  0  0  0  0  0  0
M  END
$$$$

     RDKit          3D

  1  0  0  0  0  0  0  0  0  0999 V2000
    5.6750    6.1680    1.4630 I   0  0  0  0  0  0  0  0  0  0  0  0
M  END
$$$$

     RDKit          3D

  1  0  0  0  0  0  0  0  0  0999 V2000
    5.6750    6.1680    2.4630 I   0  0  0  0  0  0  0  0  0  0  0  0
M  END
$$$$

     RDKit          3D

  1  0  0  0  0  0  0  0  0  0999 V2000
    5.6750    6.1680    3.4630 I   0  0  0  0  0  0  0  0  0  0  0  0
M  END
$$$$

     RDKit          3D

  1  0  0  0  0  0  0  0  0  0999 V2000
    5.6750    6.1680    4.4630 I   0  0  0  0  0  0  0  0  0  0  0  0
M  END
$$$$

     RDKit          3D

  1  0  0  0  0  0  0  0  0  0999 V2000
    5.6750    6.1680    5.4630 I   0  0  0  0  0  0  0  0  0  0  0  0
M  END
$$$$

     RDKit          3D

  1  0  0  0  0  0  0  0  0  0999 V2000
    5.6750    6.1680    6.4630 I   0  0  0  0  0  0  0  0  0  0  0  0
M  END
$$$$

     RDKit          3D

  1  0  0  0  0  0  0  0  0  0999 V2000
    5.6750    6.1680    7.4630 I   0  0  0  0  0  0  0  0  0  0  0  0
M  END
$$$$

     RDKit          3D

  1  0  0  0  0  0  0  0  0  0999 V2000
    6.6750    6.1680   -0.5370 I   0  0  0  0  0  0  0  0  0  0  0  0
M  END
$$$$

     RDKit          3D

  1  0  0  0  0  0  0  0  0  0999 V2000
    6.6750    6.1680    0.4630 I   0  0  0  0  0  0  0  0  0  0  0  0
M  END
$$$$

     RDKit          3D

  1  0  0  0  0  0  0  0  0  0999 V2000
    6.6750    6.1680    1.4630 I   0  0  0  0  0  0  0  0  0  0  0  0
M  END
$$$$

     RDKit          3D

  1  0  0  0  0  0  0  0  0  0999 V2000
    6.6750    6.1680    2.4630 I   0  0  0  0  0  0  0  0  0  0  0  0
M  END
$$$$

     RDKit          3D

  1  0  0  0  0  0  0  0  0  0999 V2000
    6.6750    6.1680    3.4630 I   0  0  0  0  0  0  0  0  0  0  0  0
M  END
$$$$

     RDKit          3D

  1  0  0  0  0  0  0  0  0  0999 V2000
    6.6750    6.1680    4.4630 I   0  0  0  0  0  0  0  0  0  0  0  0
M  END
$$$$

     RDKit          3D

  1  0  0  0  0  0  0  0  0  0999 V2000
    6.6750    6.1680    5.4630 I   0  0  0  0  0  0  0  0  0  0  0  0
M  END
$$$$

     RDKit          3D

  1  0  0  0  0  0  0  0  0  0999 V2000
    6.6750    6.1680    6.4630 I   0  0  0  0  0  0  0  0  0  0  0  0
M  END
$$$$

     RDKit          3D

  1  0  0  0  0  0  0  0  0  0999 V2000
    6.6750    6.1680    7.4630 I   0  0  0  0  0  0  0  0  0  0  0  0
M  END
$$$$

     RDKit          3D

  1  0  0  0  0  0  0  0  0  0999 V2000
    7.6750    6.1680   -0.5370 I   0  0  0  0  0  0  0  0  0  0  0  0
M  END
$$$$

     RDKit          3D

  1  0  0  0  0  0  0  0  0  0999 V2000
    7.6750    6.1680    0.4630 I   0  0  0  0  0  0  0  0  0  0  0  0
M  END
$$$$

     RDKit          3D

  1  0  0  0  0  0  0  0  0  0999 V2000
    7.6750    6.1680    1.4630 I   0  0  0  0  0  0  0  0  0  0  0  0
M  END
$$$$

     RDKit          3D

  1  0  0  0  0  0  0  0  0  0999 V2000
    7.6750    6.1680    2.4630 I   0  0  0  0  0  0  0  0  0  0  0  0
M  END
$$$$

     RDKit          3D

  1  0  0  0  0  0  0  0  0  0999 V2000
    7.6750    6.1680    3.4630 I   0  0  0  0  0  0  0  0  0  0  0  0
M  END
$$$$

     RDKit          3D

  1  0  0  0  0  0  0  0  0  0999 V2000
    7.6750    6.1680    4.4630 I   0  0  0  0  0  0  0  0  0  0  0  0
M  END
$$$$

     RDKit          3D

  1  0  0  0  0  0  0  0  0  0999 V2000
    7.6750    6.1680    5.4630 I   0  0  0  0  0  0  0  0  0  0  0  0
M  END
$$$$

     RDKit          3D

  1  0  0  0  0  0  0  0  0  0999 V2000
    7.6750    6.1680    6.4630 I   0  0  0  0  0  0  0  0  0  0  0  0
M  END
$$$$

     RDKit          3D

  1  0  0  0  0  0  0  0  0  0999 V2000
    7.6750    6.1680    7.4630 I   0  0  0  0  0  0  0  0  0  0  0  0
M  END
$$$$

     RDKit          3D

  1  0  0  0  0  0  0  0  0  0999 V2000
    8.6750    6.1680   -0.5370 I   0  0  0  0  0  0  0  0  0  0  0  0
M  END
$$$$

     RDKit          3D

  1  0  0  0  0  0  0  0  0  0999 V2000
    8.6750    6.1680    0.4630 I   0  0  0  0  0  0  0  0  0  0  0  0
M  END
$$$$

     RDKit          3D

  1  0  0  0  0  0  0  0  0  0999 V2000
    8.6750    6.1680    1.4630 I   0  0  0  0  0  0  0  0  0  0  0  0
M  END
$$$$

     RDKit          3D

  1  0  0  0  0  0  0  0  0  0999 V2000
    8.6750    6.1680    2.4630 I   0  0  0  0  0  0  0  0  0  0  0  0
M  END
$$$$

     RDKit          3D

  1  0  0  0  0  0  0  0  0  0999 V2000
    8.6750    6.1680    3.4630 I   0  0  0  0  0  0  0  0  0  0  0  0
M  END
$$$$

     RDKit          3D

  1  0  0  0  0  0  0  0  0  0999 V2000
    8.6750    6.1680    4.4630 I   0  0  0  0  0  0  0  0  0  0  0  0
M  END
$$$$

     RDKit          3D

  1  0  0  0  0  0  0  0  0  0999 V2000
    8.6750    6.1680    5.4630 I   0  0  0  0  0  0  0  0  0  0  0  0
M  END
$$$$

     RDKit          3D

  1  0  0  0  0  0  0  0  0  0999 V2000
    8.6750    6.1680    6.4630 I   0  0  0  0  0  0  0  0  0  0  0  0
M  END
$$$$

     RDKit          3D

  1  0  0  0  0  0  0  0  0  0999 V2000
    8.6750    6.1680    7.4630 I   0  0  0  0  0  0  0  0  0  0  0  0
M  END
$$$$

     RDKit          3D

  1  0  0  0  0  0  0  0  0  0999 V2000
    9.6750    6.1680   -0.5370 I   0  0  0  0  0  0  0  0  0  0  0  0
M  END
$$$$

     RDKit          3D

  1  0  0  0  0  0  0  0  0  0999 V2000
    9.6750    6.1680    0.4630 I   0  0  0  0  0  0  0  0  0  0  0  0
M  END
$$$$

     RDKit          3D

  1  0  0  0  0  0  0  0  0  0999 V2000
    9.6750    6.1680    1.4630 I   0  0  0  0  0  0  0  0  0  0  0  0
M  END
$$$$

     RDKit          3D

  1  0  0  0  0  0  0  0  0  0999 V2000
    9.6750    6.1680    2.4630 I   0  0  0  0  0  0  0  0  0  0  0  0
M  END
$$$$

     RDKit          3D

  1  0  0  0  0  0  0  0  0  0999 V2000
    9.6750    6.1680    3.4630 I   0  0  0  0  0  0  0  0  0  0  0  0
M  END
$$$$

     RDKit          3D

  1  0  0  0  0  0  0  0  0  0999 V2000
    9.6750    6.1680    4.4630 I   0  0  0  0  0  0  0  0  0  0  0  0
M  END
$$$$

     RDKit          3D

  1  0  0  0  0  0  0  0  0  0999 V2000
    9.6750    6.1680    5.4630 I   0  0  0  0  0  0  0  0  0  0  0  0
M  END
$$$$

     RDKit          3D

  1  0  0  0  0  0  0  0  0  0999 V2000
    9.6750    6.1680    6.4630 I   0  0  0  0  0  0  0  0  0  0  0  0
M  END
$$$$

     RDKit          3D

  1  0  0  0  0  0  0  0  0  0999 V2000
    9.6750    6.1680    7.4630 I   0  0  0  0  0  0  0  0  0  0  0  0
M  END
$$$$

     RDKit          3D

  1  0  0  0  0  0  0  0  0  0999 V2000
   10.6750    6.1680   -0.5370 I   0  0  0  0  0  0  0  0  0  0  0  0
M  END
$$$$

     RDKit          3D

  1  0  0  0  0  0  0  0  0  0999 V2000
   10.6750    6.1680    0.4630 I   0  0  0  0  0  0  0  0  0  0  0  0
M  END
$$$$

     RDKit          3D

  1  0  0  0  0  0  0  0  0  0999 V2000
   10.6750    6.1680    1.4630 I   0  0  0  0  0  0  0  0  0  0  0  0
M  END
$$$$

     RDKit          3D

  1  0  0  0  0  0  0  0  0  0999 V2000
   10.6750    6.1680    2.4630 I   0  0  0  0  0  0  0  0  0  0  0  0
M  END
$$$$

     RDKit          3D

  1  0  0  0  0  0  0  0  0  0999 V2000
   10.6750    6.1680    3.4630 I   0  0  0  0  0  0  0  0  0  0  0  0
M  END
$$$$

     RDKit          3D

  1  0  0  0  0  0  0  0  0  0999 V2000
   10.6750    6.1680    4.4630 I   0  0  0  0  0  0  0  0  0  0  0  0
M  END
$$$$

     RDKit          3D

  1  0  0  0  0  0  0  0  0  0999 V2000
   10.6750    6.1680    5.4630 I   0  0  0  0  0  0  0  0  0  0  0  0
M  END
$$$$

     RDKit          3D

  1  0  0  0  0  0  0  0  0  0999 V2000
   10.6750    6.1680    6.4630 I   0  0  0  0  0  0  0  0  0  0  0  0
M  END
$$$$

     RDKit          3D

  1  0  0  0  0  0  0  0  0  0999 V2000
   10.6750    6.1680    7.4630 I   0  0  0  0  0  0  0  0  0  0  0  0
M  END
$$$$

     RDKit          3D

  1  0  0  0  0  0  0  0  0  0999 V2000
    2.6750    7.1680   -0.5370 I   0  0  0  0  0  0  0  0  0  0  0  0
M  END
$$$$

     RDKit          3D

  1  0  0  0  0  0  0  0  0  0999 V2000
    2.6750    7.1680    0.4630 I   0  0  0  0  0  0  0  0  0  0  0  0
M  END
$$$$

     RDKit          3D

  1  0  0  0  0  0  0  0  0  0999 V2000
    2.6750    7.1680    1.4630 I   0  0  0  0  0  0  0  0  0  0  0  0
M  END
$$$$

     RDKit          3D

  1  0  0  0  0  0  0  0  0  0999 V2000
    2.6750    7.1680    2.4630 I   0  0  0  0  0  0  0  0  0  0  0  0
M  END
$$$$

     RDKit          3D

  1  0  0  0  0  0  0  0  0  0999 V2000
    2.6750    7.1680    3.4630 I   0  0  0  0  0  0  0  0  0  0  0  0
M  END
$$$$

     RDKit          3D

  1  0  0  0  0  0  0  0  0  0999 V2000
    2.6750    7.1680    4.4630 I   0  0  0  0  0  0  0  0  0  0  0  0
M  END
$$$$

     RDKit          3D

  1  0  0  0  0  0  0  0  0  0999 V2000
    2.6750    7.1680    5.4630 I   0  0  0  0  0  0  0  0  0  0  0  0
M  END
$$$$

     RDKit          3D

  1  0  0  0  0  0  0  0  0  0999 V2000
    2.6750    7.1680    6.4630 I   0  0  0  0  0  0  0  0  0  0  0  0
M  END
$$$$

     RDKit          3D

  1  0  0  0  0  0  0  0  0  0999 V2000
    2.6750    7.1680    7.4630 I   0  0  0  0  0  0  0  0  0  0  0  0
M  END
$$$$

     RDKit          3D

  1  0  0  0  0  0  0  0  0  0999 V2000
    3.6750    7.1680   -0.5370 I   0  0  0  0  0  0  0  0  0  0  0  0
M  END
$$$$

     RDKit          3D

  1  0  0  0  0  0  0  0  0  0999 V2000
    3.6750    7.1680    0.4630 I   0  0  0  0  0  0  0  0  0  0  0  0
M  END
$$$$

     RDKit          3D

  1  0  0  0  0  0  0  0  0  0999 V2000
    3.6750    7.1680    1.4630 I   0  0  0  0  0  0  0  0  0  0  0  0
M  END
$$$$

     RDKit          3D

  1  0  0  0  0  0  0  0  0  0999 V2000
    3.6750    7.1680    2.4630 I   0  0  0  0  0  0  0  0  0  0  0  0
M  END
$$$$

     RDKit          3D

  1  0  0  0  0  0  0  0  0  0999 V2000
    3.6750    7.1680    3.4630 I   0  0  0  0  0  0  0  0  0  0  0  0
M  END
$$$$

     RDKit          3D

  1  0  0  0  0  0  0  0  0  0999 V2000
    3.6750    7.1680    4.4630 I   0  0  0  0  0  0  0  0  0  0  0  0
M  END
$$$$

     RDKit          3D

  1  0  0  0  0  0  0  0  0  0999 V2000
    3.6750    7.1680    5.4630 I   0  0  0  0  0  0  0  0  0  0  0  0
M  END
$$$$

     RDKit          3D

  1  0  0  0  0  0  0  0  0  0999 V2000
    3.6750    7.1680    6.4630 I   0  0  0  0  0  0  0  0  0  0  0  0
M  END
$$$$

     RDKit          3D

  1  0  0  0  0  0  0  0  0  0999 V2000
    3.6750    7.1680    7.4630 I   0  0  0  0  0  0  0  0  0  0  0  0
M  END
$$$$

     RDKit          3D

  1  0  0  0  0  0  0  0  0  0999 V2000
    4.6750    7.1680   -0.5370 I   0  0  0  0  0  0  0  0  0  0  0  0
M  END
$$$$

     RDKit          3D

  1  0  0  0  0  0  0  0  0  0999 V2000
    4.6750    7.1680    0.4630 I   0  0  0  0  0  0  0  0  0  0  0  0
M  END
$$$$

     RDKit          3D

  1  0  0  0  0  0  0  0  0  0999 V2000
    4.6750    7.1680    1.4630 I   0  0  0  0  0  0  0  0  0  0  0  0
M  END
$$$$

     RDKit          3D

  1  0  0  0  0  0  0  0  0  0999 V2000
    4.6750    7.1680    2.4630 I   0  0  0  0  0  0  0  0  0  0  0  0
M  END
$$$$

     RDKit          3D

  1  0  0  0  0  0  0  0  0  0999 V2000
    4.6750    7.1680    3.4630 I   0  0  0  0  0  0  0  0  0  0  0  0
M  END
$$$$

     RDKit          3D

  1  0  0  0  0  0  0  0  0  0999 V2000
    4.6750    7.1680    4.4630 I   0  0  0  0  0  0  0  0  0  0  0  0
M  END
$$$$

     RDKit          3D

  1  0  0  0  0  0  0  0  0  0999 V2000
    4.6750    7.1680    5.4630 I   0  0  0  0  0  0  0  0  0  0  0  0
M  END
$$$$

     RDKit          3D

  1  0  0  0  0  0  0  0  0  0999 V2000
    4.6750    7.1680    6.4630 I   0  0  0  0  0  0  0  0  0  0  0  0
M  END
$$$$

     RDKit          3D

  1  0  0  0  0  0  0  0  0  0999 V2000
    4.6750    7.1680    7.4630 I   0  0  0  0  0  0  0  0  0  0  0  0
M  END
$$$$

     RDKit          3D

  1  0  0  0  0  0  0  0  0  0999 V2000
    5.6750    7.1680   -0.5370 I   0  0  0  0  0  0  0  0  0  0  0  0
M  END
$$$$

     RDKit          3D

  1  0  0  0  0  0  0  0  0  0999 V2000
    5.6750    7.1680    0.4630 I   0  0  0  0  0  0  0  0  0  0  0  0
M  END
$$$$

     RDKit          3D

  1  0  0  0  0  0  0  0  0  0999 V2000
    5.6750    7.1680    1.4630 I   0  0  0  0  0  0  0  0  0  0  0  0
M  END
$$$$

     RDKit          3D

  1  0  0  0  0  0  0  0  0  0999 V2000
    5.6750    7.1680    2.4630 I   0  0  0  0  0  0  0  0  0  0  0  0
M  END
$$$$

     RDKit          3D

  1  0  0  0  0  0  0  0  0  0999 V2000
    5.6750    7.1680    3.4630 I   0  0  0  0  0  0  0  0  0  0  0  0
M  END
$$$$

     RDKit          3D

  1  0  0  0  0  0  0  0  0  0999 V2000
    5.6750    7.1680    4.4630 I   0  0  0  0  0  0  0  0  0  0  0  0
M  END
$$$$

     RDKit          3D

  1  0  0  0  0  0  0  0  0  0999 V2000
    5.6750    7.1680    5.4630 I   0  0  0  0  0  0  0  0  0  0  0  0
M  END
$$$$

     RDKit          3D

  1  0  0  0  0  0  0  0  0  0999 V2000
    5.6750    7.1680    6.4630 I   0  0  0  0  0  0  0  0  0  0  0  0
M  END
$$$$

     RDKit          3D

  1  0  0  0  0  0  0  0  0  0999 V2000
    5.6750    7.1680    7.4630 I   0  0  0  0  0  0  0  0  0  0  0  0
M  END
$$$$

     RDKit          3D

  1  0  0  0  0  0  0  0  0  0999 V2000
    6.6750    7.1680   -0.5370 I   0  0  0  0  0  0  0  0  0  0  0  0
M  END
$$$$

     RDKit          3D

  1  0  0  0  0  0  0  0  0  0999 V2000
    6.6750    7.1680    0.4630 I   0  0  0  0  0  0  0  0  0  0  0  0
M  END
$$$$

     RDKit          3D

  1  0  0  0  0  0  0  0  0  0999 V2000
    6.6750    7.1680    1.4630 I   0  0  0  0  0  0  0  0  0  0  0  0
M  END
$$$$

     RDKit          3D

  1  0  0  0  0  0  0  0  0  0999 V2000
    6.6750    7.1680    2.4630 I   0  0  0  0  0  0  0  0  0  0  0  0
M  END
$$$$

     RDKit          3D

  1  0  0  0  0  0  0  0  0  0999 V2000
    6.6750    7.1680    3.4630 I   0  0  0  0  0  0  0  0  0  0  0  0
M  END
$$$$

     RDKit          3D

  1  0  0  0  0  0  0  0  0  0999 V2000
    6.6750    7.1680    4.4630 I   0  0  0  0  0  0  0  0  0  0  0  0
M  END
$$$$

     RDKit          3D

  1  0  0  0  0  0  0  0  0  0999 V2000
    6.6750    7.1680    5.4630 I   0  0  0  0  0  0  0  0  0  0  0  0
M  END
$$$$

     RDKit          3D

  1  0  0  0  0  0  0  0  0  0999 V2000
    6.6750    7.1680    6.4630 I   0  0  0  0  0  0  0  0  0  0  0  0
M  END
$$$$

     RDKit          3D

  1  0  0  0  0  0  0  0  0  0999 V2000
    6.6750    7.1680    7.4630 I   0  0  0  0  0  0  0  0  0  0  0  0
M  END
$$$$

     RDKit          3D

  1  0  0  0  0  0  0  0  0  0999 V2000
    7.6750    7.1680   -0.5370 I   0  0  0  0  0  0  0  0  0  0  0  0
M  END
$$$$

     RDKit          3D

  1  0  0  0  0  0  0  0  0  0999 V2000
    7.6750    7.1680    0.4630 I   0  0  0  0  0  0  0  0  0  0  0  0
M  END
$$$$

     RDKit          3D

  1  0  0  0  0  0  0  0  0  0999 V2000
    7.6750    7.1680    1.4630 I   0  0  0  0  0  0  0  0  0  0  0  0
M  END
$$$$

     RDKit          3D

  1  0  0  0  0  0  0  0  0  0999 V2000
    7.6750    7.1680    2.4630 I   0  0  0  0  0  0  0  0  0  0  0  0
M  END
$$$$

     RDKit          3D

  1  0  0  0  0  0  0  0  0  0999 V2000
    7.6750    7.1680    3.4630 I   0  0  0  0  0  0  0  0  0  0  0  0
M  END
$$$$

     RDKit          3D

  1  0  0  0  0  0  0  0  0  0999 V2000
    7.6750    7.1680    4.4630 I   0  0  0  0  0  0  0  0  0  0  0  0
M  END
$$$$

     RDKit          3D

  1  0  0  0  0  0  0  0  0  0999 V2000
    7.6750    7.1680    5.4630 I   0  0  0  0  0  0  0  0  0  0  0  0
M  END
$$$$

     RDKit          3D

  1  0  0  0  0  0  0  0  0  0999 V2000
    7.6750    7.1680    6.4630 I   0  0  0  0  0  0  0  0  0  0  0  0
M  END
$$$$

     RDKit          3D

  1  0  0  0  0  0  0  0  0  0999 V2000
    7.6750    7.1680    7.4630 I   0  0  0  0  0  0  0  0  0  0  0  0
M  END
$$$$

     RDKit          3D

  1  0  0  0  0  0  0  0  0  0999 V2000
    8.6750    7.1680   -0.5370 I   0  0  0  0  0  0  0  0  0  0  0  0
M  END
$$$$

     RDKit          3D

  1  0  0  0  0  0  0  0  0  0999 V2000
    8.6750    7.1680    0.4630 I   0  0  0  0  0  0  0  0  0  0  0  0
M  END
$$$$

     RDKit          3D

  1  0  0  0  0  0  0  0  0  0999 V2000
    8.6750    7.1680    1.4630 I   0  0  0  0  0  0  0  0  0  0  0  0
M  END
$$$$

     RDKit          3D

  1  0  0  0  0  0  0  0  0  0999 V2000
    8.6750    7.1680    2.4630 I   0  0  0  0  0  0  0  0  0  0  0  0
M  END
$$$$

     RDKit          3D

  1  0  0  0  0  0  0  0  0  0999 V2000
    8.6750    7.1680    3.4630 I   0  0  0  0  0  0  0  0  0  0  0  0
M  END
$$$$

     RDKit          3D

  1  0  0  0  0  0  0  0  0  0999 V2000
    8.6750    7.1680    4.4630 I   0  0  0  0  0  0  0  0  0  0  0  0
M  END
$$$$

     RDKit          3D

  1  0  0  0  0  0  0  0  0  0999 V2000
    8.6750    7.1680    5.4630 I   0  0  0  0  0  0  0  0  0  0  0  0
M  END
$$$$

     RDKit          3D

  1  0  0  0  0  0  0  0  0  0999 V2000
    8.6750    7.1680    6.4630 I   0  0  0  0  0  0  0  0  0  0  0  0
M  END
$$$$

     RDKit          3D

  1  0  0  0  0  0  0  0  0  0999 V2000
    8.6750    7.1680    7.4630 I   0  0  0  0  0  0  0  0  0  0  0  0
M  END
$$$$

     RDKit          3D

  1  0  0  0  0  0  0  0  0  0999 V2000
    9.6750    7.1680   -0.5370 I   0  0  0  0  0  0  0  0  0  0  0  0
M  END
$$$$

     RDKit          3D

  1  0  0  0  0  0  0  0  0  0999 V2000
    9.6750    7.1680    0.4630 I   0  0  0  0  0  0  0  0  0  0  0  0
M  END
$$$$

     RDKit          3D

  1  0  0  0  0  0  0  0  0  0999 V2000
    9.6750    7.1680    1.4630 I   0  0  0  0  0  0  0  0  0  0  0  0
M  END
$$$$

     RDKit          3D

  1  0  0  0  0  0  0  0  0  0999 V2000
    9.6750    7.1680    2.4630 I   0  0  0  0  0  0  0  0  0  0  0  0
M  END
$$$$

     RDKit          3D

  1  0  0  0  0  0  0  0  0  0999 V2000
    9.6750    7.1680    3.4630 I   0  0  0  0  0  0  0  0  0  0  0  0
M  END
$$$$

     RDKit          3D

  1  0  0  0  0  0  0  0  0  0999 V2000
    9.6750    7.1680    4.4630 I   0  0  0  0  0  0  0  0  0  0  0  0
M  END
$$$$

     RDKit          3D

  1  0  0  0  0  0  0  0  0  0999 V2000
    9.6750    7.1680    5.4630 I   0  0  0  0  0  0  0  0  0  0  0  0
M  END
$$$$

     RDKit          3D

  1  0  0  0  0  0  0  0  0  0999 V2000
    9.6750    7.1680    6.4630 I   0  0  0  0  0  0  0  0  0  0  0  0
M  END
$$$$

     RDKit          3D

  1  0  0  0  0  0  0  0  0  0999 V2000
    9.6750    7.1680    7.4630 I   0  0  0  0  0  0  0  0  0  0  0  0
M  END
$$$$

     RDKit          3D

  1  0  0  0  0  0  0  0  0  0999 V2000
   10.6750    7.1680   -0.5370 I   0  0  0  0  0  0  0  0  0  0  0  0
M  END
$$$$

     RDKit          3D

  1  0  0  0  0  0  0  0  0  0999 V2000
   10.6750    7.1680    0.4630 I   0  0  0  0  0  0  0  0  0  0  0  0
M  END
$$$$

     RDKit          3D

  1  0  0  0  0  0  0  0  0  0999 V2000
   10.6750    7.1680    1.4630 I   0  0  0  0  0  0  0  0  0  0  0  0
M  END
$$$$

     RDKit          3D

  1  0  0  0  0  0  0  0  0  0999 V2000
   10.6750    7.1680    2.4630 I   0  0  0  0  0  0  0  0  0  0  0  0
M  END
$$$$

     RDKit          3D

  1  0  0  0  0  0  0  0  0  0999 V2000
   10.6750    7.1680    3.4630 I   0  0  0  0  0  0  0  0  0  0  0  0
M  END
$$$$

     RDKit          3D

  1  0  0  0  0  0  0  0  0  0999 V2000
   10.6750    7.1680    4.4630 I   0  0  0  0  0  0  0  0  0  0  0  0
M  END
$$$$

     RDKit          3D

  1  0  0  0  0  0  0  0  0  0999 V2000
   10.6750    7.1680    5.4630 I   0  0  0  0  0  0  0  0  0  0  0  0
M  END
$$$$

     RDKit          3D

  1  0  0  0  0  0  0  0  0  0999 V2000
   10.6750    7.1680    6.4630 I   0  0  0  0  0  0  0  0  0  0  0  0
M  END
$$$$

     RDKit          3D

  1  0  0  0  0  0  0  0  0  0999 V2000
   10.6750    7.1680    7.4630 I   0  0  0  0  0  0  0  0  0  0  0  0
M  END
$$$$

     RDKit          3D

  1  0  0  0  0  0  0  0  0  0999 V2000
    2.6750    8.1680   -0.5370 I   0  0  0  0  0  0  0  0  0  0  0  0
M  END
$$$$

     RDKit          3D

  1  0  0  0  0  0  0  0  0  0999 V2000
    2.6750    8.1680    0.4630 I   0  0  0  0  0  0  0  0  0  0  0  0
M  END
$$$$

     RDKit          3D

  1  0  0  0  0  0  0  0  0  0999 V2000
    2.6750    8.1680    1.4630 I   0  0  0  0  0  0  0  0  0  0  0  0
M  END
$$$$

     RDKit          3D

  1  0  0  0  0  0  0  0  0  0999 V2000
    2.6750    8.1680    2.4630 I   0  0  0  0  0  0  0  0  0  0  0  0
M  END
$$$$

     RDKit          3D

  1  0  0  0  0  0  0  0  0  0999 V2000
    2.6750    8.1680    3.4630 I   0  0  0  0  0  0  0  0  0  0  0  0
M  END
$$$$

     RDKit          3D

  1  0  0  0  0  0  0  0  0  0999 V2000
    2.6750    8.1680    4.4630 I   0  0  0  0  0  0  0  0  0  0  0  0
M  END
$$$$

     RDKit          3D

  1  0  0  0  0  0  0  0  0  0999 V2000
    2.6750    8.1680    5.4630 I   0  0  0  0  0  0  0  0  0  0  0  0
M  END
$$$$

     RDKit          3D

  1  0  0  0  0  0  0  0  0  0999 V2000
    2.6750    8.1680    6.4630 I   0  0  0  0  0  0  0  0  0  0  0  0
M  END
$$$$

     RDKit          3D

  1  0  0  0  0  0  0  0  0  0999 V2000
    2.6750    8.1680    7.4630 I   0  0  0  0  0  0  0  0  0  0  0  0
M  END
$$$$

     RDKit          3D

  1  0  0  0  0  0  0  0  0  0999 V2000
    3.6750    8.1680   -0.5370 I   0  0  0  0  0  0  0  0  0  0  0  0
M  END
$$$$

     RDKit          3D

  1  0  0  0  0  0  0  0  0  0999 V2000
    3.6750    8.1680    0.4630 I   0  0  0  0  0  0  0  0  0  0  0  0
M  END
$$$$

     RDKit          3D

  1  0  0  0  0  0  0  0  0  0999 V2000
    3.6750    8.1680    1.4630 I   0  0  0  0  0  0  0  0  0  0  0  0
M  END
$$$$

     RDKit          3D

  1  0  0  0  0  0  0  0  0  0999 V2000
    3.6750    8.1680    2.4630 I   0  0  0  0  0  0  0  0  0  0  0  0
M  END
$$$$

     RDKit          3D

  1  0  0  0  0  0  0  0  0  0999 V2000
    3.6750    8.1680    3.4630 I   0  0  0  0  0  0  0  0  0  0  0  0
M  END
$$$$

     RDKit          3D

  1  0  0  0  0  0  0  0  0  0999 V2000
    3.6750    8.1680    4.4630 I   0  0  0  0  0  0  0  0  0  0  0  0
M  END
$$$$

     RDKit          3D

  1  0  0  0  0  0  0  0  0  0999 V2000
    3.6750    8.1680    5.4630 I   0  0  0  0  0  0  0  0  0  0  0  0
M  END
$$$$

     RDKit          3D

  1  0  0  0  0  0  0  0  0  0999 V2000
    3.6750    8.1680    6.4630 I   0  0  0  0  0  0  0  0  0  0  0  0
M  END
$$$$

     RDKit          3D

  1  0  0  0  0  0  0  0  0  0999 V2000
    3.6750    8.1680    7.4630 I   0  0  0  0  0  0  0  0  0  0  0  0
M  END
$$$$

     RDKit          3D

  1  0  0  0  0  0  0  0  0  0999 V2000
    4.6750    8.1680   -0.5370 I   0  0  0  0  0  0  0  0  0  0  0  0
M  END
$$$$

     RDKit          3D

  1  0  0  0  0  0  0  0  0  0999 V2000
    4.6750    8.1680    0.4630 I   0  0  0  0  0  0  0  0  0  0  0  0
M  END
$$$$

     RDKit          3D

  1  0  0  0  0  0  0  0  0  0999 V2000
    4.6750    8.1680    1.4630 I   0  0  0  0  0  0  0  0  0  0  0  0
M  END
$$$$

     RDKit          3D

  1  0  0  0  0  0  0  0  0  0999 V2000
    4.6750    8.1680    2.4630 I   0  0  0  0  0  0  0  0  0  0  0  0
M  END
$$$$

     RDKit          3D

  1  0  0  0  0  0  0  0  0  0999 V2000
    4.6750    8.1680    3.4630 I   0  0  0  0  0  0  0  0  0  0  0  0
M  END
$$$$

     RDKit          3D

  1  0  0  0  0  0  0  0  0  0999 V2000
    4.6750    8.1680    4.4630 I   0  0  0  0  0  0  0  0  0  0  0  0
M  END
$$$$

     RDKit          3D

  1  0  0  0  0  0  0  0  0  0999 V2000
    4.6750    8.1680    5.4630 I   0  0  0  0  0  0  0  0  0  0  0  0
M  END
$$$$

     RDKit          3D

  1  0  0  0  0  0  0  0  0  0999 V2000
    4.6750    8.1680    6.4630 I   0  0  0  0  0  0  0  0  0  0  0  0
M  END
$$$$

     RDKit          3D

  1  0  0  0  0  0  0  0  0  0999 V2000
    4.6750    8.1680    7.4630 I   0  0  0  0  0  0  0  0  0  0  0  0
M  END
$$$$

     RDKit          3D

  1  0  0  0  0  0  0  0  0  0999 V2000
    5.6750    8.1680   -0.5370 I   0  0  0  0  0  0  0  0  0  0  0  0
M  END
$$$$

     RDKit          3D

  1  0  0  0  0  0  0  0  0  0999 V2000
    5.6750    8.1680    0.4630 I   0  0  0  0  0  0  0  0  0  0  0  0
M  END
$$$$

     RDKit          3D

  1  0  0  0  0  0  0  0  0  0999 V2000
    5.6750    8.1680    1.4630 I   0  0  0  0  0  0  0  0  0  0  0  0
M  END
$$$$

     RDKit          3D

  1  0  0  0  0  0  0  0  0  0999 V2000
    5.6750    8.1680    2.4630 I   0  0  0  0  0  0  0  0  0  0  0  0
M  END
$$$$

     RDKit          3D

  1  0  0  0  0  0  0  0  0  0999 V2000
    5.6750    8.1680    3.4630 I   0  0  0  0  0  0  0  0  0  0  0  0
M  END
$$$$

     RDKit          3D

  1  0  0  0  0  0  0  0  0  0999 V2000
    5.6750    8.1680    4.4630 I   0  0  0  0  0  0  0  0  0  0  0  0
M  END
$$$$

     RDKit          3D

  1  0  0  0  0  0  0  0  0  0999 V2000
    5.6750    8.1680    5.4630 I   0  0  0  0  0  0  0  0  0  0  0  0
M  END
$$$$

     RDKit          3D

  1  0  0  0  0  0  0  0  0  0999 V2000
    5.6750    8.1680    6.4630 I   0  0  0  0  0  0  0  0  0  0  0  0
M  END
$$$$

     RDKit          3D

  1  0  0  0  0  0  0  0  0  0999 V2000
    5.6750    8.1680    7.4630 I   0  0  0  0  0  0  0  0  0  0  0  0
M  END
$$$$

     RDKit          3D

  1  0  0  0  0  0  0  0  0  0999 V2000
    6.6750    8.1680   -0.5370 I   0  0  0  0  0  0  0  0  0  0  0  0
M  END
$$$$

     RDKit          3D

  1  0  0  0  0  0  0  0  0  0999 V2000
    6.6750    8.1680    0.4630 I   0  0  0  0  0  0  0  0  0  0  0  0
M  END
$$$$

     RDKit          3D

  1  0  0  0  0  0  0  0  0  0999 V2000
    6.6750    8.1680    1.4630 I   0  0  0  0  0  0  0  0  0  0  0  0
M  END
$$$$

     RDKit          3D

  1  0  0  0  0  0  0  0  0  0999 V2000
    6.6750    8.1680    2.4630 I   0  0  0  0  0  0  0  0  0  0  0  0
M  END
$$$$

     RDKit          3D

  1  0  0  0  0  0  0  0  0  0999 V2000
    6.6750    8.1680    3.4630 I   0  0  0  0  0  0  0  0  0  0  0  0
M  END
$$$$

     RDKit          3D

  1  0  0  0  0  0  0  0  0  0999 V2000
    6.6750    8.1680    4.4630 I   0  0  0  0  0  0  0  0  0  0  0  0
M  END
$$$$

     RDKit          3D

  1  0  0  0  0  0  0  0  0  0999 V2000
    6.6750    8.1680    5.4630 I   0  0  0  0  0  0  0  0  0  0  0  0
M  END
$$$$

     RDKit          3D

  1  0  0  0  0  0  0  0  0  0999 V2000
    6.6750    8.1680    6.4630 I   0  0  0  0  0  0  0  0  0  0  0  0
M  END
$$$$

     RDKit          3D

  1  0  0  0  0  0  0  0  0  0999 V2000
    6.6750    8.1680    7.4630 I   0  0  0  0  0  0  0  0  0  0  0  0
M  END
$$$$

     RDKit          3D

  1  0  0  0  0  0  0  0  0  0999 V2000
    7.6750    8.1680   -0.5370 I   0  0  0  0  0  0  0  0  0  0  0  0
M  END
$$$$

     RDKit          3D

  1  0  0  0  0  0  0  0  0  0999 V2000
    7.6750    8.1680    0.4630 I   0  0  0  0  0  0  0  0  0  0  0  0
M  END
$$$$

     RDKit          3D

  1  0  0  0  0  0  0  0  0  0999 V2000
    7.6750    8.1680    1.4630 I   0  0  0  0  0  0  0  0  0  0  0  0
M  END
$$$$

     RDKit          3D

  1  0  0  0  0  0  0  0  0  0999 V2000
    7.6750    8.1680    2.4630 I   0  0  0  0  0  0  0  0  0  0  0  0
M  END
$$$$

     RDKit          3D

  1  0  0  0  0  0  0  0  0  0999 V2000
    7.6750    8.1680    3.4630 I   0  0  0  0  0  0  0  0  0  0  0  0
M  END
$$$$

     RDKit          3D

  1  0  0  0  0  0  0  0  0  0999 V2000
    7.6750    8.1680    4.4630 I   0  0  0  0  0  0  0  0  0  0  0  0
M  END
$$$$

     RDKit          3D

  1  0  0  0  0  0  0  0  0  0999 V2000
    7.6750    8.1680    5.4630 I   0  0  0  0  0  0  0  0  0  0  0  0
M  END
$$$$

     RDKit          3D

  1  0  0  0  0  0  0  0  0  0999 V2000
    7.6750    8.1680    6.4630 I   0  0  0  0  0  0  0  0  0  0  0  0
M  END
$$$$

     RDKit          3D

  1  0  0  0  0  0  0  0  0  0999 V2000
    7.6750    8.1680    7.4630 I   0  0  0  0  0  0  0  0  0  0  0  0
M  END
$$$$

     RDKit          3D

  1  0  0  0  0  0  0  0  0  0999 V2000
    8.6750    8.1680   -0.5370 I   0  0  0  0  0  0  0  0  0  0  0  0
M  END
$$$$

     RDKit          3D

  1  0  0  0  0  0  0  0  0  0999 V2000
    8.6750    8.1680    0.4630 I   0  0  0  0  0  0  0  0  0  0  0  0
M  END
$$$$

     RDKit          3D

  1  0  0  0  0  0  0  0  0  0999 V2000
    8.6750    8.1680    1.4630 I   0  0  0  0  0  0  0  0  0  0  0  0
M  END
$$$$

     RDKit          3D

  1  0  0  0  0  0  0  0  0  0999 V2000
    8.6750    8.1680    2.4630 I   0  0  0  0  0  0  0  0  0  0  0  0
M  END
$$$$

     RDKit          3D

  1  0  0  0  0  0  0  0  0  0999 V2000
    8.6750    8.1680    3.4630 I   0  0  0  0  0  0  0  0  0  0  0  0
M  END
$$$$

     RDKit          3D

  1  0  0  0  0  0  0  0  0  0999 V2000
    8.6750    8.1680    4.4630 I   0  0  0  0  0  0  0  0  0  0  0  0
M  END
$$$$

     RDKit          3D

  1  0  0  0  0  0  0  0  0  0999 V2000
    8.6750    8.1680    5.4630 I   0  0  0  0  0  0  0  0  0  0  0  0
M  END
$$$$

     RDKit          3D

  1  0  0  0  0  0  0  0  0  0999 V2000
    8.6750    8.1680    6.4630 I   0  0  0  0  0  0  0  0  0  0  0  0
M  END
$$$$

     RDKit          3D

  1  0  0  0  0  0  0  0  0  0999 V2000
    8.6750    8.1680    7.4630 I   0  0  0  0  0  0  0  0  0  0  0  0
M  END
$$$$

     RDKit          3D

  1  0  0  0  0  0  0  0  0  0999 V2000
    9.6750    8.1680   -0.5370 I   0  0  0  0  0  0  0  0  0  0  0  0
M  END
$$$$

     RDKit          3D

  1  0  0  0  0  0  0  0  0  0999 V2000
    9.6750    8.1680    0.4630 I   0  0  0  0  0  0  0  0  0  0  0  0
M  END
$$$$

     RDKit          3D

  1  0  0  0  0  0  0  0  0  0999 V2000
    9.6750    8.1680    1.4630 I   0  0  0  0  0  0  0  0  0  0  0  0
M  END
$$$$

     RDKit          3D

  1  0  0  0  0  0  0  0  0  0999 V2000
    9.6750    8.1680    2.4630 I   0  0  0  0  0  0  0  0  0  0  0  0
M  END
$$$$

     RDKit          3D

  1  0  0  0  0  0  0  0  0  0999 V2000
    9.6750    8.1680    3.4630 I   0  0  0  0  0  0  0  0  0  0  0  0
M  END
$$$$

     RDKit          3D

  1  0  0  0  0  0  0  0  0  0999 V2000
    9.6750    8.1680    4.4630 I   0  0  0  0  0  0  0  0  0  0  0  0
M  END
$$$$

     RDKit          3D

  1  0  0  0  0  0  0  0  0  0999 V2000
    9.6750    8.1680    5.4630 I   0  0  0  0  0  0  0  0  0  0  0  0
M  END
$$$$

     RDKit          3D

  1  0  0  0  0  0  0  0  0  0999 V2000
    9.6750    8.1680    6.4630 I   0  0  0  0  0  0  0  0  0  0  0  0
M  END
$$$$

     RDKit          3D

  1  0  0  0  0  0  0  0  0  0999 V2000
    9.6750    8.1680    7.4630 I   0  0  0  0  0  0  0  0  0  0  0  0
M  END
$$$$

     RDKit          3D

  1  0  0  0  0  0  0  0  0  0999 V2000
   10.6750    8.1680   -0.5370 I   0  0  0  0  0  0  0  0  0  0  0  0
M  END
$$$$

     RDKit          3D

  1  0  0  0  0  0  0  0  0  0999 V2000
   10.6750    8.1680    0.4630 I   0  0  0  0  0  0  0  0  0  0  0  0
M  END
$$$$

     RDKit          3D

  1  0  0  0  0  0  0  0  0  0999 V2000
   10.6750    8.1680    1.4630 I   0  0  0  0  0  0  0  0  0  0  0  0
M  END
$$$$

     RDKit          3D

  1  0  0  0  0  0  0  0  0  0999 V2000
   10.6750    8.1680    2.4630 I   0  0  0  0  0  0  0  0  0  0  0  0
M  END
$$$$

     RDKit          3D

  1  0  0  0  0  0  0  0  0  0999 V2000
   10.6750    8.1680    3.4630 I   0  0  0  0  0  0  0  0  0  0  0  0
M  END
$$$$

     RDKit          3D

  1  0  0  0  0  0  0  0  0  0999 V2000
   10.6750    8.1680    4.4630 I   0  0  0  0  0  0  0  0  0  0  0  0
M  END
$$$$

     RDKit          3D

  1  0  0  0  0  0  0  0  0  0999 V2000
   10.6750    8.1680    5.4630 I   0  0  0  0  0  0  0  0  0  0  0  0
M  END
$$$$

     RDKit          3D

  1  0  0  0  0  0  0  0  0  0999 V2000
   10.6750    8.1680    6.4630 I   0  0  0  0  0  0  0  0  0  0  0  0
M  END
$$$$

     RDKit          3D

  1  0  0  0  0  0  0  0  0  0999 V2000
   10.6750    8.1680    7.4630 I   0  0  0  0  0  0  0  0  0  0  0  0
M  END
$$$$

     RDKit          3D

  1  0  0  0  0  0  0  0  0  0999 V2000
    2.6750    9.1680   -0.5370 I   0  0  0  0  0  0  0  0  0  0  0  0
M  END
$$$$

     RDKit          3D

  1  0  0  0  0  0  0  0  0  0999 V2000
    2.6750    9.1680    0.4630 I   0  0  0  0  0  0  0  0  0  0  0  0
M  END
$$$$

     RDKit          3D

  1  0  0  0  0  0  0  0  0  0999 V2000
    2.6750    9.1680    1.4630 I   0  0  0  0  0  0  0  0  0  0  0  0
M  END
$$$$

     RDKit          3D

  1  0  0  0  0  0  0  0  0  0999 V2000
    2.6750    9.1680    2.4630 I   0  0  0  0  0  0  0  0  0  0  0  0
M  END
$$$$

     RDKit          3D

  1  0  0  0  0  0  0  0  0  0999 V2000
    2.6750    9.1680    3.4630 I   0  0  0  0  0  0  0  0  0  0  0  0
M  END
$$$$

     RDKit          3D

  1  0  0  0  0  0  0  0  0  0999 V2000
    2.6750    9.1680    4.4630 I   0  0  0  0  0  0  0  0  0  0  0  0
M  END
$$$$

     RDKit          3D

  1  0  0  0  0  0  0  0  0  0999 V2000
    2.6750    9.1680    5.4630 I   0  0  0  0  0  0  0  0  0  0  0  0
M  END
$$$$

     RDKit          3D

  1  0  0  0  0  0  0  0  0  0999 V2000
    2.6750    9.1680    6.4630 I   0  0  0  0  0  0  0  0  0  0  0  0
M  END
$$$$

     RDKit          3D

  1  0  0  0  0  0  0  0  0  0999 V2000
    2.6750    9.1680    7.4630 I   0  0  0  0  0  0  0  0  0  0  0  0
M  END
$$$$

     RDKit          3D

  1  0  0  0  0  0  0  0  0  0999 V2000
    3.6750    9.1680   -0.5370 I   0  0  0  0  0  0  0  0  0  0  0  0
M  END
$$$$

     RDKit          3D

  1  0  0  0  0  0  0  0  0  0999 V2000
    3.6750    9.1680    0.4630 I   0  0  0  0  0  0  0  0  0  0  0  0
M  END
$$$$

     RDKit          3D

  1  0  0  0  0  0  0  0  0  0999 V2000
    3.6750    9.1680    1.4630 I   0  0  0  0  0  0  0  0  0  0  0  0
M  END
$$$$

     RDKit          3D

  1  0  0  0  0  0  0  0  0  0999 V2000
    3.6750    9.1680    2.4630 I   0  0  0  0  0  0  0  0  0  0  0  0
M  END
$$$$

     RDKit          3D

  1  0  0  0  0  0  0  0  0  0999 V2000
    3.6750    9.1680    3.4630 I   0  0  0  0  0  0  0  0  0  0  0  0
M  END
$$$$

     RDKit          3D

  1  0  0  0  0  0  0  0  0  0999 V2000
    3.6750    9.1680    4.4630 I   0  0  0  0  0  0  0  0  0  0  0  0
M  END
$$$$

     RDKit          3D

  1  0  0  0  0  0  0  0  0  0999 V2000
    3.6750    9.1680    5.4630 I   0  0  0  0  0  0  0  0  0  0  0  0
M  END
$$$$

     RDKit          3D

  1  0  0  0  0  0  0  0  0  0999 V2000
    3.6750    9.1680    6.4630 I   0  0  0  0  0  0  0  0  0  0  0  0
M  END
$$$$

     RDKit          3D

  1  0  0  0  0  0  0  0  0  0999 V2000
    3.6750    9.1680    7.4630 I   0  0  0  0  0  0  0  0  0  0  0  0
M  END
$$$$

     RDKit          3D

  1  0  0  0  0  0  0  0  0  0999 V2000
    4.6750    9.1680   -0.5370 I   0  0  0  0  0  0  0  0  0  0  0  0
M  END
$$$$

     RDKit          3D

  1  0  0  0  0  0  0  0  0  0999 V2000
    4.6750    9.1680    0.4630 I   0  0  0  0  0  0  0  0  0  0  0  0
M  END
$$$$

     RDKit          3D

  1  0  0  0  0  0  0  0  0  0999 V2000
    4.6750    9.1680    1.4630 I   0  0  0  0  0  0  0  0  0  0  0  0
M  END
$$$$

     RDKit          3D

  1  0  0  0  0  0  0  0  0  0999 V2000
    4.6750    9.1680    2.4630 I   0  0  0  0  0  0  0  0  0  0  0  0
M  END
$$$$

     RDKit          3D

  1  0  0  0  0  0  0  0  0  0999 V2000
    4.6750    9.1680    3.4630 I   0  0  0  0  0  0  0  0  0  0  0  0
M  END
$$$$

     RDKit          3D

  1  0  0  0  0  0  0  0  0  0999 V2000
    4.6750    9.1680    4.4630 I   0  0  0  0  0  0  0  0  0  0  0  0
M  END
$$$$

     RDKit          3D

  1  0  0  0  0  0  0  0  0  0999 V2000
    4.6750    9.1680    5.4630 I   0  0  0  0  0  0  0  0  0  0  0  0
M  END
$$$$

     RDKit          3D

  1  0  0  0  0  0  0  0  0  0999 V2000
    4.6750    9.1680    6.4630 I   0  0  0  0  0  0  0  0  0  0  0  0
M  END
$$$$

     RDKit          3D

  1  0  0  0  0  0  0  0  0  0999 V2000
    4.6750    9.1680    7.4630 I   0  0  0  0  0  0  0  0  0  0  0  0
M  END
$$$$

     RDKit          3D

  1  0  0  0  0  0  0  0  0  0999 V2000
    5.6750    9.1680   -0.5370 I   0  0  0  0  0  0  0  0  0  0  0  0
M  END
$$$$

     RDKit          3D

  1  0  0  0  0  0  0  0  0  0999 V2000
    5.6750    9.1680    0.4630 I   0  0  0  0  0  0  0  0  0  0  0  0
M  END
$$$$

     RDKit          3D

  1  0  0  0  0  0  0  0  0  0999 V2000
    5.6750    9.1680    1.4630 I   0  0  0  0  0  0  0  0  0  0  0  0
M  END
$$$$

     RDKit          3D

  1  0  0  0  0  0  0  0  0  0999 V2000
    5.6750    9.1680    2.4630 I   0  0  0  0  0  0  0  0  0  0  0  0
M  END
$$$$

     RDKit          3D

  1  0  0  0  0  0  0  0  0  0999 V2000
    5.6750    9.1680    3.4630 I   0  0  0  0  0  0  0  0  0  0  0  0
M  END
$$$$

     RDKit          3D

  1  0  0  0  0  0  0  0  0  0999 V2000
    5.6750    9.1680    4.4630 I   0  0  0  0  0  0  0  0  0  0  0  0
M  END
$$$$

     RDKit          3D

  1  0  0  0  0  0  0  0  0  0999 V2000
    5.6750    9.1680    5.4630 I   0  0  0  0  0  0  0  0  0  0  0  0
M  END
$$$$

     RDKit          3D

  1  0  0  0  0  0  0  0  0  0999 V2000
    5.6750    9.1680    6.4630 I   0  0  0  0  0  0  0  0  0  0  0  0
M  END
$$$$

     RDKit          3D

  1  0  0  0  0  0  0  0  0  0999 V2000
    5.6750    9.1680    7.4630 I   0  0  0  0  0  0  0  0  0  0  0  0
M  END
$$$$

     RDKit          3D

  1  0  0  0  0  0  0  0  0  0999 V2000
    6.6750    9.1680   -0.5370 I   0  0  0  0  0  0  0  0  0  0  0  0
M  END
$$$$

     RDKit          3D

  1  0  0  0  0  0  0  0  0  0999 V2000
    6.6750    9.1680    0.4630 I   0  0  0  0  0  0  0  0  0  0  0  0
M  END
$$$$

     RDKit          3D

  1  0  0  0  0  0  0  0  0  0999 V2000
    6.6750    9.1680    1.4630 I   0  0  0  0  0  0  0  0  0  0  0  0
M  END
$$$$

     RDKit          3D

  1  0  0  0  0  0  0  0  0  0999 V2000
    6.6750    9.1680    2.4630 I   0  0  0  0  0  0  0  0  0  0  0  0
M  END
$$$$

     RDKit          3D

  1  0  0  0  0  0  0  0  0  0999 V2000
    6.6750    9.1680    3.4630 I   0  0  0  0  0  0  0  0  0  0  0  0
M  END
$$$$

     RDKit          3D

  1  0  0  0  0  0  0  0  0  0999 V2000
    6.6750    9.1680    4.4630 I   0  0  0  0  0  0  0  0  0  0  0  0
M  END
$$$$

     RDKit          3D

  1  0  0  0  0  0  0  0  0  0999 V2000
    6.6750    9.1680    5.4630 I   0  0  0  0  0  0  0  0  0  0  0  0
M  END
$$$$

     RDKit          3D

  1  0  0  0  0  0  0  0  0  0999 V2000
    6.6750    9.1680    6.4630 I   0  0  0  0  0  0  0  0  0  0  0  0
M  END
$$$$

     RDKit          3D

  1  0  0  0  0  0  0  0  0  0999 V2000
    6.6750    9.1680    7.4630 I   0  0  0  0  0  0  0  0  0  0  0  0
M  END
$$$$

     RDKit          3D

  1  0  0  0  0  0  0  0  0  0999 V2000
    7.6750    9.1680   -0.5370 I   0  0  0  0  0  0  0  0  0  0  0  0
M  END
$$$$

     RDKit          3D

  1  0  0  0  0  0  0  0  0  0999 V2000
    7.6750    9.1680    0.4630 I   0  0  0  0  0  0  0  0  0  0  0  0
M  END
$$$$

     RDKit          3D

  1  0  0  0  0  0  0  0  0  0999 V2000
    7.6750    9.1680    1.4630 I   0  0  0  0  0  0  0  0  0  0  0  0
M  END
$$$$

     RDKit          3D

  1  0  0  0  0  0  0  0  0  0999 V2000
    7.6750    9.1680    2.4630 I   0  0  0  0  0  0  0  0  0  0  0  0
M  END
$$$$

     RDKit          3D

  1  0  0  0  0  0  0  0  0  0999 V2000
    7.6750    9.1680    3.4630 I   0  0  0  0  0  0  0  0  0  0  0  0
M  END
$$$$

     RDKit          3D

  1  0  0  0  0  0  0  0  0  0999 V2000
    7.6750    9.1680    4.4630 I   0  0  0  0  0  0  0  0  0  0  0  0
M  END
$$$$

     RDKit          3D

  1  0  0  0  0  0  0  0  0  0999 V2000
    7.6750    9.1680    5.4630 I   0  0  0  0  0  0  0  0  0  0  0  0
M  END
$$$$

     RDKit          3D

  1  0  0  0  0  0  0  0  0  0999 V2000
    7.6750    9.1680    6.4630 I   0  0  0  0  0  0  0  0  0  0  0  0
M  END
$$$$

     RDKit          3D

  1  0  0  0  0  0  0  0  0  0999 V2000
    7.6750    9.1680    7.4630 I   0  0  0  0  0  0  0  0  0  0  0  0
M  END
$$$$

     RDKit          3D

  1  0  0  0  0  0  0  0  0  0999 V2000
    8.6750    9.1680   -0.5370 I   0  0  0  0  0  0  0  0  0  0  0  0
M  END
$$$$

     RDKit          3D

  1  0  0  0  0  0  0  0  0  0999 V2000
    8.6750    9.1680    0.4630 I   0  0  0  0  0  0  0  0  0  0  0  0
M  END
$$$$

     RDKit          3D

  1  0  0  0  0  0  0  0  0  0999 V2000
    8.6750    9.1680    1.4630 I   0  0  0  0  0  0  0  0  0  0  0  0
M  END
$$$$

     RDKit          3D

  1  0  0  0  0  0  0  0  0  0999 V2000
    8.6750    9.1680    2.4630 I   0  0  0  0  0  0  0  0  0  0  0  0
M  END
$$$$

     RDKit          3D

  1  0  0  0  0  0  0  0  0  0999 V2000
    8.6750    9.1680    3.4630 I   0  0  0  0  0  0  0  0  0  0  0  0
M  END
$$$$

     RDKit          3D

  1  0  0  0  0  0  0  0  0  0999 V2000
    8.6750    9.1680    4.4630 I   0  0  0  0  0  0  0  0  0  0  0  0
M  END
$$$$

     RDKit          3D

  1  0  0  0  0  0  0  0  0  0999 V2000
    8.6750    9.1680    5.4630 I   0  0  0  0  0  0  0  0  0  0  0  0
M  END
$$$$

     RDKit          3D

  1  0  0  0  0  0  0  0  0  0999 V2000
    8.6750    9.1680    6.4630 I   0  0  0  0  0  0  0  0  0  0  0  0
M  END
$$$$

     RDKit          3D

  1  0  0  0  0  0  0  0  0  0999 V2000
    8.6750    9.1680    7.4630 I   0  0  0  0  0  0  0  0  0  0  0  0
M  END
$$$$

     RDKit          3D

  1  0  0  0  0  0  0  0  0  0999 V2000
    9.6750    9.1680   -0.5370 I   0  0  0  0  0  0  0  0  0  0  0  0
M  END
$$$$

     RDKit          3D

  1  0  0  0  0  0  0  0  0  0999 V2000
    9.6750    9.1680    0.4630 I   0  0  0  0  0  0  0  0  0  0  0  0
M  END
$$$$

     RDKit          3D

  1  0  0  0  0  0  0  0  0  0999 V2000
    9.6750    9.1680    1.4630 I   0  0  0  0  0  0  0  0  0  0  0  0
M  END
$$$$

     RDKit          3D

  1  0  0  0  0  0  0  0  0  0999 V2000
    9.6750    9.1680    2.4630 I   0  0  0  0  0  0  0  0  0  0  0  0
M  END
$$$$

     RDKit          3D

  1  0  0  0  0  0  0  0  0  0999 V2000
    9.6750    9.1680    3.4630 I   0  0  0  0  0  0  0  0  0  0  0  0
M  END
$$$$

     RDKit          3D

  1  0  0  0  0  0  0  0  0  0999 V2000
    9.6750    9.1680    4.4630 I   0  0  0  0  0  0  0  0  0  0  0  0
M  END
$$$$

     RDKit          3D

  1  0  0  0  0  0  0  0  0  0999 V2000
    9.6750    9.1680    5.4630 I   0  0  0  0  0  0  0  0  0  0  0  0
M  END
$$$$

     RDKit          3D

  1  0  0  0  0  0  0  0  0  0999 V2000
    9.6750    9.1680    6.4630 I   0  0  0  0  0  0  0  0  0  0  0  0
M  END
$$$$

     RDKit          3D

  1  0  0  0  0  0  0  0  0  0999 V2000
    9.6750    9.1680    7.4630 I   0  0  0  0  0  0  0  0  0  0  0  0
M  END
$$$$

     RDKit          3D

  1  0  0  0  0  0  0  0  0  0999 V2000
   10.6750    9.1680   -0.5370 I   0  0  0  0  0  0  0  0  0  0  0  0
M  END
$$$$

     RDKit          3D

  1  0  0  0  0  0  0  0  0  0999 V2000
   10.6750    9.1680    0.4630 I   0  0  0  0  0  0  0  0  0  0  0  0
M  END
$$$$

     RDKit          3D

  1  0  0  0  0  0  0  0  0  0999 V2000
   10.6750    9.1680    1.4630 I   0  0  0  0  0  0  0  0  0  0  0  0
M  END
$$$$

     RDKit          3D

  1  0  0  0  0  0  0  0  0  0999 V2000
   10.6750    9.1680    2.4630 I   0  0  0  0  0  0  0  0  0  0  0  0
M  END
$$$$

     RDKit          3D

  1  0  0  0  0  0  0  0  0  0999 V2000
   10.6750    9.1680    3.4630 I   0  0  0  0  0  0  0  0  0  0  0  0
M  END
$$$$

     RDKit          3D

  1  0  0  0  0  0  0  0  0  0999 V2000
   10.6750    9.1680    4.4630 I   0  0  0  0  0  0  0  0  0  0  0  0
M  END
$$$$

     RDKit          3D

  1  0  0  0  0  0  0  0  0  0999 V2000
   10.6750    9.1680    5.4630 I   0  0  0  0  0  0  0  0  0  0  0  0
M  END
$$$$

     RDKit          3D

  1  0  0  0  0  0  0  0  0  0999 V2000
   10.6750    9.1680    6.4630 I   0  0  0  0  0  0  0  0  0  0  0  0
M  END
$$$$

     RDKit          3D

  1  0  0  0  0  0  0  0  0  0999 V2000
   10.6750    9.1680    7.4630 I   0  0  0  0  0  0  0  0  0  0  0  0
M  END
$$$$

     RDKit          3D

  1  0  0  0  0  0  0  0  0  0999 V2000
    2.6750   10.1680   -0.5370 I   0  0  0  0  0  0  0  0  0  0  0  0
M  END
$$$$

     RDKit          3D

  1  0  0  0  0  0  0  0  0  0999 V2000
    2.6750   10.1680    0.4630 I   0  0  0  0  0  0  0  0  0  0  0  0
M  END
$$$$

     RDKit          3D

  1  0  0  0  0  0  0  0  0  0999 V2000
    2.6750   10.1680    1.4630 I   0  0  0  0  0  0  0  0  0  0  0  0
M  END
$$$$

     RDKit          3D

  1  0  0  0  0  0  0  0  0  0999 V2000
    2.6750   10.1680    2.4630 I   0  0  0  0  0  0  0  0  0  0  0  0
M  END
$$$$

     RDKit          3D

  1  0  0  0  0  0  0  0  0  0999 V2000
    2.6750   10.1680    3.4630 I   0  0  0  0  0  0  0  0  0  0  0  0
M  END
$$$$

     RDKit          3D

  1  0  0  0  0  0  0  0  0  0999 V2000
    2.6750   10.1680    4.4630 I   0  0  0  0  0  0  0  0  0  0  0  0
M  END
$$$$

     RDKit          3D

  1  0  0  0  0  0  0  0  0  0999 V2000
    2.6750   10.1680    5.4630 I   0  0  0  0  0  0  0  0  0  0  0  0
M  END
$$$$

     RDKit          3D

  1  0  0  0  0  0  0  0  0  0999 V2000
    2.6750   10.1680    6.4630 I   0  0  0  0  0  0  0  0  0  0  0  0
M  END
$$$$

     RDKit          3D

  1  0  0  0  0  0  0  0  0  0999 V2000
    2.6750   10.1680    7.4630 I   0  0  0  0  0  0  0  0  0  0  0  0
M  END
$$$$

     RDKit          3D

  1  0  0  0  0  0  0  0  0  0999 V2000
    3.6750   10.1680   -0.5370 I   0  0  0  0  0  0  0  0  0  0  0  0
M  END
$$$$

     RDKit          3D

  1  0  0  0  0  0  0  0  0  0999 V2000
    3.6750   10.1680    0.4630 I   0  0  0  0  0  0  0  0  0  0  0  0
M  END
$$$$

     RDKit          3D

  1  0  0  0  0  0  0  0  0  0999 V2000
    3.6750   10.1680    1.4630 I   0  0  0  0  0  0  0  0  0  0  0  0
M  END
$$$$

     RDKit          3D

  1  0  0  0  0  0  0  0  0  0999 V2000
    3.6750   10.1680    2.4630 I   0  0  0  0  0  0  0  0  0  0  0  0
M  END
$$$$

     RDKit          3D

  1  0  0  0  0  0  0  0  0  0999 V2000
    3.6750   10.1680    3.4630 I   0  0  0  0  0  0  0  0  0  0  0  0
M  END
$$$$

     RDKit          3D

  1  0  0  0  0  0  0  0  0  0999 V2000
    3.6750   10.1680    4.4630 I   0  0  0  0  0  0  0  0  0  0  0  0
M  END
$$$$

     RDKit          3D

  1  0  0  0  0  0  0  0  0  0999 V2000
    3.6750   10.1680    5.4630 I   0  0  0  0  0  0  0  0  0  0  0  0
M  END
$$$$

     RDKit          3D

  1  0  0  0  0  0  0  0  0  0999 V2000
    3.6750   10.1680    6.4630 I   0  0  0  0  0  0  0  0  0  0  0  0
M  END
$$$$

     RDKit          3D

  1  0  0  0  0  0  0  0  0  0999 V2000
    3.6750   10.1680    7.4630 I   0  0  0  0  0  0  0  0  0  0  0  0
M  END
$$$$

     RDKit          3D

  1  0  0  0  0  0  0  0  0  0999 V2000
    4.6750   10.1680   -0.5370 I   0  0  0  0  0  0  0  0  0  0  0  0
M  END
$$$$

     RDKit          3D

  1  0  0  0  0  0  0  0  0  0999 V2000
    4.6750   10.1680    0.4630 I   0  0  0  0  0  0  0  0  0  0  0  0
M  END
$$$$

     RDKit          3D

  1  0  0  0  0  0  0  0  0  0999 V2000
    4.6750   10.1680    1.4630 I   0  0  0  0  0  0  0  0  0  0  0  0
M  END
$$$$

     RDKit          3D

  1  0  0  0  0  0  0  0  0  0999 V2000
    4.6750   10.1680    2.4630 I   0  0  0  0  0  0  0  0  0  0  0  0
M  END
$$$$

     RDKit          3D

  1  0  0  0  0  0  0  0  0  0999 V2000
    4.6750   10.1680    3.4630 I   0  0  0  0  0  0  0  0  0  0  0  0
M  END
$$$$

     RDKit          3D

  1  0  0  0  0  0  0  0  0  0999 V2000
    4.6750   10.1680    4.4630 I   0  0  0  0  0  0  0  0  0  0  0  0
M  END
$$$$

     RDKit          3D

  1  0  0  0  0  0  0  0  0  0999 V2000
    4.6750   10.1680    5.4630 I   0  0  0  0  0  0  0  0  0  0  0  0
M  END
$$$$

     RDKit          3D

  1  0  0  0  0  0  0  0  0  0999 V2000
    4.6750   10.1680    6.4630 I   0  0  0  0  0  0  0  0  0  0  0  0
M  END
$$$$

     RDKit          3D

  1  0  0  0  0  0  0  0  0  0999 V2000
    4.6750   10.1680    7.4630 I   0  0  0  0  0  0  0  0  0  0  0  0
M  END
$$$$

     RDKit          3D

  1  0  0  0  0  0  0  0  0  0999 V2000
    5.6750   10.1680   -0.5370 I   0  0  0  0  0  0  0  0  0  0  0  0
M  END
$$$$

     RDKit          3D

  1  0  0  0  0  0  0  0  0  0999 V2000
    5.6750   10.1680    0.4630 I   0  0  0  0  0  0  0  0  0  0  0  0
M  END
$$$$

     RDKit          3D

  1  0  0  0  0  0  0  0  0  0999 V2000
    5.6750   10.1680    1.4630 I   0  0  0  0  0  0  0  0  0  0  0  0
M  END
$$$$

     RDKit          3D

  1  0  0  0  0  0  0  0  0  0999 V2000
    5.6750   10.1680    2.4630 I   0  0  0  0  0  0  0  0  0  0  0  0
M  END
$$$$

     RDKit          3D

  1  0  0  0  0  0  0  0  0  0999 V2000
    5.6750   10.1680    3.4630 I   0  0  0  0  0  0  0  0  0  0  0  0
M  END
$$$$

     RDKit          3D

  1  0  0  0  0  0  0  0  0  0999 V2000
    5.6750   10.1680    4.4630 I   0  0  0  0  0  0  0  0  0  0  0  0
M  END
$$$$

     RDKit          3D

  1  0  0  0  0  0  0  0  0  0999 V2000
    5.6750   10.1680    5.4630 I   0  0  0  0  0  0  0  0  0  0  0  0
M  END
$$$$

     RDKit          3D

  1  0  0  0  0  0  0  0  0  0999 V2000
    5.6750   10.1680    6.4630 I   0  0  0  0  0  0  0  0  0  0  0  0
M  END
$$$$

     RDKit          3D

  1  0  0  0  0  0  0  0  0  0999 V2000
    5.6750   10.1680    7.4630 I   0  0  0  0  0  0  0  0  0  0  0  0
M  END
$$$$

     RDKit          3D

  1  0  0  0  0  0  0  0  0  0999 V2000
    6.6750   10.1680   -0.5370 I   0  0  0  0  0  0  0  0  0  0  0  0
M  END
$$$$

     RDKit          3D

  1  0  0  0  0  0  0  0  0  0999 V2000
    6.6750   10.1680    0.4630 I   0  0  0  0  0  0  0  0  0  0  0  0
M  END
$$$$

     RDKit          3D

  1  0  0  0  0  0  0  0  0  0999 V2000
    6.6750   10.1680    1.4630 I   0  0  0  0  0  0  0  0  0  0  0  0
M  END
$$$$

     RDKit          3D

  1  0  0  0  0  0  0  0  0  0999 V2000
    6.6750   10.1680    2.4630 I   0  0  0  0  0  0  0  0  0  0  0  0
M  END
$$$$

     RDKit          3D

  1  0  0  0  0  0  0  0  0  0999 V2000
    6.6750   10.1680    3.4630 I   0  0  0  0  0  0  0  0  0  0  0  0
M  END
$$$$

     RDKit          3D

  1  0  0  0  0  0  0  0  0  0999 V2000
    6.6750   10.1680    4.4630 I   0  0  0  0  0  0  0  0  0  0  0  0
M  END
$$$$

     RDKit          3D

  1  0  0  0  0  0  0  0  0  0999 V2000
    6.6750   10.1680    5.4630 I   0  0  0  0  0  0  0  0  0  0  0  0
M  END
$$$$

     RDKit          3D

  1  0  0  0  0  0  0  0  0  0999 V2000
    6.6750   10.1680    6.4630 I   0  0  0  0  0  0  0  0  0  0  0  0
M  END
$$$$

     RDKit          3D

  1  0  0  0  0  0  0  0  0  0999 V2000
    6.6750   10.1680    7.4630 I   0  0  0  0  0  0  0  0  0  0  0  0
M  END
$$$$

     RDKit          3D

  1  0  0  0  0  0  0  0  0  0999 V2000
    7.6750   10.1680   -0.5370 I   0  0  0  0  0  0  0  0  0  0  0  0
M  END
$$$$

     RDKit          3D

  1  0  0  0  0  0  0  0  0  0999 V2000
    7.6750   10.1680    0.4630 I   0  0  0  0  0  0  0  0  0  0  0  0
M  END
$$$$

     RDKit          3D

  1  0  0  0  0  0  0  0  0  0999 V2000
    7.6750   10.1680    1.4630 I   0  0  0  0  0  0  0  0  0  0  0  0
M  END
$$$$

     RDKit          3D

  1  0  0  0  0  0  0  0  0  0999 V2000
    7.6750   10.1680    2.4630 I   0  0  0  0  0  0  0  0  0  0  0  0
M  END
$$$$

     RDKit          3D

  1  0  0  0  0  0  0  0  0  0999 V2000
    7.6750   10.1680    3.4630 I   0  0  0  0  0  0  0  0  0  0  0  0
M  END
$$$$

     RDKit          3D

  1  0  0  0  0  0  0  0  0  0999 V2000
    7.6750   10.1680    4.4630 I   0  0  0  0  0  0  0  0  0  0  0  0
M  END
$$$$

     RDKit          3D

  1  0  0  0  0  0  0  0  0  0999 V2000
    7.6750   10.1680    5.4630 I   0  0  0  0  0  0  0  0  0  0  0  0
M  END
$$$$

     RDKit          3D

  1  0  0  0  0  0  0  0  0  0999 V2000
    7.6750   10.1680    6.4630 I   0  0  0  0  0  0  0  0  0  0  0  0
M  END
$$$$

     RDKit          3D

  1  0  0  0  0  0  0  0  0  0999 V2000
    7.6750   10.1680    7.4630 I   0  0  0  0  0  0  0  0  0  0  0  0
M  END
$$$$

     RDKit          3D

  1  0  0  0  0  0  0  0  0  0999 V2000
    8.6750   10.1680   -0.5370 I   0  0  0  0  0  0  0  0  0  0  0  0
M  END
$$$$

     RDKit          3D

  1  0  0  0  0  0  0  0  0  0999 V2000
    8.6750   10.1680    0.4630 I   0  0  0  0  0  0  0  0  0  0  0  0
M  END
$$$$

     RDKit          3D

  1  0  0  0  0  0  0  0  0  0999 V2000
    8.6750   10.1680    1.4630 I   0  0  0  0  0  0  0  0  0  0  0  0
M  END
$$$$

     RDKit          3D

  1  0  0  0  0  0  0  0  0  0999 V2000
    8.6750   10.1680    2.4630 I   0  0  0  0  0  0  0  0  0  0  0  0
M  END
$$$$

     RDKit          3D

  1  0  0  0  0  0  0  0  0  0999 V2000
    8.6750   10.1680    3.4630 I   0  0  0  0  0  0  0  0  0  0  0  0
M  END
$$$$

     RDKit          3D

  1  0  0  0  0  0  0  0  0  0999 V2000
    8.6750   10.1680    4.4630 I   0  0  0  0  0  0  0  0  0  0  0  0
M  END
$$$$

     RDKit          3D

  1  0  0  0  0  0  0  0  0  0999 V2000
    8.6750   10.1680    5.4630 I   0  0  0  0  0  0  0  0  0  0  0  0
M  END
$$$$

     RDKit          3D

  1  0  0  0  0  0  0  0  0  0999 V2000
    8.6750   10.1680    6.4630 I   0  0  0  0  0  0  0  0  0  0  0  0
M  END
$$$$

     RDKit          3D

  1  0  0  0  0  0  0  0  0  0999 V2000
    8.6750   10.1680    7.4630 I   0  0  0  0  0  0  0  0  0  0  0  0
M  END
$$$$

     RDKit          3D

  1  0  0  0  0  0  0  0  0  0999 V2000
    9.6750   10.1680   -0.5370 I   0  0  0  0  0  0  0  0  0  0  0  0
M  END
$$$$

     RDKit          3D

  1  0  0  0  0  0  0  0  0  0999 V2000
    9.6750   10.1680    0.4630 I   0  0  0  0  0  0  0  0  0  0  0  0
M  END
$$$$

     RDKit          3D

  1  0  0  0  0  0  0  0  0  0999 V2000
    9.6750   10.1680    1.4630 I   0  0  0  0  0  0  0  0  0  0  0  0
M  END
$$$$

     RDKit          3D

  1  0  0  0  0  0  0  0  0  0999 V2000
    9.6750   10.1680    2.4630 I   0  0  0  0  0  0  0  0  0  0  0  0
M  END
$$$$

     RDKit          3D

  1  0  0  0  0  0  0  0  0  0999 V2000
    9.6750   10.1680    3.4630 I   0  0  0  0  0  0  0  0  0  0  0  0
M  END
$$$$

     RDKit          3D

  1  0  0  0  0  0  0  0  0  0999 V2000
    9.6750   10.1680    4.4630 I   0  0  0  0  0  0  0  0  0  0  0  0
M  END
$$$$

     RDKit          3D

  1  0  0  0  0  0  0  0  0  0999 V2000
    9.6750   10.1680    5.4630 I   0  0  0  0  0  0  0  0  0  0  0  0
M  END
$$$$

     RDKit          3D

  1  0  0  0  0  0  0  0  0  0999 V2000
    9.6750   10.1680    6.4630 I   0  0  0  0  0  0  0  0  0  0  0  0
M  END
$$$$

     RDKit          3D

  1  0  0  0  0  0  0  0  0  0999 V2000
    9.6750   10.1680    7.4630 I   0  0  0  0  0  0  0  0  0  0  0  0
M  END
$$$$

     RDKit          3D

  1  0  0  0  0  0  0  0  0  0999 V2000
   10.6750   10.1680   -0.5370 I   0  0  0  0  0  0  0  0  0  0  0  0
M  END
$$$$

     RDKit          3D

  1  0  0  0  0  0  0  0  0  0999 V2000
   10.6750   10.1680    0.4630 I   0  0  0  0  0  0  0  0  0  0  0  0
M  END
$$$$

     RDKit          3D

  1  0  0  0  0  0  0  0  0  0999 V2000
   10.6750   10.1680    1.4630 I   0  0  0  0  0  0  0  0  0  0  0  0
M  END
$$$$

     RDKit          3D

  1  0  0  0  0  0  0  0  0  0999 V2000
   10.6750   10.1680    2.4630 I   0  0  0  0  0  0  0  0  0  0  0  0
M  END
$$$$

     RDKit          3D

  1  0  0  0  0  0  0  0  0  0999 V2000
   10.6750   10.1680    3.4630 I   0  0  0  0  0  0  0  0  0  0  0  0
M  END
$$$$

     RDKit          3D

  1  0  0  0  0  0  0  0  0  0999 V2000
   10.6750   10.1680    4.4630 I   0  0  0  0  0  0  0  0  0  0  0  0
M  END
$$$$

     RDKit          3D

  1  0  0  0  0  0  0  0  0  0999 V2000
   10.6750   10.1680    5.4630 I   0  0  0  0  0  0  0  0  0  0  0  0
M  END
$$$$

     RDKit          3D

  1  0  0  0  0  0  0  0  0  0999 V2000
   10.6750   10.1680    6.4630 I   0  0  0  0  0  0  0  0  0  0  0  0
M  END
$$$$

     RDKit          3D

  1  0  0  0  0  0  0  0  0  0999 V2000
   10.6750   10.1680    7.4630 I   0  0  0  0  0  0  0  0  0  0  0  0
M  END
$$$$

     RDKit          3D

  1  0  0  0  0  0  0  0  0  0999 V2000
    2.6750   11.1680   -0.5370 I   0  0  0  0  0  0  0  0  0  0  0  0
M  END
$$$$

     RDKit          3D

  1  0  0  0  0  0  0  0  0  0999 V2000
    2.6750   11.1680    0.4630 I   0  0  0  0  0  0  0  0  0  0  0  0
M  END
$$$$

     RDKit          3D

  1  0  0  0  0  0  0  0  0  0999 V2000
    2.6750   11.1680    1.4630 I   0  0  0  0  0  0  0  0  0  0  0  0
M  END
$$$$

     RDKit          3D

  1  0  0  0  0  0  0  0  0  0999 V2000
    2.6750   11.1680    2.4630 I   0  0  0  0  0  0  0  0  0  0  0  0
M  END
$$$$

     RDKit          3D

  1  0  0  0  0  0  0  0  0  0999 V2000
    2.6750   11.1680    3.4630 I   0  0  0  0  0  0  0  0  0  0  0  0
M  END
$$$$

     RDKit          3D

  1  0  0  0  0  0  0  0  0  0999 V2000
    2.6750   11.1680    4.4630 I   0  0  0  0  0  0  0  0  0  0  0  0
M  END
$$$$

     RDKit          3D

  1  0  0  0  0  0  0  0  0  0999 V2000
    2.6750   11.1680    5.4630 I   0  0  0  0  0  0  0  0  0  0  0  0
M  END
$$$$

     RDKit          3D

  1  0  0  0  0  0  0  0  0  0999 V2000
    2.6750   11.1680    6.4630 I   0  0  0  0  0  0  0  0  0  0  0  0
M  END
$$$$

     RDKit          3D

  1  0  0  0  0  0  0  0  0  0999 V2000
    2.6750   11.1680    7.4630 I   0  0  0  0  0  0  0  0  0  0  0  0
M  END
$$$$

     RDKit          3D

  1  0  0  0  0  0  0  0  0  0999 V2000
    3.6750   11.1680   -0.5370 I   0  0  0  0  0  0  0  0  0  0  0  0
M  END
$$$$

     RDKit          3D

  1  0  0  0  0  0  0  0  0  0999 V2000
    3.6750   11.1680    0.4630 I   0  0  0  0  0  0  0  0  0  0  0  0
M  END
$$$$

     RDKit          3D

  1  0  0  0  0  0  0  0  0  0999 V2000
    3.6750   11.1680    1.4630 I   0  0  0  0  0  0  0  0  0  0  0  0
M  END
$$$$

     RDKit          3D

  1  0  0  0  0  0  0  0  0  0999 V2000
    3.6750   11.1680    2.4630 I   0  0  0  0  0  0  0  0  0  0  0  0
M  END
$$$$

     RDKit          3D

  1  0  0  0  0  0  0  0  0  0999 V2000
    3.6750   11.1680    3.4630 I   0  0  0  0  0  0  0  0  0  0  0  0
M  END
$$$$

     RDKit          3D

  1  0  0  0  0  0  0  0  0  0999 V2000
    3.6750   11.1680    4.4630 I   0  0  0  0  0  0  0  0  0  0  0  0
M  END
$$$$

     RDKit          3D

  1  0  0  0  0  0  0  0  0  0999 V2000
    3.6750   11.1680    5.4630 I   0  0  0  0  0  0  0  0  0  0  0  0
M  END
$$$$

     RDKit          3D

  1  0  0  0  0  0  0  0  0  0999 V2000
    3.6750   11.1680    6.4630 I   0  0  0  0  0  0  0  0  0  0  0  0
M  END
$$$$

     RDKit          3D

  1  0  0  0  0  0  0  0  0  0999 V2000
    3.6750   11.1680    7.4630 I   0  0  0  0  0  0  0  0  0  0  0  0
M  END
$$$$

     RDKit          3D

  1  0  0  0  0  0  0  0  0  0999 V2000
    4.6750   11.1680   -0.5370 I   0  0  0  0  0  0  0  0  0  0  0  0
M  END
$$$$

     RDKit          3D

  1  0  0  0  0  0  0  0  0  0999 V2000
    4.6750   11.1680    0.4630 I   0  0  0  0  0  0  0  0  0  0  0  0
M  END
$$$$

     RDKit          3D

  1  0  0  0  0  0  0  0  0  0999 V2000
    4.6750   11.1680    1.4630 I   0  0  0  0  0  0  0  0  0  0  0  0
M  END
$$$$

     RDKit          3D

  1  0  0  0  0  0  0  0  0  0999 V2000
    4.6750   11.1680    2.4630 I   0  0  0  0  0  0  0  0  0  0  0  0
M  END
$$$$

     RDKit          3D

  1  0  0  0  0  0  0  0  0  0999 V2000
    4.6750   11.1680    3.4630 I   0  0  0  0  0  0  0  0  0  0  0  0
M  END
$$$$

     RDKit          3D

  1  0  0  0  0  0  0  0  0  0999 V2000
    4.6750   11.1680    4.4630 I   0  0  0  0  0  0  0  0  0  0  0  0
M  END
$$$$

     RDKit          3D

  1  0  0  0  0  0  0  0  0  0999 V2000
    4.6750   11.1680    5.4630 I   0  0  0  0  0  0  0  0  0  0  0  0
M  END
$$$$

     RDKit          3D

  1  0  0  0  0  0  0  0  0  0999 V2000
    4.6750   11.1680    6.4630 I   0  0  0  0  0  0  0  0  0  0  0  0
M  END
$$$$

     RDKit          3D

  1  0  0  0  0  0  0  0  0  0999 V2000
    4.6750   11.1680    7.4630 I   0  0  0  0  0  0  0  0  0  0  0  0
M  END
$$$$

     RDKit          3D

  1  0  0  0  0  0  0  0  0  0999 V2000
    5.6750   11.1680   -0.5370 I   0  0  0  0  0  0  0  0  0  0  0  0
M  END
$$$$

     RDKit          3D

  1  0  0  0  0  0  0  0  0  0999 V2000
    5.6750   11.1680    0.4630 I   0  0  0  0  0  0  0  0  0  0  0  0
M  END
$$$$

     RDKit          3D

  1  0  0  0  0  0  0  0  0  0999 V2000
    5.6750   11.1680    1.4630 I   0  0  0  0  0  0  0  0  0  0  0  0
M  END
$$$$

     RDKit          3D

  1  0  0  0  0  0  0  0  0  0999 V2000
    5.6750   11.1680    2.4630 I   0  0  0  0  0  0  0  0  0  0  0  0
M  END
$$$$

     RDKit          3D

  1  0  0  0  0  0  0  0  0  0999 V2000
    5.6750   11.1680    3.4630 I   0  0  0  0  0  0  0  0  0  0  0  0
M  END
$$$$

     RDKit          3D

  1  0  0  0  0  0  0  0  0  0999 V2000
    5.6750   11.1680    4.4630 I   0  0  0  0  0  0  0  0  0  0  0  0
M  END
$$$$

     RDKit          3D

  1  0  0  0  0  0  0  0  0  0999 V2000
    5.6750   11.1680    5.4630 I   0  0  0  0  0  0  0  0  0  0  0  0
M  END
$$$$

     RDKit          3D

  1  0  0  0  0  0  0  0  0  0999 V2000
    5.6750   11.1680    6.4630 I   0  0  0  0  0  0  0  0  0  0  0  0
M  END
$$$$

     RDKit          3D

  1  0  0  0  0  0  0  0  0  0999 V2000
    5.6750   11.1680    7.4630 I   0  0  0  0  0  0  0  0  0  0  0  0
M  END
$$$$

     RDKit          3D

  1  0  0  0  0  0  0  0  0  0999 V2000
    6.6750   11.1680   -0.5370 I   0  0  0  0  0  0  0  0  0  0  0  0
M  END
$$$$

     RDKit          3D

  1  0  0  0  0  0  0  0  0  0999 V2000
    6.6750   11.1680    0.4630 I   0  0  0  0  0  0  0  0  0  0  0  0
M  END
$$$$

     RDKit          3D

  1  0  0  0  0  0  0  0  0  0999 V2000
    6.6750   11.1680    1.4630 I   0  0  0  0  0  0  0  0  0  0  0  0
M  END
$$$$

     RDKit          3D

  1  0  0  0  0  0  0  0  0  0999 V2000
    6.6750   11.1680    2.4630 I   0  0  0  0  0  0  0  0  0  0  0  0
M  END
$$$$

     RDKit          3D

  1  0  0  0  0  0  0  0  0  0999 V2000
    6.6750   11.1680    3.4630 I   0  0  0  0  0  0  0  0  0  0  0  0
M  END
$$$$

     RDKit          3D

  1  0  0  0  0  0  0  0  0  0999 V2000
    6.6750   11.1680    4.4630 I   0  0  0  0  0  0  0  0  0  0  0  0
M  END
$$$$

     RDKit          3D

  1  0  0  0  0  0  0  0  0  0999 V2000
    6.6750   11.1680    5.4630 I   0  0  0  0  0  0  0  0  0  0  0  0
M  END
$$$$

     RDKit          3D

  1  0  0  0  0  0  0  0  0  0999 V2000
    6.6750   11.1680    6.4630 I   0  0  0  0  0  0  0  0  0  0  0  0
M  END
$$$$

     RDKit          3D

  1  0  0  0  0  0  0  0  0  0999 V2000
    6.6750   11.1680    7.4630 I   0  0  0  0  0  0  0  0  0  0  0  0
M  END
$$$$

     RDKit          3D

  1  0  0  0  0  0  0  0  0  0999 V2000
    7.6750   11.1680   -0.5370 I   0  0  0  0  0  0  0  0  0  0  0  0
M  END
$$$$

     RDKit          3D

  1  0  0  0  0  0  0  0  0  0999 V2000
    7.6750   11.1680    0.4630 I   0  0  0  0  0  0  0  0  0  0  0  0
M  END
$$$$

     RDKit          3D

  1  0  0  0  0  0  0  0  0  0999 V2000
    7.6750   11.1680    1.4630 I   0  0  0  0  0  0  0  0  0  0  0  0
M  END
$$$$

     RDKit          3D

  1  0  0  0  0  0  0  0  0  0999 V2000
    7.6750   11.1680    2.4630 I   0  0  0  0  0  0  0  0  0  0  0  0
M  END
$$$$

     RDKit          3D

  1  0  0  0  0  0  0  0  0  0999 V2000
    7.6750   11.1680    3.4630 I   0  0  0  0  0  0  0  0  0  0  0  0
M  END
$$$$

     RDKit          3D

  1  0  0  0  0  0  0  0  0  0999 V2000
    7.6750   11.1680    4.4630 I   0  0  0  0  0  0  0  0  0  0  0  0
M  END
$$$$

     RDKit          3D

  1  0  0  0  0  0  0  0  0  0999 V2000
    7.6750   11.1680    5.4630 I   0  0  0  0  0  0  0  0  0  0  0  0
M  END
$$$$

     RDKit          3D

  1  0  0  0  0  0  0  0  0  0999 V2000
    7.6750   11.1680    6.4630 I   0  0  0  0  0  0  0  0  0  0  0  0
M  END
$$$$

     RDKit          3D

  1  0  0  0  0  0  0  0  0  0999 V2000
    7.6750   11.1680    7.4630 I   0  0  0  0  0  0  0  0  0  0  0  0
M  END
$$$$

     RDKit          3D

  1  0  0  0  0  0  0  0  0  0999 V2000
    8.6750   11.1680   -0.5370 I   0  0  0  0  0  0  0  0  0  0  0  0
M  END
$$$$

     RDKit          3D

  1  0  0  0  0  0  0  0  0  0999 V2000
    8.6750   11.1680    0.4630 I   0  0  0  0  0  0  0  0  0  0  0  0
M  END
$$$$

     RDKit          3D

  1  0  0  0  0  0  0  0  0  0999 V2000
    8.6750   11.1680    1.4630 I   0  0  0  0  0  0  0  0  0  0  0  0
M  END
$$$$

     RDKit          3D

  1  0  0  0  0  0  0  0  0  0999 V2000
    8.6750   11.1680    2.4630 I   0  0  0  0  0  0  0  0  0  0  0  0
M  END
$$$$

     RDKit          3D

  1  0  0  0  0  0  0  0  0  0999 V2000
    8.6750   11.1680    3.4630 I   0  0  0  0  0  0  0  0  0  0  0  0
M  END
$$$$

     RDKit          3D

  1  0  0  0  0  0  0  0  0  0999 V2000
    8.6750   11.1680    4.4630 I   0  0  0  0  0  0  0  0  0  0  0  0
M  END
$$$$

     RDKit          3D

  1  0  0  0  0  0  0  0  0  0999 V2000
    8.6750   11.1680    5.4630 I   0  0  0  0  0  0  0  0  0  0  0  0
M  END
$$$$

     RDKit          3D

  1  0  0  0  0  0  0  0  0  0999 V2000
    8.6750   11.1680    6.4630 I   0  0  0  0  0  0  0  0  0  0  0  0
M  END
$$$$

     RDKit          3D

  1  0  0  0  0  0  0  0  0  0999 V2000
    8.6750   11.1680    7.4630 I   0  0  0  0  0  0  0  0  0  0  0  0
M  END
$$$$

     RDKit          3D

  1  0  0  0  0  0  0  0  0  0999 V2000
    9.6750   11.1680   -0.5370 I   0  0  0  0  0  0  0  0  0  0  0  0
M  END
$$$$

     RDKit          3D

  1  0  0  0  0  0  0  0  0  0999 V2000
    9.6750   11.1680    0.4630 I   0  0  0  0  0  0  0  0  0  0  0  0
M  END
$$$$

     RDKit          3D

  1  0  0  0  0  0  0  0  0  0999 V2000
    9.6750   11.1680    1.4630 I   0  0  0  0  0  0  0  0  0  0  0  0
M  END
$$$$

     RDKit          3D

  1  0  0  0  0  0  0  0  0  0999 V2000
    9.6750   11.1680    2.4630 I   0  0  0  0  0  0  0  0  0  0  0  0
M  END
$$$$

     RDKit          3D

  1  0  0  0  0  0  0  0  0  0999 V2000
    9.6750   11.1680    3.4630 I   0  0  0  0  0  0  0  0  0  0  0  0
M  END
$$$$

     RDKit          3D

  1  0  0  0  0  0  0  0  0  0999 V2000
    9.6750   11.1680    4.4630 I   0  0  0  0  0  0  0  0  0  0  0  0
M  END
$$$$

     RDKit          3D

  1  0  0  0  0  0  0  0  0  0999 V2000
    9.6750   11.1680    5.4630 I   0  0  0  0  0  0  0  0  0  0  0  0
M  END
$$$$

     RDKit          3D

  1  0  0  0  0  0  0  0  0  0999 V2000
    9.6750   11.1680    6.4630 I   0  0  0  0  0  0  0  0  0  0  0  0
M  END
$$$$

     RDKit          3D

  1  0  0  0  0  0  0  0  0  0999 V2000
    9.6750   11.1680    7.4630 I   0  0  0  0  0  0  0  0  0  0  0  0
M  END
$$$$

     RDKit          3D

  1  0  0  0  0  0  0  0  0  0999 V2000
   10.6750   11.1680   -0.5370 I   0  0  0  0  0  0  0  0  0  0  0  0
M  END
$$$$

     RDKit          3D

  1  0  0  0  0  0  0  0  0  0999 V2000
   10.6750   11.1680    0.4630 I   0  0  0  0  0  0  0  0  0  0  0  0
M  END
$$$$

     RDKit          3D

  1  0  0  0  0  0  0  0  0  0999 V2000
   10.6750   11.1680    1.4630 I   0  0  0  0  0  0  0  0  0  0  0  0
M  END
$$$$

     RDKit          3D

  1  0  0  0  0  0  0  0  0  0999 V2000
   10.6750   11.1680    2.4630 I   0  0  0  0  0  0  0  0  0  0  0  0
M  END
$$$$

     RDKit          3D

  1  0  0  0  0  0  0  0  0  0999 V2000
   10.6750   11.1680    3.4630 I   0  0  0  0  0  0  0  0  0  0  0  0
M  END
$$$$

     RDKit          3D

  1  0  0  0  0  0  0  0  0  0999 V2000
   10.6750   11.1680    4.4630 I   0  0  0  0  0  0  0  0  0  0  0  0
M  END
$$$$

     RDKit          3D

  1  0  0  0  0  0  0  0  0  0999 V2000
   10.6750   11.1680    5.4630 I   0  0  0  0  0  0  0  0  0  0  0  0
M  END
$$$$

     RDKit          3D

  1  0  0  0  0  0  0  0  0  0999 V2000
   10.6750   11.1680    6.4630 I   0  0  0  0  0  0  0  0  0  0  0  0
M  END
$$$$

     RDKit          3D

  1  0  0  0  0  0  0  0  0  0999 V2000
   10.6750   11.1680    7.4630 I   0  0  0  0  0  0  0  0  0  0  0  0
M  END
$$$$

     RDKit          3D

  1  0  0  0  0  0  0  0  0  0999 V2000
    2.6750   12.1680   -0.5370 I   0  0  0  0  0  0  0  0  0  0  0  0
M  END
$$$$

     RDKit          3D

  1  0  0  0  0  0  0  0  0  0999 V2000
    2.6750   12.1680    0.4630 I   0  0  0  0  0  0  0  0  0  0  0  0
M  END
$$$$

     RDKit          3D

  1  0  0  0  0  0  0  0  0  0999 V2000
    2.6750   12.1680    1.4630 I   0  0  0  0  0  0  0  0  0  0  0  0
M  END
$$$$

     RDKit          3D

  1  0  0  0  0  0  0  0  0  0999 V2000
    2.6750   12.1680    2.4630 I   0  0  0  0  0  0  0  0  0  0  0  0
M  END
$$$$

     RDKit          3D

  1  0  0  0  0  0  0  0  0  0999 V2000
    2.6750   12.1680    3.4630 I   0  0  0  0  0  0  0  0  0  0  0  0
M  END
$$$$

     RDKit          3D

  1  0  0  0  0  0  0  0  0  0999 V2000
    2.6750   12.1680    4.4630 I   0  0  0  0  0  0  0  0  0  0  0  0
M  END
$$$$

     RDKit          3D

  1  0  0  0  0  0  0  0  0  0999 V2000
    2.6750   12.1680    5.4630 I   0  0  0  0  0  0  0  0  0  0  0  0
M  END
$$$$

     RDKit          3D

  1  0  0  0  0  0  0  0  0  0999 V2000
    2.6750   12.1680    6.4630 I   0  0  0  0  0  0  0  0  0  0  0  0
M  END
$$$$

     RDKit          3D

  1  0  0  0  0  0  0  0  0  0999 V2000
    2.6750   12.1680    7.4630 I   0  0  0  0  0  0  0  0  0  0  0  0
M  END
$$$$

     RDKit          3D

  1  0  0  0  0  0  0  0  0  0999 V2000
    3.6750   12.1680   -0.5370 I   0  0  0  0  0  0  0  0  0  0  0  0
M  END
$$$$

     RDKit          3D

  1  0  0  0  0  0  0  0  0  0999 V2000
    3.6750   12.1680    0.4630 I   0  0  0  0  0  0  0  0  0  0  0  0
M  END
$$$$

     RDKit          3D

  1  0  0  0  0  0  0  0  0  0999 V2000
    3.6750   12.1680    1.4630 I   0  0  0  0  0  0  0  0  0  0  0  0
M  END
$$$$

     RDKit          3D

  1  0  0  0  0  0  0  0  0  0999 V2000
    3.6750   12.1680    2.4630 I   0  0  0  0  0  0  0  0  0  0  0  0
M  END
$$$$

     RDKit          3D

  1  0  0  0  0  0  0  0  0  0999 V2000
    3.6750   12.1680    3.4630 I   0  0  0  0  0  0  0  0  0  0  0  0
M  END
$$$$

     RDKit          3D

  1  0  0  0  0  0  0  0  0  0999 V2000
    3.6750   12.1680    4.4630 I   0  0  0  0  0  0  0  0  0  0  0  0
M  END
$$$$

     RDKit          3D

  1  0  0  0  0  0  0  0  0  0999 V2000
    3.6750   12.1680    5.4630 I   0  0  0  0  0  0  0  0  0  0  0  0
M  END
$$$$

     RDKit          3D

  1  0  0  0  0  0  0  0  0  0999 V2000
    3.6750   12.1680    6.4630 I   0  0  0  0  0  0  0  0  0  0  0  0
M  END
$$$$

     RDKit          3D

  1  0  0  0  0  0  0  0  0  0999 V2000
    3.6750   12.1680    7.4630 I   0  0  0  0  0  0  0  0  0  0  0  0
M  END
$$$$

     RDKit          3D

  1  0  0  0  0  0  0  0  0  0999 V2000
    4.6750   12.1680   -0.5370 I   0  0  0  0  0  0  0  0  0  0  0  0
M  END
$$$$

     RDKit          3D

  1  0  0  0  0  0  0  0  0  0999 V2000
    4.6750   12.1680    0.4630 I   0  0  0  0  0  0  0  0  0  0  0  0
M  END
$$$$

     RDKit          3D

  1  0  0  0  0  0  0  0  0  0999 V2000
    4.6750   12.1680    1.4630 I   0  0  0  0  0  0  0  0  0  0  0  0
M  END
$$$$

     RDKit          3D

  1  0  0  0  0  0  0  0  0  0999 V2000
    4.6750   12.1680    2.4630 I   0  0  0  0  0  0  0  0  0  0  0  0
M  END
$$$$

     RDKit          3D

  1  0  0  0  0  0  0  0  0  0999 V2000
    4.6750   12.1680    3.4630 I   0  0  0  0  0  0  0  0  0  0  0  0
M  END
$$$$

     RDKit          3D

  1  0  0  0  0  0  0  0  0  0999 V2000
    4.6750   12.1680    4.4630 I   0  0  0  0  0  0  0  0  0  0  0  0
M  END
$$$$

     RDKit          3D

  1  0  0  0  0  0  0  0  0  0999 V2000
    4.6750   12.1680    5.4630 I   0  0  0  0  0  0  0  0  0  0  0  0
M  END
$$$$

     RDKit          3D

  1  0  0  0  0  0  0  0  0  0999 V2000
    4.6750   12.1680    6.4630 I   0  0  0  0  0  0  0  0  0  0  0  0
M  END
$$$$

     RDKit          3D

  1  0  0  0  0  0  0  0  0  0999 V2000
    4.6750   12.1680    7.4630 I   0  0  0  0  0  0  0  0  0  0  0  0
M  END
$$$$

     RDKit          3D

  1  0  0  0  0  0  0  0  0  0999 V2000
    5.6750   12.1680   -0.5370 I   0  0  0  0  0  0  0  0  0  0  0  0
M  END
$$$$

     RDKit          3D

  1  0  0  0  0  0  0  0  0  0999 V2000
    5.6750   12.1680    0.4630 I   0  0  0  0  0  0  0  0  0  0  0  0
M  END
$$$$

     RDKit          3D

  1  0  0  0  0  0  0  0  0  0999 V2000
    5.6750   12.1680    1.4630 I   0  0  0  0  0  0  0  0  0  0  0  0
M  END
$$$$

     RDKit          3D

  1  0  0  0  0  0  0  0  0  0999 V2000
    5.6750   12.1680    2.4630 I   0  0  0  0  0  0  0  0  0  0  0  0
M  END
$$$$

     RDKit          3D

  1  0  0  0  0  0  0  0  0  0999 V2000
    5.6750   12.1680    3.4630 I   0  0  0  0  0  0  0  0  0  0  0  0
M  END
$$$$

     RDKit          3D

  1  0  0  0  0  0  0  0  0  0999 V2000
    5.6750   12.1680    4.4630 I   0  0  0  0  0  0  0  0  0  0  0  0
M  END
$$$$

     RDKit          3D

  1  0  0  0  0  0  0  0  0  0999 V2000
    5.6750   12.1680    5.4630 I   0  0  0  0  0  0  0  0  0  0  0  0
M  END
$$$$

     RDKit          3D

  1  0  0  0  0  0  0  0  0  0999 V2000
    5.6750   12.1680    6.4630 I   0  0  0  0  0  0  0  0  0  0  0  0
M  END
$$$$

     RDKit          3D

  1  0  0  0  0  0  0  0  0  0999 V2000
    5.6750   12.1680    7.4630 I   0  0  0  0  0  0  0  0  0  0  0  0
M  END
$$$$

     RDKit          3D

  1  0  0  0  0  0  0  0  0  0999 V2000
    6.6750   12.1680   -0.5370 I   0  0  0  0  0  0  0  0  0  0  0  0
M  END
$$$$

     RDKit          3D

  1  0  0  0  0  0  0  0  0  0999 V2000
    6.6750   12.1680    0.4630 I   0  0  0  0  0  0  0  0  0  0  0  0
M  END
$$$$

     RDKit          3D

  1  0  0  0  0  0  0  0  0  0999 V2000
    6.6750   12.1680    1.4630 I   0  0  0  0  0  0  0  0  0  0  0  0
M  END
$$$$

     RDKit          3D

  1  0  0  0  0  0  0  0  0  0999 V2000
    6.6750   12.1680    2.4630 I   0  0  0  0  0  0  0  0  0  0  0  0
M  END
$$$$

     RDKit          3D

  1  0  0  0  0  0  0  0  0  0999 V2000
    6.6750   12.1680    3.4630 I   0  0  0  0  0  0  0  0  0  0  0  0
M  END
$$$$

     RDKit          3D

  1  0  0  0  0  0  0  0  0  0999 V2000
    6.6750   12.1680    4.4630 I   0  0  0  0  0  0  0  0  0  0  0  0
M  END
$$$$

     RDKit          3D

  1  0  0  0  0  0  0  0  0  0999 V2000
    6.6750   12.1680    5.4630 I   0  0  0  0  0  0  0  0  0  0  0  0
M  END
$$$$

     RDKit          3D

  1  0  0  0  0  0  0  0  0  0999 V2000
    6.6750   12.1680    6.4630 I   0  0  0  0  0  0  0  0  0  0  0  0
M  END
$$$$

     RDKit          3D

  1  0  0  0  0  0  0  0  0  0999 V2000
    6.6750   12.1680    7.4630 I   0  0  0  0  0  0  0  0  0  0  0  0
M  END
$$$$

     RDKit          3D

  1  0  0  0  0  0  0  0  0  0999 V2000
    7.6750   12.1680   -0.5370 I   0  0  0  0  0  0  0  0  0  0  0  0
M  END
$$$$

     RDKit          3D

  1  0  0  0  0  0  0  0  0  0999 V2000
    7.6750   12.1680    0.4630 I   0  0  0  0  0  0  0  0  0  0  0  0
M  END
$$$$

     RDKit          3D

  1  0  0  0  0  0  0  0  0  0999 V2000
    7.6750   12.1680    1.4630 I   0  0  0  0  0  0  0  0  0  0  0  0
M  END
$$$$

     RDKit          3D

  1  0  0  0  0  0  0  0  0  0999 V2000
    7.6750   12.1680    2.4630 I   0  0  0  0  0  0  0  0  0  0  0  0
M  END
$$$$

     RDKit          3D

  1  0  0  0  0  0  0  0  0  0999 V2000
    7.6750   12.1680    3.4630 I   0  0  0  0  0  0  0  0  0  0  0  0
M  END
$$$$

     RDKit          3D

  1  0  0  0  0  0  0  0  0  0999 V2000
    7.6750   12.1680    4.4630 I   0  0  0  0  0  0  0  0  0  0  0  0
M  END
$$$$

     RDKit          3D

  1  0  0  0  0  0  0  0  0  0999 V2000
    7.6750   12.1680    5.4630 I   0  0  0  0  0  0  0  0  0  0  0  0
M  END
$$$$

     RDKit          3D

  1  0  0  0  0  0  0  0  0  0999 V2000
    7.6750   12.1680    6.4630 I   0  0  0  0  0  0  0  0  0  0  0  0
M  END
$$$$

     RDKit          3D

  1  0  0  0  0  0  0  0  0  0999 V2000
    7.6750   12.1680    7.4630 I   0  0  0  0  0  0  0  0  0  0  0  0
M  END
$$$$

     RDKit          3D

  1  0  0  0  0  0  0  0  0  0999 V2000
    8.6750   12.1680   -0.5370 I   0  0  0  0  0  0  0  0  0  0  0  0
M  END
$$$$

     RDKit          3D

  1  0  0  0  0  0  0  0  0  0999 V2000
    8.6750   12.1680    0.4630 I   0  0  0  0  0  0  0  0  0  0  0  0
M  END
$$$$

     RDKit          3D

  1  0  0  0  0  0  0  0  0  0999 V2000
    8.6750   12.1680    1.4630 I   0  0  0  0  0  0  0  0  0  0  0  0
M  END
$$$$

     RDKit          3D

  1  0  0  0  0  0  0  0  0  0999 V2000
    8.6750   12.1680    2.4630 I   0  0  0  0  0  0  0  0  0  0  0  0
M  END
$$$$

     RDKit          3D

  1  0  0  0  0  0  0  0  0  0999 V2000
    8.6750   12.1680    3.4630 I   0  0  0  0  0  0  0  0  0  0  0  0
M  END
$$$$

     RDKit          3D

  1  0  0  0  0  0  0  0  0  0999 V2000
    8.6750   12.1680    4.4630 I   0  0  0  0  0  0  0  0  0  0  0  0
M  END
$$$$

     RDKit          3D

  1  0  0  0  0  0  0  0  0  0999 V2000
    8.6750   12.1680    5.4630 I   0  0  0  0  0  0  0  0  0  0  0  0
M  END
$$$$

     RDKit          3D

  1  0  0  0  0  0  0  0  0  0999 V2000
    8.6750   12.1680    6.4630 I   0  0  0  0  0  0  0  0  0  0  0  0
M  END
$$$$

     RDKit          3D

  1  0  0  0  0  0  0  0  0  0999 V2000
    8.6750   12.1680    7.4630 I   0  0  0  0  0  0  0  0  0  0  0  0
M  END
$$$$

     RDKit          3D

  1  0  0  0  0  0  0  0  0  0999 V2000
    9.6750   12.1680   -0.5370 I   0  0  0  0  0  0  0  0  0  0  0  0
M  END
$$$$

     RDKit          3D

  1  0  0  0  0  0  0  0  0  0999 V2000
    9.6750   12.1680    0.4630 I   0  0  0  0  0  0  0  0  0  0  0  0
M  END
$$$$

     RDKit          3D

  1  0  0  0  0  0  0  0  0  0999 V2000
    9.6750   12.1680    1.4630 I   0  0  0  0  0  0  0  0  0  0  0  0
M  END
$$$$

     RDKit          3D

  1  0  0  0  0  0  0  0  0  0999 V2000
    9.6750   12.1680    2.4630 I   0  0  0  0  0  0  0  0  0  0  0  0
M  END
$$$$

     RDKit          3D

  1  0  0  0  0  0  0  0  0  0999 V2000
    9.6750   12.1680    3.4630 I   0  0  0  0  0  0  0  0  0  0  0  0
M  END
$$$$

     RDKit          3D

  1  0  0  0  0  0  0  0  0  0999 V2000
    9.6750   12.1680    4.4630 I   0  0  0  0  0  0  0  0  0  0  0  0
M  END
$$$$

     RDKit          3D

  1  0  0  0  0  0  0  0  0  0999 V2000
    9.6750   12.1680    5.4630 I   0  0  0  0  0  0  0  0  0  0  0  0
M  END
$$$$

     RDKit          3D

  1  0  0  0  0  0  0  0  0  0999 V2000
    9.6750   12.1680    6.4630 I   0  0  0  0  0  0  0  0  0  0  0  0
M  END
$$$$

     RDKit          3D

  1  0  0  0  0  0  0  0  0  0999 V2000
    9.6750   12.1680    7.4630 I   0  0  0  0  0  0  0  0  0  0  0  0
M  END
$$$$

     RDKit          3D

  1  0  0  0  0  0  0  0  0  0999 V2000
   10.6750   12.1680   -0.5370 I   0  0  0  0  0  0  0  0  0  0  0  0
M  END
$$$$

     RDKit          3D

  1  0  0  0  0  0  0  0  0  0999 V2000
   10.6750   12.1680    0.4630 I   0  0  0  0  0  0  0  0  0  0  0  0
M  END
$$$$

     RDKit          3D

  1  0  0  0  0  0  0  0  0  0999 V2000
   10.6750   12.1680    1.4630 I   0  0  0  0  0  0  0  0  0  0  0  0
M  END
$$$$

     RDKit          3D

  1  0  0  0  0  0  0  0  0  0999 V2000
   10.6750   12.1680    2.4630 I   0  0  0  0  0  0  0  0  0  0  0  0
M  END
$$$$

     RDKit          3D

  1  0  0  0  0  0  0  0  0  0999 V2000
   10.6750   12.1680    3.4630 I   0  0  0  0  0  0  0  0  0  0  0  0
M  END
$$$$

     RDKit          3D

  1  0  0  0  0  0  0  0  0  0999 V2000
   10.6750   12.1680    4.4630 I   0  0  0  0  0  0  0  0  0  0  0  0
M  END
$$$$

     RDKit          3D

  1  0  0  0  0  0  0  0  0  0999 V2000
   10.6750   12.1680    5.4630 I   0  0  0  0  0  0  0  0  0  0  0  0
M  END
$$$$

     RDKit          3D

  1  0  0  0  0  0  0  0  0  0999 V2000
   10.6750   12.1680    6.4630 I   0  0  0  0  0  0  0  0  0  0  0  0
M  END
$$$$

     RDKit          3D

  1  0  0  0  0  0  0  0  0  0999 V2000
   10.6750   12.1680    7.4630 I   0  0  0  0  0  0  0  0  0  0  0  0
M  END
$$$$

     RDKit          3D

  1  0  0  0  0  0  0  0  0  0999 V2000
    2.6750   13.1680   -0.5370 I   0  0  0  0  0  0  0  0  0  0  0  0
M  END
$$$$

     RDKit          3D

  1  0  0  0  0  0  0  0  0  0999 V2000
    2.6750   13.1680    0.4630 I   0  0  0  0  0  0  0  0  0  0  0  0
M  END
$$$$

     RDKit          3D

  1  0  0  0  0  0  0  0  0  0999 V2000
    2.6750   13.1680    1.4630 I   0  0  0  0  0  0  0  0  0  0  0  0
M  END
$$$$

     RDKit          3D

  1  0  0  0  0  0  0  0  0  0999 V2000
    2.6750   13.1680    2.4630 I   0  0  0  0  0  0  0  0  0  0  0  0
M  END
$$$$

     RDKit          3D

  1  0  0  0  0  0  0  0  0  0999 V2000
    2.6750   13.1680    3.4630 I   0  0  0  0  0  0  0  0  0  0  0  0
M  END
$$$$

     RDKit          3D

  1  0  0  0  0  0  0  0  0  0999 V2000
    2.6750   13.1680    4.4630 I   0  0  0  0  0  0  0  0  0  0  0  0
M  END
$$$$

     RDKit          3D

  1  0  0  0  0  0  0  0  0  0999 V2000
    2.6750   13.1680    5.4630 I   0  0  0  0  0  0  0  0  0  0  0  0
M  END
$$$$

     RDKit          3D

  1  0  0  0  0  0  0  0  0  0999 V2000
    2.6750   13.1680    6.4630 I   0  0  0  0  0  0  0  0  0  0  0  0
M  END
$$$$

     RDKit          3D

  1  0  0  0  0  0  0  0  0  0999 V2000
    2.6750   13.1680    7.4630 I   0  0  0  0  0  0  0  0  0  0  0  0
M  END
$$$$

     RDKit          3D

  1  0  0  0  0  0  0  0  0  0999 V2000
    3.6750   13.1680   -0.5370 I   0  0  0  0  0  0  0  0  0  0  0  0
M  END
$$$$

     RDKit          3D

  1  0  0  0  0  0  0  0  0  0999 V2000
    3.6750   13.1680    0.4630 I   0  0  0  0  0  0  0  0  0  0  0  0
M  END
$$$$

     RDKit          3D

  1  0  0  0  0  0  0  0  0  0999 V2000
    3.6750   13.1680    1.4630 I   0  0  0  0  0  0  0  0  0  0  0  0
M  END
$$$$

     RDKit          3D

  1  0  0  0  0  0  0  0  0  0999 V2000
    3.6750   13.1680    2.4630 I   0  0  0  0  0  0  0  0  0  0  0  0
M  END
$$$$

     RDKit          3D

  1  0  0  0  0  0  0  0  0  0999 V2000
    3.6750   13.1680    3.4630 I   0  0  0  0  0  0  0  0  0  0  0  0
M  END
$$$$

     RDKit          3D

  1  0  0  0  0  0  0  0  0  0999 V2000
    3.6750   13.1680    4.4630 I   0  0  0  0  0  0  0  0  0  0  0  0
M  END
$$$$

     RDKit          3D

  1  0  0  0  0  0  0  0  0  0999 V2000
    3.6750   13.1680    5.4630 I   0  0  0  0  0  0  0  0  0  0  0  0
M  END
$$$$

     RDKit          3D

  1  0  0  0  0  0  0  0  0  0999 V2000
    3.6750   13.1680    6.4630 I   0  0  0  0  0  0  0  0  0  0  0  0
M  END
$$$$

     RDKit          3D

  1  0  0  0  0  0  0  0  0  0999 V2000
    3.6750   13.1680    7.4630 I   0  0  0  0  0  0  0  0  0  0  0  0
M  END
$$$$

     RDKit          3D

  1  0  0  0  0  0  0  0  0  0999 V2000
    4.6750   13.1680   -0.5370 I   0  0  0  0  0  0  0  0  0  0  0  0
M  END
$$$$

     RDKit          3D

  1  0  0  0  0  0  0  0  0  0999 V2000
    4.6750   13.1680    0.4630 I   0  0  0  0  0  0  0  0  0  0  0  0
M  END
$$$$

     RDKit          3D

  1  0  0  0  0  0  0  0  0  0999 V2000
    4.6750   13.1680    1.4630 I   0  0  0  0  0  0  0  0  0  0  0  0
M  END
$$$$

     RDKit          3D

  1  0  0  0  0  0  0  0  0  0999 V2000
    4.6750   13.1680    2.4630 I   0  0  0  0  0  0  0  0  0  0  0  0
M  END
$$$$

     RDKit          3D

  1  0  0  0  0  0  0  0  0  0999 V2000
    4.6750   13.1680    3.4630 I   0  0  0  0  0  0  0  0  0  0  0  0
M  END
$$$$

     RDKit          3D

  1  0  0  0  0  0  0  0  0  0999 V2000
    4.6750   13.1680    4.4630 I   0  0  0  0  0  0  0  0  0  0  0  0
M  END
$$$$

     RDKit          3D

  1  0  0  0  0  0  0  0  0  0999 V2000
    4.6750   13.1680    5.4630 I   0  0  0  0  0  0  0  0  0  0  0  0
M  END
$$$$

     RDKit          3D

  1  0  0  0  0  0  0  0  0  0999 V2000
    4.6750   13.1680    6.4630 I   0  0  0  0  0  0  0  0  0  0  0  0
M  END
$$$$

     RDKit          3D

  1  0  0  0  0  0  0  0  0  0999 V2000
    4.6750   13.1680    7.4630 I   0  0  0  0  0  0  0  0  0  0  0  0
M  END
$$$$

     RDKit          3D

  1  0  0  0  0  0  0  0  0  0999 V2000
    5.6750   13.1680   -0.5370 I   0  0  0  0  0  0  0  0  0  0  0  0
M  END
$$$$

     RDKit          3D

  1  0  0  0  0  0  0  0  0  0999 V2000
    5.6750   13.1680    0.4630 I   0  0  0  0  0  0  0  0  0  0  0  0
M  END
$$$$

     RDKit          3D

  1  0  0  0  0  0  0  0  0  0999 V2000
    5.6750   13.1680    1.4630 I   0  0  0  0  0  0  0  0  0  0  0  0
M  END
$$$$

     RDKit          3D

  1  0  0  0  0  0  0  0  0  0999 V2000
    5.6750   13.1680    2.4630 I   0  0  0  0  0  0  0  0  0  0  0  0
M  END
$$$$

     RDKit          3D

  1  0  0  0  0  0  0  0  0  0999 V2000
    5.6750   13.1680    3.4630 I   0  0  0  0  0  0  0  0  0  0  0  0
M  END
$$$$

     RDKit          3D

  1  0  0  0  0  0  0  0  0  0999 V2000
    5.6750   13.1680    4.4630 I   0  0  0  0  0  0  0  0  0  0  0  0
M  END
$$$$

     RDKit          3D

  1  0  0  0  0  0  0  0  0  0999 V2000
    5.6750   13.1680    5.4630 I   0  0  0  0  0  0  0  0  0  0  0  0
M  END
$$$$

     RDKit          3D

  1  0  0  0  0  0  0  0  0  0999 V2000
    5.6750   13.1680    6.4630 I   0  0  0  0  0  0  0  0  0  0  0  0
M  END
$$$$

     RDKit          3D

  1  0  0  0  0  0  0  0  0  0999 V2000
    5.6750   13.1680    7.4630 I   0  0  0  0  0  0  0  0  0  0  0  0
M  END
$$$$

     RDKit          3D

  1  0  0  0  0  0  0  0  0  0999 V2000
    6.6750   13.1680   -0.5370 I   0  0  0  0  0  0  0  0  0  0  0  0
M  END
$$$$

     RDKit          3D

  1  0  0  0  0  0  0  0  0  0999 V2000
    6.6750   13.1680    0.4630 I   0  0  0  0  0  0  0  0  0  0  0  0
M  END
$$$$

     RDKit          3D

  1  0  0  0  0  0  0  0  0  0999 V2000
    6.6750   13.1680    1.4630 I   0  0  0  0  0  0  0  0  0  0  0  0
M  END
$$$$

     RDKit          3D

  1  0  0  0  0  0  0  0  0  0999 V2000
    6.6750   13.1680    2.4630 I   0  0  0  0  0  0  0  0  0  0  0  0
M  END
$$$$

     RDKit          3D

  1  0  0  0  0  0  0  0  0  0999 V2000
    6.6750   13.1680    3.4630 I   0  0  0  0  0  0  0  0  0  0  0  0
M  END
$$$$

     RDKit          3D

  1  0  0  0  0  0  0  0  0  0999 V2000
    6.6750   13.1680    4.4630 I   0  0  0  0  0  0  0  0  0  0  0  0
M  END
$$$$

     RDKit          3D

  1  0  0  0  0  0  0  0  0  0999 V2000
    6.6750   13.1680    5.4630 I   0  0  0  0  0  0  0  0  0  0  0  0
M  END
$$$$

     RDKit          3D

  1  0  0  0  0  0  0  0  0  0999 V2000
    6.6750   13.1680    6.4630 I   0  0  0  0  0  0  0  0  0  0  0  0
M  END
$$$$

     RDKit          3D

  1  0  0  0  0  0  0  0  0  0999 V2000
    6.6750   13.1680    7.4630 I   0  0  0  0  0  0  0  0  0  0  0  0
M  END
$$$$

     RDKit          3D

  1  0  0  0  0  0  0  0  0  0999 V2000
    7.6750   13.1680   -0.5370 I   0  0  0  0  0  0  0  0  0  0  0  0
M  END
$$$$

     RDKit          3D

  1  0  0  0  0  0  0  0  0  0999 V2000
    7.6750   13.1680    0.4630 I   0  0  0  0  0  0  0  0  0  0  0  0
M  END
$$$$

     RDKit          3D

  1  0  0  0  0  0  0  0  0  0999 V2000
    7.6750   13.1680    1.4630 I   0  0  0  0  0  0  0  0  0  0  0  0
M  END
$$$$

     RDKit          3D

  1  0  0  0  0  0  0  0  0  0999 V2000
    7.6750   13.1680    2.4630 I   0  0  0  0  0  0  0  0  0  0  0  0
M  END
$$$$

     RDKit          3D

  1  0  0  0  0  0  0  0  0  0999 V2000
    7.6750   13.1680    3.4630 I   0  0  0  0  0  0  0  0  0  0  0  0
M  END
$$$$

     RDKit          3D

  1  0  0  0  0  0  0  0  0  0999 V2000
    7.6750   13.1680    4.4630 I   0  0  0  0  0  0  0  0  0  0  0  0
M  END
$$$$

     RDKit          3D

  1  0  0  0  0  0  0  0  0  0999 V2000
    7.6750   13.1680    5.4630 I   0  0  0  0  0  0  0  0  0  0  0  0
M  END
$$$$

     RDKit          3D

  1  0  0  0  0  0  0  0  0  0999 V2000
    7.6750   13.1680    6.4630 I   0  0  0  0  0  0  0  0  0  0  0  0
M  END
$$$$

     RDKit          3D

  1  0  0  0  0  0  0  0  0  0999 V2000
    7.6750   13.1680    7.4630 I   0  0  0  0  0  0  0  0  0  0  0  0
M  END
$$$$

     RDKit          3D

  1  0  0  0  0  0  0  0  0  0999 V2000
    8.6750   13.1680   -0.5370 I   0  0  0  0  0  0  0  0  0  0  0  0
M  END
$$$$

     RDKit          3D

  1  0  0  0  0  0  0  0  0  0999 V2000
    8.6750   13.1680    0.4630 I   0  0  0  0  0  0  0  0  0  0  0  0
M  END
$$$$

     RDKit          3D

  1  0  0  0  0  0  0  0  0  0999 V2000
    8.6750   13.1680    1.4630 I   0  0  0  0  0  0  0  0  0  0  0  0
M  END
$$$$

     RDKit          3D

  1  0  0  0  0  0  0  0  0  0999 V2000
    8.6750   13.1680    2.4630 I   0  0  0  0  0  0  0  0  0  0  0  0
M  END
$$$$

     RDKit          3D

  1  0  0  0  0  0  0  0  0  0999 V2000
    8.6750   13.1680    3.4630 I   0  0  0  0  0  0  0  0  0  0  0  0
M  END
$$$$

     RDKit          3D

  1  0  0  0  0  0  0  0  0  0999 V2000
    8.6750   13.1680    4.4630 I   0  0  0  0  0  0  0  0  0  0  0  0
M  END
$$$$

     RDKit          3D

  1  0  0  0  0  0  0  0  0  0999 V2000
    8.6750   13.1680    5.4630 I   0  0  0  0  0  0  0  0  0  0  0  0
M  END
$$$$

     RDKit          3D

  1  0  0  0  0  0  0  0  0  0999 V2000
    8.6750   13.1680    6.4630 I   0  0  0  0  0  0  0  0  0  0  0  0
M  END
$$$$

     RDKit          3D

  1  0  0  0  0  0  0  0  0  0999 V2000
    8.6750   13.1680    7.4630 I   0  0  0  0  0  0  0  0  0  0  0  0
M  END
$$$$

     RDKit          3D

  1  0  0  0  0  0  0  0  0  0999 V2000
    9.6750   13.1680   -0.5370 I   0  0  0  0  0  0  0  0  0  0  0  0
M  END
$$$$

     RDKit          3D

  1  0  0  0  0  0  0  0  0  0999 V2000
    9.6750   13.1680    0.4630 I   0  0  0  0  0  0  0  0  0  0  0  0
M  END
$$$$

     RDKit          3D

  1  0  0  0  0  0  0  0  0  0999 V2000
    9.6750   13.1680    1.4630 I   0  0  0  0  0  0  0  0  0  0  0  0
M  END
$$$$

     RDKit          3D

  1  0  0  0  0  0  0  0  0  0999 V2000
    9.6750   13.1680    2.4630 I   0  0  0  0  0  0  0  0  0  0  0  0
M  END
$$$$

     RDKit          3D

  1  0  0  0  0  0  0  0  0  0999 V2000
    9.6750   13.1680    3.4630 I   0  0  0  0  0  0  0  0  0  0  0  0
M  END
$$$$

     RDKit          3D

  1  0  0  0  0  0  0  0  0  0999 V2000
    9.6750   13.1680    4.4630 I   0  0  0  0  0  0  0  0  0  0  0  0
M  END
$$$$

     RDKit          3D

  1  0  0  0  0  0  0  0  0  0999 V2000
    9.6750   13.1680    5.4630 I   0  0  0  0  0  0  0  0  0  0  0  0
M  END
$$$$

     RDKit          3D

  1  0  0  0  0  0  0  0  0  0999 V2000
    9.6750   13.1680    6.4630 I   0  0  0  0  0  0  0  0  0  0  0  0
M  END
$$$$

     RDKit          3D

  1  0  0  0  0  0  0  0  0  0999 V2000
    9.6750   13.1680    7.4630 I   0  0  0  0  0  0  0  0  0  0  0  0
M  END
$$$$

     RDKit          3D

  1  0  0  0  0  0  0  0  0  0999 V2000
   10.6750   13.1680   -0.5370 I   0  0  0  0  0  0  0  0  0  0  0  0
M  END
$$$$

     RDKit          3D

  1  0  0  0  0  0  0  0  0  0999 V2000
   10.6750   13.1680    0.4630 I   0  0  0  0  0  0  0  0  0  0  0  0
M  END
$$$$

     RDKit          3D

  1  0  0  0  0  0  0  0  0  0999 V2000
   10.6750   13.1680    1.4630 I   0  0  0  0  0  0  0  0  0  0  0  0
M  END
$$$$

     RDKit          3D

  1  0  0  0  0  0  0  0  0  0999 V2000
   10.6750   13.1680    2.4630 I   0  0  0  0  0  0  0  0  0  0  0  0
M  END
$$$$

     RDKit          3D

  1  0  0  0  0  0  0  0  0  0999 V2000
   10.6750   13.1680    3.4630 I   0  0  0  0  0  0  0  0  0  0  0  0
M  END
$$$$

     RDKit          3D

  1  0  0  0  0  0  0  0  0  0999 V2000
   10.6750   13.1680    4.4630 I   0  0  0  0  0  0  0  0  0  0  0  0
M  END
$$$$

     RDKit          3D

  1  0  0  0  0  0  0  0  0  0999 V2000
   10.6750   13.1680    5.4630 I   0  0  0  0  0  0  0  0  0  0  0  0
M  END
$$$$

     RDKit          3D

  1  0  0  0  0  0  0  0  0  0999 V2000
   10.6750   13.1680    6.4630 I   0  0  0  0  0  0  0  0  0  0  0  0
M  END
$$$$

     RDKit          3D

  1  0  0  0  0  0  0  0  0  0999 V2000
   10.6750   13.1680    7.4630 I   0  0  0  0  0  0  0  0  0  0  0  0
M  END
$$$$
