unknown|pharmsElabsTestMulti|sdf|10|dock6
     RDKit          3D

 18 19  0  0  0  0  0  0  0  0999 V2000
   13.6651    6.8050    3.6247 C   0  0  0  0  0  0  0  0  0  0  0  0
   13.5738    7.8376    2.4839 C   0  0  0  0  0  0  0  0  0  0  0  0
   13.9666    7.1985    1.2219 N   0  0  0  0  0  0  0  0  0  0  0  0
   12.1386    8.4334    2.4176 C   0  0  0  0  0  0  0  0  0  0  0  0
   11.1211    7.3074    2.1448 C   0  0  0  0  0  0  0  0  0  0  0  0
    9.7436    7.8971    1.9140 C   0  0  0  0  0  0  0  0  0  0  0  0
    9.2974    8.6802    3.1498 C   0  0  0  0  0  0  0  0  0  0  0  0
    7.9517    9.2528    2.8968 C   0  0  0  0  0  0  0  0  0  0  0  0
    7.6710   10.4203    3.2924 O   0  0  0  0  0  0  0  0  0  0  0  0
    6.9835    8.4822    2.2034 N   0  0  0  0  0  0  0  0  0  0  0  0
    5.6433    8.9951    2.1132 C   0  0  0  0  0  0  0  0  0  0  0  0
    5.0379    9.2299    3.4621 C   0  0  0  0  0  0  0  0  0  0  0  0
    3.5989    8.8982    3.6517 C   0  0  0  0  0  0  0  0  0  0  0  0
    3.1435    9.9180    4.5782 N   0  0  0  0  0  0  0  0  0  0  0  0
    4.2018   10.0947    5.5961 C   0  0  0  0  0  0  0  0  0  0  0  0
    5.8126    9.3497    5.0598 S   0  0  0  0  0  0  0  0  0  0  0  0
   10.2977    9.7868    3.5207 C   0  0  0  0  0  0  0  0  0  0  0  0
   11.7102    9.2095    3.6881 C   0  0  0  0  0  0  0  0  0  0  0  0
  1  2  1  0
  2  3  1  0
  2  4  1  0
  4  5  1  0
  5  6  1  0
  6  7  1  0
  7  8  1  0
  8  9  2  0
  8 10  1  0
 10 11  1  0
 11 12  1  0
 12 13  1  0
 13 14  1  0
 14 15  1  0
 15 16  1  0
  7 17  1  0
 17 18  1  0
 18  4  1  0
 16 12  1  0
M  CHG  1   3   1
M  END
>  <EmbedRMS>  (1) 
0.20460526756107406

>  <Gold.Version>  (1) 
2020.3.0

>  <Gold.Id.Protein>  (1) 
unknown|1q8t_protein|pdb

>  <Gold.PLP.Fitness>  (1) 
55.9949

>  <Gold.PLP.PLP>  (1) 
-42.9582

>  <Gold.PLP.part.hbond>  (1) 
-4.0000

>  <Gold.PLP.part.metal>  (1) 
0.0000

>  <Gold.PLP.part.buried>  (1) 
-2.3152

>  <Gold.PLP.part.nonpolar>  (1) 
-37.0615

>  <Gold.PLP.part.repulsive>  (1) 
0.0472

>  <Gold.PLP.ligand.clash>  (1) 
0.0000

>  <Gold.PLP.ligand.torsion>  (1) 
1.0964

>  <Gold.PLP.Chemscore.Hbond>  (1) 
4.9500

>  <Gold.PLP.Chemscore.CHOScore>  (1) 
0.0000

>  <Gold.PLP.Chemscore.Metal>  (1) 
0.0000

>  <Gold.Chemscore.Hbonds>  (1) 
donor molecule, donor type, donor heavy atom, donor atom, acceptor molecule, acceptor atom, score
      L1  H     3    23       P1  2691  1.00
      L1  H     3    25       P1  2902  2.00
      L1  H    10    32       P1  2887  0.95
      P1  H  1888  1903       L1    14  1.00

>  <Gold.PLP.Chemscore.Internal.Correction>  (1) 
0.3794

>  <Gold.PLP.Constraint>  (1) 
-0.0000

>  <Gold.Protein.RotatedTorsions>  (1) 
[  681  677  676  673 ] final -126.91 input -179.99 | X-H torsion
[  702  698  697  694 ] final -173.88 input  179.99 | X-H torsion
[ 2577 2569 2568 2566 ] final -121.63 input   -0.13 | X-H torsion
[ 2891 2887 2886 2883 ] final  -73.28 input  179.98 | X-H torsion
[ 3175 3171 3170 3167 ] final   54.34 input -179.99 | X-H torsion
[ 5278 5270 5269 5267 ] final  177.10 input    0.55 | X-H torsion
[  641  637  636  633 ] final  -69.50 input  179.99 | X-H torsion
[ 1886 1878 1877 1875 ] final   10.95 input    1.60 | X-H torsion
[  965  957  956  954 ] final  -22.34 input    0.45 | X-H torsion

>  <Gold.Protein.ActiveResidues>  (1) 
 LYS47   THR48   LEU49   GLY50   THR51   GLY52   SER53   PHE54   GLY55   ARG56  
 VAL57   MET58   LEU59   TYR69   ALA70   MET71   LYS72   ILE73   LEU74   GLU91  
 LEU95   VAL104  LYS105  MET118  VAL119  MET120  GLU121  TYR122  VAL123  PRO124 
 GLY125  GLY126  GLU127  MET128  PHE129  TYR164  ASP166  LEU167  LYS168  PRO169 
 GLU170  ASN171  LEU172  LEU173  ILE174  GLN181  VAL182  THR183  ASP184  PHE185 
 GLY186  PHE187  GLY200  THR201  ASN326  PHE327  TYR330  ARG18   ARG19   ASN20  
 ALA21   ILE22   HIS23  

>  <Gold.Protein.RotatedAtoms>  (1) 
   10.2960   18.9559    7.2799 H   0  0  0  0  0  0  0  0  0  0  0  0  # atno 641  bound_to 637 
   16.2934   13.8578    7.4028 H   0  0  0  0  0  0  0  0  0  0  0  0  # atno 681  bound_to 677 
   21.0175   11.5730   -1.5475 H   0  0  0  0  0  0  0  0  0  0  0  0  # atno 702  bound_to 698 
   -6.5876   15.5542   -1.2868 H   0  0  0  0  0  0  0  0  0  0  0  0  # atno 965  bound_to 957 
    2.2534   11.4843   10.3356 H   0  0  0  0  0  0  0  0  0  0  0  0  # atno 1886 bound_to 1878
   11.0699    2.6176   -2.8218 H   0  0  0  0  0  0  0  0  0  0  0  0  # atno 2577 bound_to 2569
    7.3738    5.2886    1.1452 H   0  0  0  0  0  0  0  0  0  0  0  0  # atno 2891 bound_to 2887
   18.4962    2.2621   -1.3713 H   0  0  0  0  0  0  0  0  0  0  0  0  # atno 3175 bound_to 3171
   14.3835   10.0994    9.3509 H   0  0  0  0  0  0  0  0  0  0  0  0  # atno 5278 bound_to 5270
   17.2490   13.2824    6.2661 LP  0  0  0  0  0  0  0  0  0  0  0  0  # atno 5914 bound_to 677 
   15.7759   12.6294    6.5313 LP  0  0  0  0  0  0  0  0  0  0  0  0  # atno 5915 bound_to 677 
   19.4494   11.8360   -1.6431 LP  0  0  0  0  0  0  0  0  0  0  0  0  # atno 5920 bound_to 698 
   20.1847   11.6776   -0.1937 LP  0  0  0  0  0  0  0  0  0  0  0  0  # atno 5921 bound_to 698 
    9.6539    1.9830   -2.4645 LP  0  0  0  0  0  0  0  0  0  0  0  0  # atno 5950 bound_to 2569
    9.7609    3.3251   -3.3886 LP  0  0  0  0  0  0  0  0  0  0  0  0  # atno 5951 bound_to 2569
    7.5358    6.8584    1.3591 LP  0  0  0  0  0  0  0  0  0  0  0  0  # atno 5982 bound_to 2887
    8.3785    6.0805    0.1966 LP  0  0  0  0  0  0  0  0  0  0  0  0  # atno 5983 bound_to 2887
   19.3555    3.0614   -0.2950 LP  0  0  0  0  0  0  0  0  0  0  0  0  # atno 6000 bound_to 3171
   18.0672    2.1667    0.1592 LP  0  0  0  0  0  0  0  0  0  0  0  0  # atno 6001 bound_to 3171
   12.8325   10.1543    8.9931 LP  0  0  0  0  0  0  0  0  0  0  0  0  # atno 6004 bound_to 5270
   13.3305    9.7867   10.5042 LP  0  0  0  0  0  0  0  0  0  0  0  0  # atno 6005 bound_to 5270
   11.3606   19.4616    8.3503 LP  0  0  0  0  0  0  0  0  0  0  0  0  # atno 6055 bound_to 637 
    9.7604   19.6760    8.5950 LP  0  0  0  0  0  0  0  0  0  0  0  0  # atno 6056 bound_to 637 
    1.0041   10.5895   10.7527 LP  0  0  0  0  0  0  0  0  0  0  0  0  # atno 6063 bound_to 1878
    1.0091   12.1996   11.0251 LP  0  0  0  0  0  0  0  0  0  0  0  0  # atno 6064 bound_to 1878
   -6.6612   17.1371   -1.1315 LP  0  0  0  0  0  0  0  0  0  0  0  0  # atno 6067 bound_to 957 
   -7.2088   16.1532    0.0512 LP  0  0  0  0  0  0  0  0  0  0  0  0  # atno 6068 bound_to 957 

>  <STRIFE_LigEff_Score>  (1) 
3.1108277777777777

$$$$
unknown|pharmsElabsTestMulti|sdf|11|dock8
     RDKit          3D

 17 17  0  0  0  0  0  0  0  0999 V2000
   14.5549    7.6837    3.4627 C   0  0  0  0  0  0  0  0  0  0  0  0
   13.3397    7.6129    2.5393 C   0  0  0  0  0  0  0  0  0  0  0  0
   13.4899    8.4697    1.3612 N   0  0  0  0  0  0  0  0  0  0  0  0
   11.9284    7.7129    3.1689 C   0  0  0  0  0  0  0  0  0  0  0  0
   10.8246    7.0775    2.3110 C   0  0  0  0  0  0  0  0  0  0  0  0
    9.4004    7.5157    2.6085 C   0  0  0  0  0  0  0  0  0  0  0  0
    9.2911    8.9954    2.8753 C   0  0  0  0  0  0  0  0  0  0  0  0
    7.8842    9.5136    2.8581 C   0  0  0  0  0  0  0  0  0  0  0  0
    7.4615    9.9310    3.9632 O   0  0  0  0  0  0  0  0  0  0  0  0
    7.0117    9.5497    1.7154 N   0  0  0  0  0  0  0  0  0  0  0  0
    5.6023    9.9390    1.8708 C   0  0  0  0  0  0  0  0  0  0  0  0
    4.8477    8.9065    2.7223 C   0  0  0  0  0  0  0  0  0  0  0  0
    4.9734    9.2026    4.1485 N   0  0  0  0  0  0  0  0  0  0  0  0
    3.8545    9.6439    4.9235 C   0  0  0  0  0  0  0  0  0  0  0  0
    2.7223    9.8008    4.3930 O   0  0  0  0  0  0  0  0  0  0  0  0
   10.2158    9.5573    3.9191 C   0  0  0  0  0  0  0  0  0  0  0  0
   11.6693    9.1550    3.6798 C   0  0  0  0  0  0  0  0  0  0  0  0
  1  2  1  0
  2  3  1  0
  2  4  1  0
  4  5  1  0
  5  6  1  0
  6  7  1  0
  7  8  1  0
  8  9  2  0
  8 10  1  0
 10 11  1  0
 11 12  1  0
 12 13  1  0
 13 14  1  0
 14 15  2  0
  7 16  1  0
 16 17  1  0
 17  4  1  0
M  CHG  1   3   1
M  END
>  <EmbedRMS>  (2) 
0.30207850723488733

>  <Gold.Version>  (2) 
2020.3.0

>  <Gold.Id.Protein>  (2) 
unknown|1q8t_protein|pdb

>  <Gold.PLP.Fitness>  (2) 
44.6415

>  <Gold.PLP.PLP>  (2) 
-36.6003

>  <Gold.PLP.part.hbond>  (2) 
-1.9476

>  <Gold.PLP.part.metal>  (2) 
0.0000

>  <Gold.PLP.part.buried>  (2) 
-4.4105

>  <Gold.PLP.part.nonpolar>  (2) 
-30.2103

>  <Gold.PLP.part.repulsive>  (2) 
0.1862

>  <Gold.PLP.ligand.clash>  (2) 
0.0000

>  <Gold.PLP.ligand.torsion>  (2) 
0.7850

>  <Gold.PLP.Chemscore.Hbond>  (2) 
3.0000

>  <Gold.PLP.Chemscore.CHOScore>  (2) 
0.0000

>  <Gold.PLP.Chemscore.Metal>  (2) 
0.0000

>  <Gold.Chemscore.Hbonds>  (2) 
donor molecule, donor type, donor heavy atom, donor atom, acceptor molecule, acceptor atom, score
      L1  H     3    22       P1  2902  2.00
      P1  H  1888  1903       L1    15  1.00

>  <Gold.PLP.Chemscore.Internal.Correction>  (2) 
0.6111

>  <Gold.PLP.Constraint>  (2) 
-0.0000

>  <Gold.Protein.RotatedTorsions>  (2) 
[  681  677  676  673 ] final  135.23 input -179.99 | X-H torsion
[  702  698  697  694 ] final -173.08 input  179.99 | X-H torsion
[ 2577 2569 2568 2566 ] final -135.18 input   -0.13 | X-H torsion
[ 2891 2887 2886 2883 ] final  149.52 input  179.98 | X-H torsion
[ 3175 3171 3170 3167 ] final  167.03 input -179.99 | X-H torsion
[ 5278 5270 5269 5267 ] final  147.98 input    0.55 | X-H torsion
[  641  637  636  633 ] final   27.04 input  179.99 | X-H torsion
[ 1886 1878 1877 1875 ] final   38.78 input    1.60 | X-H torsion
[  965  957  956  954 ] final  -18.35 input    0.45 | X-H torsion

>  <Gold.Protein.ActiveResidues>  (2) 
 LYS47   THR48   LEU49   GLY50   THR51   GLY52   SER53   PHE54   GLY55   ARG56  
 VAL57   MET58   LEU59   TYR69   ALA70   MET71   LYS72   ILE73   LEU74   GLU91  
 LEU95   VAL104  LYS105  MET118  VAL119  MET120  GLU121  TYR122  VAL123  PRO124 
 GLY125  GLY126  GLU127  MET128  PHE129  TYR164  ASP166  LEU167  LYS168  PRO169 
 GLU170  ASN171  LEU172  LEU173  ILE174  GLN181  VAL182  THR183  ASP184  PHE185 
 GLY186  PHE187  GLY200  THR201  ASN326  PHE327  TYR330  ARG18   ARG19   ASN20  
 ALA21   ILE22   HIS23  

>  <Gold.Protein.RotatedAtoms>  (2) 
    9.6168   19.5091    8.2890 H   0  0  0  0  0  0  0  0  0  0  0  0  # atno 641  bound_to 637 
   17.2520   13.5489    6.5028 H   0  0  0  0  0  0  0  0  0  0  0  0  # atno 681  bound_to 677 
   21.0231   11.5718   -1.5364 H   0  0  0  0  0  0  0  0  0  0  0  0  # atno 702  bound_to 698 
   -6.6091   15.5184   -1.2405 H   0  0  0  0  0  0  0  0  0  0  0  0  # atno 965  bound_to 957 
    2.1597   11.8898   10.4461 H   0  0  0  0  0  0  0  0  0  0  0  0  # atno 1886 bound_to 1878
   11.0313    2.4456   -2.7052 H   0  0  0  0  0  0  0  0  0  0  0  0  # atno 2577 bound_to 2569
    7.7084    6.9229    1.1492 H   0  0  0  0  0  0  0  0  0  0  0  0  # atno 2891 bound_to 2887
   18.0490    2.1162    0.0437 H   0  0  0  0  0  0  0  0  0  0  0  0  # atno 3175 bound_to 3171
   14.1427   10.1882    8.9807 H   0  0  0  0  0  0  0  0  0  0  0  0  # atno 5278 bound_to 5270
   16.0329   12.5467    6.2900 LP  0  0  0  0  0  0  0  0  0  0  0  0  # atno 5914 bound_to 677 
   15.9831   13.6902    7.4547 LP  0  0  0  0  0  0  0  0  0  0  0  0  # atno 5915 bound_to 677 
   19.4565   11.8349   -1.6541 LP  0  0  0  0  0  0  0  0  0  0  0  0  # atno 5920 bound_to 698 
   20.1718   11.6799   -0.1944 LP  0  0  0  0  0  0  0  0  0  0  0  0  # atno 5921 bound_to 698 
    9.4851    2.0960   -2.5554 LP  0  0  0  0  0  0  0  0  0  0  0  0  # atno 5950 bound_to 2569
    9.9703    3.3932   -3.4205 LP  0  0  0  0  0  0  0  0  0  0  0  0  # atno 5951 bound_to 2569
    8.3219    5.8043    0.1960 LP  0  0  0  0  0  0  0  0  0  0  0  0  # atno 5982 bound_to 2887
    7.2402    5.4147    1.3556 LP  0  0  0  0  0  0  0  0  0  0  0  0  # atno 5983 bound_to 2887
   18.5739    2.3320   -1.4441 LP  0  0  0  0  0  0  0  0  0  0  0  0  # atno 6000 bound_to 3171
   19.3194    3.0496   -0.1808 LP  0  0  0  0  0  0  0  0  0  0  0  0  # atno 6001 bound_to 3171
   12.6123   10.0516    9.4000 LP  0  0  0  0  0  0  0  0  0  0  0  0  # atno 6004 bound_to 5270
   13.8040    9.7960   10.4868 LP  0  0  0  0  0  0  0  0  0  0  0  0  # atno 6005 bound_to 5270
   10.6706   18.9347    7.2428 LP  0  0  0  0  0  0  0  0  0  0  0  0  # atno 6055 bound_to 637 
   11.1658   19.6203    8.6397 LP  0  0  0  0  0  0  0  0  0  0  0  0  # atno 6056 bound_to 637 
    1.4032   10.4934   10.5604 LP  0  0  0  0  0  0  0  0  0  0  0  0  # atno 6063 bound_to 1878
    0.7086   11.8688   11.1012 LP  0  0  0  0  0  0  0  0  0  0  0  0  # atno 6064 bound_to 1878
   -6.6367   17.1094   -1.1858 LP  0  0  0  0  0  0  0  0  0  0  0  0  # atno 6067 bound_to 957 
   -7.2107   16.2186    0.0567 LP  0  0  0  0  0  0  0  0  0  0  0  0  # atno 6068 bound_to 957 

>  <STRIFE_LigEff_Score>  (2) 
2.625970588235294

$$$$
unknown|pharmsElabsTestMulti|sdf|12|dock3
     RDKit          3D

 18 19  0  0  0  0  0  0  0  0999 V2000
   14.4343    8.0260    3.2292 C   0  0  0  0  0  0  0  0  0  0  0  0
   13.4882    8.0429    2.0167 C   0  0  0  0  0  0  0  0  0  0  0  0
   13.8271    6.9520    1.0978 N   0  0  0  0  0  0  0  0  0  0  0  0
   11.9507    8.1084    2.3329 C   0  0  0  0  0  0  0  0  0  0  0  0
   11.0573    7.6773    1.1709 C   0  0  0  0  0  0  0  0  0  0  0  0
    9.5649    7.6850    1.4650 C   0  0  0  0  0  0  0  0  0  0  0  0
    9.1255    8.8845    2.2702 C   0  0  0  0  0  0  0  0  0  0  0  0
    7.6357    9.0673    2.3264 C   0  0  0  0  0  0  0  0  0  0  0  0
    6.9959    8.0455    2.6770 O   0  0  0  0  0  0  0  0  0  0  0  0
    6.9074   10.2701    2.0209 N   0  0  0  0  0  0  0  0  0  0  0  0
    5.4364   10.2142    2.0364 C   0  0  0  0  0  0  0  0  0  0  0  0
    4.8976    9.9855    3.4077 C   0  0  0  0  0  0  0  0  0  0  0  0
    3.5962    9.7643    3.6753 N   0  0  0  0  0  0  0  0  0  0  0  0
    3.6029    9.6498    5.0206 C   0  0  0  0  0  0  0  0  0  0  0  0
    4.8364    9.7941    5.5441 N   0  0  0  0  0  0  0  0  0  0  0  0
    5.6437   10.0041    4.5221 N   0  0  0  0  0  0  0  0  0  0  0  0
    9.9308    9.2268    3.5033 C   0  0  0  0  0  0  0  0  0  0  0  0
   11.4380    9.2717    3.2045 C   0  0  0  0  0  0  0  0  0  0  0  0
  1  2  1  0
  2  3  1  0
  2  4  1  0
  4  5  1  0
  5  6  1  0
  6  7  1  0
  7  8  1  0
  8  9  2  0
  8 10  1  0
 10 11  1  0
 11 12  1  0
 12 13  2  0
 13 14  1  0
 14 15  2  0
 15 16  1  0
  7 17  1  0
 17 18  1  0
 18  4  1  0
 16 12  1  0
M  CHG  1   3   1
M  END
>  <EmbedRMS>  (3) 
0.26092352120004825

>  <Gold.Version>  (3) 
2020.3.0

>  <Gold.Id.Protein>  (3) 
unknown|1q8t_protein|pdb

>  <Gold.PLP.Fitness>  (3) 
44.9507

>  <Gold.PLP.PLP>  (3) 
-30.6616

>  <Gold.PLP.part.hbond>  (3) 
-3.0000

>  <Gold.PLP.part.metal>  (3) 
0.0000

>  <Gold.PLP.part.buried>  (3) 
0.6101

>  <Gold.PLP.part.nonpolar>  (3) 
-28.6400

>  <Gold.PLP.part.repulsive>  (3) 
0.2152

>  <Gold.PLP.ligand.clash>  (3) 
0.0000

>  <Gold.PLP.ligand.torsion>  (3) 
0.7694

>  <Gold.PLP.Chemscore.Hbond>  (3) 
4.0000

>  <Gold.PLP.Chemscore.CHOScore>  (3) 
0.9984

>  <Gold.PLP.Chemscore.Metal>  (3) 
0.0000

>  <Gold.Chemscore.Hbonds>  (3) 
donor molecule, donor type, donor heavy atom, donor atom, acceptor molecule, acceptor atom, score
      L1  H     3    23       P1  2691  1.00
      L1  H     3    25       P1  2902  2.00
      P1  H  2887  2891       L1     9  1.00
      L1  C    14    35       P1  1891  1.00

>  <Gold.PLP.Chemscore.Internal.Correction>  (3) 
0.8326

>  <Gold.PLP.Constraint>  (3) 
-0.0000

>  <Gold.Protein.RotatedTorsions>  (3) 
[  681  677  676  673 ] final   22.78 input -179.99 | X-H torsion
[  702  698  697  694 ] final  -61.47 input  179.99 | X-H torsion
[ 2577 2569 2568 2566 ] final  -69.24 input   -0.13 | X-H torsion
[ 2891 2887 2886 2883 ] final  172.40 input  179.98 | X-H torsion
[ 3175 3171 3170 3167 ] final -143.98 input -179.99 | X-H torsion
[ 5278 5270 5269 5267 ] final  175.95 input    0.55 | X-H torsion
[  641  637  636  633 ] final  179.39 input  179.99 | X-H torsion
[ 1886 1878 1877 1875 ] final   36.39 input    1.60 | X-H torsion
[  965  957  956  954 ] final -112.82 input    0.45 | X-H torsion

>  <Gold.Protein.ActiveResidues>  (3) 
 LYS47   THR48   LEU49   GLY50   THR51   GLY52   SER53   PHE54   GLY55   ARG56  
 VAL57   MET58   LEU59   TYR69   ALA70   MET71   LYS72   ILE73   LEU74   GLU91  
 LEU95   VAL104  LYS105  MET118  VAL119  MET120  GLU121  TYR122  VAL123  PRO124 
 GLY125  GLY126  GLU127  MET128  PHE129  TYR164  ASP166  LEU167  LYS168  PRO169 
 GLU170  ASN171  LEU172  LEU173  ILE174  GLN181  VAL182  THR183  ASP184  PHE185 
 GLY186  PHE187  GLY200  THR201  ASN326  PHE327  TYR330  ARG18   ARG19   ASN20  
 ALA21   ILE22   HIS23  

>  <Gold.Protein.RotatedAtoms>  (3) 
   11.3494   19.3792    8.2241 H   0  0  0  0  0  0  0  0  0  0  0  0  # atno 641  bound_to 637 
   16.1448   12.5891    6.2371 H   0  0  0  0  0  0  0  0  0  0  0  0  # atno 681  bound_to 677 
   20.3066   11.6738   -0.2423 H   0  0  0  0  0  0  0  0  0  0  0  0  # atno 702  bound_to 698 
   -6.5070   16.8141   -1.4376 H   0  0  0  0  0  0  0  0  0  0  0  0  # atno 965  bound_to 957 
    2.1749   11.8581   10.4339 H   0  0  0  0  0  0  0  0  0  0  0  0  # atno 1886 bound_to 1878
   10.7688    3.2074   -3.2534 H   0  0  0  0  0  0  0  0  0  0  0  0  # atno 2577 bound_to 2569
    7.4808    6.7722    1.3768 H   0  0  0  0  0  0  0  0  0  0  0  0  # atno 2891 bound_to 2887
   18.5621    2.5395    0.3741 H   0  0  0  0  0  0  0  0  0  0  0  0  # atno 3175 bound_to 3171
   14.3779   10.1034    9.3343 H   0  0  0  0  0  0  0  0  0  0  0  0  # atno 5278 bound_to 5270
   15.8908   13.6102    7.4325 LP  0  0  0  0  0  0  0  0  0  0  0  0  # atno 5914 bound_to 677 
   17.2905   13.6369    6.5918 LP  0  0  0  0  0  0  0  0  0  0  0  0  # atno 5915 bound_to 677 
   20.9921   11.5631   -1.6759 LP  0  0  0  0  0  0  0  0  0  0  0  0  # atno 5920 bound_to 698 
   19.3898   11.8444   -1.5338 LP  0  0  0  0  0  0  0  0  0  0  0  0  # atno 5921 bound_to 698 
   10.4775    1.9212   -2.3613 LP  0  0  0  0  0  0  0  0  0  0  0  0  # atno 5950 bound_to 2569
    9.2544    2.7659   -3.0374 LP  0  0  0  0  0  0  0  0  0  0  0  0  # atno 5951 bound_to 2569
    8.3851    6.1725    0.2110 LP  0  0  0  0  0  0  0  0  0  0  0  0  # atno 5982 bound_to 2887
    7.4166    5.2050    1.1011 LP  0  0  0  0  0  0  0  0  0  0  0  0  # atno 5983 bound_to 2887
   18.0228    1.9799   -1.0157 LP  0  0  0  0  0  0  0  0  0  0  0  0  # atno 6000 bound_to 3171
   19.3305    2.9562   -0.9569 LP  0  0  0  0  0  0  0  0  0  0  0  0  # atno 6001 bound_to 3171
   12.8199   10.1508    9.0068 LP  0  0  0  0  0  0  0  0  0  0  0  0  # atno 6004 bound_to 5270
   13.3490    9.7860   10.5080 LP  0  0  0  0  0  0  0  0  0  0  0  0  # atno 6005 bound_to 5270
    9.8646   19.7179    8.6884 LP  0  0  0  0  0  0  0  0  0  0  0  0  # atno 6055 bound_to 637 
   10.1470   18.9739    7.2624 LP  0  0  0  0  0  0  0  0  0  0  0  0  # atno 6056 bound_to 637 
    1.3673   10.4932   10.5761 LP  0  0  0  0  0  0  0  0  0  0  0  0  # atno 6063 bound_to 1878
    0.7285   11.9024   11.0981 LP  0  0  0  0  0  0  0  0  0  0  0  0  # atno 6064 bound_to 1878
   -7.1784   16.6293   -0.0058 LP  0  0  0  0  0  0  0  0  0  0  0  0  # atno 6067 bound_to 957 
   -6.7766   15.3342   -0.9157 LP  0  0  0  0  0  0  0  0  0  0  0  0  # atno 6068 bound_to 957 

>  <STRIFE_LigEff_Score>  (3) 
2.497261111111111

$$$$
unknown|pharmsElabsTestMulti|sdf|13|dock2
     RDKit          3D

 16 16  0  0  0  0  0  0  0  0999 V2000
    3.4282    9.4946    3.4522 C   0  0  0  0  0  0  0  0  0  0  0  0
    3.6001   10.0563    4.8560 C   0  0  0  0  0  0  0  0  0  0  0  0
    4.9720    9.6772    5.4234 C   0  0  0  0  0  0  0  0  0  0  0  0
    6.0892   10.4721    4.7494 C   0  0  0  0  0  0  0  0  0  0  0  0
    7.3320    9.7074    4.7383 N   0  0  0  0  0  0  0  0  0  0  0  0
    8.0962    9.5383    3.5440 C   0  0  0  0  0  0  0  0  0  0  0  0
    7.7233   10.0839    2.4678 O   0  0  0  0  0  0  0  0  0  0  0  0
    9.3574    8.7201    3.5860 C   0  0  0  0  0  0  0  0  0  0  0  0
    9.6000    8.0468    2.2381 C   0  0  0  0  0  0  0  0  0  0  0  0
   10.7843    7.0934    2.2976 C   0  0  0  0  0  0  0  0  0  0  0  0
   12.0462    7.6370    3.0200 C   0  0  0  0  0  0  0  0  0  0  0  0
   13.3897    7.6964    2.2670 C   0  0  0  0  0  0  0  0  0  0  0  0
   14.6742    7.7841    3.0909 C   0  0  0  0  0  0  0  0  0  0  0  0
   13.3828    8.7015    1.1953 N   0  0  0  0  0  0  0  0  0  0  0  0
   11.8465    8.8030    4.0363 C   0  0  0  0  0  0  0  0  0  0  0  0
   10.5513    9.6048    3.9263 C   0  0  0  0  0  0  0  0  0  0  0  0
  1  2  1  0
  2  3  1  0
  3  4  1  0
  4  5  1  0
  5  6  1  0
  6  7  2  0
  6  8  1  0
  8  9  1  0
  9 10  1  0
 10 11  1  0
 11 12  1  0
 12 13  1  0
 12 14  1  0
 11 15  1  0
 15 16  1  0
 16  8  1  0
M  CHG  1  14   1
M  END
>  <EmbedRMS>  (4) 
0.21476017337867526

>  <Gold.Version>  (4) 
2020.3.0

>  <Gold.Id.Protein>  (4) 
unknown|1q8t_protein|pdb

>  <Gold.PLP.Fitness>  (4) 
45.1466

>  <Gold.PLP.PLP>  (4) 
-41.0643

>  <Gold.PLP.part.hbond>  (4) 
-1.0000

>  <Gold.PLP.part.metal>  (4) 
0.0000

>  <Gold.PLP.part.buried>  (4) 
-3.9815

>  <Gold.PLP.part.nonpolar>  (4) 
-36.4246

>  <Gold.PLP.part.repulsive>  (4) 
0.0000

>  <Gold.PLP.ligand.clash>  (4) 
0.0000

>  <Gold.PLP.ligand.torsion>  (4) 
1.2097

>  <Gold.PLP.Chemscore.Hbond>  (4) 
2.0000

>  <Gold.PLP.Chemscore.CHOScore>  (4) 
0.0000

>  <Gold.PLP.Chemscore.Metal>  (4) 
0.0000

>  <Gold.Chemscore.Hbonds>  (4) 
donor molecule, donor type, donor heavy atom, donor atom, acceptor molecule, acceptor atom, score
      L1  H    14    39       P1  2902  2.00

>  <Gold.PLP.Chemscore.Internal.Correction>  (4) 
0.5017

>  <Gold.PLP.Constraint>  (4) 
-0.0000

>  <Gold.Protein.RotatedTorsions>  (4) 
[  681  677  676  673 ] final  147.54 input -179.99 | X-H torsion
[  702  698  697  694 ] final   20.55 input  179.99 | X-H torsion
[ 2577 2569 2568 2566 ] final   81.24 input   -0.13 | X-H torsion
[ 2891 2887 2886 2883 ] final  -83.37 input  179.98 | X-H torsion
[ 3175 3171 3170 3167 ] final  163.54 input -179.99 | X-H torsion
[ 5278 5270 5269 5267 ] final   -7.58 input    0.55 | X-H torsion
[  641  637  636  633 ] final  -56.45 input  179.99 | X-H torsion
[ 1886 1878 1877 1875 ] final  -77.78 input    1.60 | X-H torsion
[  965  957  956  954 ] final  -29.58 input    0.45 | X-H torsion

>  <Gold.Protein.ActiveResidues>  (4) 
 LYS47   THR48   LEU49   GLY50   THR51   GLY52   SER53   PHE54   GLY55   ARG56  
 VAL57   MET58   LEU59   TYR69   ALA70   MET71   LYS72   ILE73   LEU74   GLU91  
 LEU95   VAL104  LYS105  MET118  VAL119  MET120  GLU121  TYR122  VAL123  PRO124 
 GLY125  GLY126  GLU127  MET128  PHE129  TYR164  ASP166  LEU167  LYS168  PRO169 
 GLU170  ASN171  LEU172  LEU173  ILE174  GLN181  VAL182  THR183  ASP184  PHE185 
 GLY186  PHE187  GLY200  THR201  ASN326  PHE327  TYR330  ARG18   ARG19   ASN20  
 ALA21   ILE22   HIS23  

>  <Gold.Protein.RotatedAtoms>  (4) 
   10.1023   18.9926    7.3305 H   0  0  0  0  0  0  0  0  0  0  0  0  # atno 641  bound_to 637 
   17.2273   13.6764    6.6444 H   0  0  0  0  0  0  0  0  0  0  0  0  # atno 681  bound_to 677 
   19.3721   11.8528   -0.9338 H   0  0  0  0  0  0  0  0  0  0  0  0  # atno 702  bound_to 698 
   -6.5516   15.6278   -1.3645 H   0  0  0  0  0  0  0  0  0  0  0  0  # atno 965  bound_to 957 
    1.4475   10.5457   10.5308 H   0  0  0  0  0  0  0  0  0  0  0  0  # atno 1886 bound_to 1878
    9.3334    2.3656   -2.7740 H   0  0  0  0  0  0  0  0  0  0  0  0  # atno 2577 bound_to 2569
    7.2986    5.3753    1.2531 H   0  0  0  0  0  0  0  0  0  0  0  0  # atno 2891 bound_to 2887
   18.0252    2.0929    0.0004 H   0  0  0  0  0  0  0  0  0  0  0  0  # atno 3175 bound_to 3171
   12.7020    9.9355    9.9441 H   0  0  0  0  0  0  0  0  0  0  0  0  # atno 5278 bound_to 5270
   16.2045   12.5462    6.1832 LP  0  0  0  0  0  0  0  0  0  0  0  0  # atno 5914 bound_to 677 
   15.8374   13.5566    7.4124 LP  0  0  0  0  0  0  0  0  0  0  0  0  # atno 5915 bound_to 677 
   20.8604   11.5627   -0.4457 LP  0  0  0  0  0  0  0  0  0  0  0  0  # atno 5920 bound_to 698 
   20.5046   11.6565   -2.0367 LP  0  0  0  0  0  0  0  0  0  0  0  0  # atno 5921 bound_to 698 
   10.3549    3.4113   -3.4049 LP  0  0  0  0  0  0  0  0  0  0  0  0  # atno 5950 bound_to 2569
   10.8884    2.1622   -2.4985 LP  0  0  0  0  0  0  0  0  0  0  0  0  # atno 5951 bound_to 2569
    7.6416    6.9305    1.2539 LP  0  0  0  0  0  0  0  0  0  0  0  0  # atno 5982 bound_to 2887
    8.3518    5.9172    0.1884 LP  0  0  0  0  0  0  0  0  0  0  0  0  # atno 5983 bound_to 2887
   18.6202    2.3654   -1.4513 LP  0  0  0  0  0  0  0  0  0  0  0  0  # atno 6000 bound_to 3171
   19.2982    3.0408   -0.1281 LP  0  0  0  0  0  0  0  0  0  0  0  0  # atno 6001 bound_to 3171
   14.2776    9.8790   10.1701 LP  0  0  0  0  0  0  0  0  0  0  0  0  # atno 6004 bound_to 5270
   13.6546   10.2344    8.7031 LP  0  0  0  0  0  0  0  0  0  0  0  0  # atno 6005 bound_to 5270
   11.4064   19.3644    8.1649 LP  0  0  0  0  0  0  0  0  0  0  0  0  # atno 6055 bound_to 637 
    9.9186   19.7346    8.7271 LP  0  0  0  0  0  0  0  0  0  0  0  0  # atno 6056 bound_to 637 
    0.6821   11.8187   11.1043 LP  0  0  0  0  0  0  0  0  0  0  0  0  # atno 6063 bound_to 1878
    2.1795   11.9584   10.4680 LP  0  0  0  0  0  0  0  0  0  0  0  0  # atno 6064 bound_to 1878
   -6.7074   17.1765   -1.0292 LP  0  0  0  0  0  0  0  0  0  0  0  0  # atno 6067 bound_to 957 
   -7.2006   16.0364    0.0308 LP  0  0  0  0  0  0  0  0  0  0  0  0  # atno 6068 bound_to 957 

>  <STRIFE_LigEff_Score>  (4) 
2.8216625

$$$$
unknown|pharmsElabsTestMulti|sdf|14|dock9
     RDKit          3D

 18 18  0  0  0  0  0  0  0  0999 V2000
    5.8669   10.5075    5.0006 C   0  0  0  0  0  0  0  0  0  0  0  0
    5.8341    9.1210    4.3609 C   0  0  0  0  0  0  0  0  0  0  0  0
    7.1949    8.6045    4.1119 N   0  0  0  0  0  0  0  0  0  0  0  0
    8.0641    9.3161    3.2100 C   0  0  0  0  0  0  0  0  0  0  0  0
    7.6040   10.2890    2.5641 O   0  0  0  0  0  0  0  0  0  0  0  0
    9.5124    9.0156    2.9512 C   0  0  0  0  0  0  0  0  0  0  0  0
    9.7934    7.5445    2.6852 C   0  0  0  0  0  0  0  0  0  0  0  0
   11.2744    7.1821    2.6763 C   0  0  0  0  0  0  0  0  0  0  0  0
   12.1951    8.3516    2.2826 C   0  0  0  0  0  0  0  0  0  0  0  0
   13.6703    7.8350    2.1998 C   0  0  0  0  0  0  0  0  0  0  0  0
   14.0571    7.0995    3.4958 C   0  0  0  0  0  0  0  0  0  0  0  0
   13.8904    6.9422    1.0537 N   0  0  0  0  0  0  0  0  0  0  0  0
   12.0156    9.5015    3.3063 C   0  0  0  0  0  0  0  0  0  0  0  0
   10.5539    9.9134    3.5917 C   0  0  0  0  0  0  0  0  0  0  0  0
    5.0506    9.1632    3.0732 C   0  0  0  0  0  0  0  0  0  0  0  0
    5.6206    8.8796    1.9849 O   0  0  0  0  0  0  0  0  0  0  0  0
    3.6654    9.5237    3.0768 N   0  0  0  0  0  0  0  0  0  0  0  0
    2.9565    9.5523    1.9228 O   0  0  0  0  0  0  0  0  0  0  0  0
  1  2  1  0
  2  3  1  0
  3  4  1  0
  4  5  2  0
  4  6  1  0
  6  7  1  0
  7  8  1  0
  8  9  1  0
  9 10  1  0
 10 11  1  0
 10 12  1  0
  9 13  1  0
 13 14  1  0
  2 15  1  0
 15 16  2  0
 15 17  1  0
 17 18  1  0
 14  6  1  0
M  CHG  1  12   1
M  END
>  <EmbedRMS>  (5) 
0.17596870387544733

>  <Gold.Version>  (5) 
2020.3.0

>  <Gold.Id.Protein>  (5) 
unknown|1q8t_protein|pdb

>  <Gold.PLP.Fitness>  (5) 
44.9263

>  <Gold.PLP.PLP>  (5) 
-33.4198

>  <Gold.PLP.part.hbond>  (5) 
-3.0000

>  <Gold.PLP.part.metal>  (5) 
0.0000

>  <Gold.PLP.part.buried>  (5) 
-4.5264

>  <Gold.PLP.part.nonpolar>  (5) 
-26.5315

>  <Gold.PLP.part.repulsive>  (5) 
0.1335

>  <Gold.PLP.ligand.clash>  (5) 
0.0000

>  <Gold.PLP.ligand.torsion>  (5) 
0.4757

>  <Gold.PLP.Chemscore.Hbond>  (5) 
3.9120

>  <Gold.PLP.Chemscore.CHOScore>  (5) 
0.0000

>  <Gold.PLP.Chemscore.Metal>  (5) 
0.0000

>  <Gold.Chemscore.Hbonds>  (5) 
donor molecule, donor type, donor heavy atom, donor atom, acceptor molecule, acceptor atom, score
      L1  H    12    34       P1  2691  1.00
      L1  H    12    35       P1  2902  2.00
      L1  H    18    42       P1  1855  0.91

>  <Gold.PLP.Chemscore.Internal.Correction>  (5) 
0.7218

>  <Gold.PLP.Constraint>  (5) 
-0.0000

>  <Gold.Protein.RotatedTorsions>  (5) 
[  681  677  676  673 ] final  150.38 input -179.99 | X-H torsion
[  702  698  697  694 ] final   81.78 input  179.99 | X-H torsion
[ 2577 2569 2568 2566 ] final  -44.64 input   -0.13 | X-H torsion
[ 2891 2887 2886 2883 ] final -176.82 input  179.98 | X-H torsion
[ 3175 3171 3170 3167 ] final   -2.90 input -179.99 | X-H torsion
[ 5278 5270 5269 5267 ] final   -6.27 input    0.55 | X-H torsion
[  641  637  636  633 ] final   13.39 input  179.99 | X-H torsion
[ 1886 1878 1877 1875 ] final -124.72 input    1.60 | X-H torsion
[  965  957  956  954 ] final   53.48 input    0.45 | X-H torsion

>  <Gold.Protein.ActiveResidues>  (5) 
 LYS47   THR48   LEU49   GLY50   THR51   GLY52   SER53   PHE54   GLY55   ARG56  
 VAL57   MET58   LEU59   TYR69   ALA70   MET71   LYS72   ILE73   LEU74   GLU91  
 LEU95   VAL104  LYS105  MET118  VAL119  MET120  GLU121  TYR122  VAL123  PRO124 
 GLY125  GLY126  GLU127  MET128  PHE129  TYR164  ASP166  LEU167  LYS168  PRO169 
 GLU170  ASN171  LEU172  LEU173  ILE174  GLN181  VAL182  THR183  ASP184  PHE185 
 GLY186  PHE187  GLY200  THR201  ASN326  PHE327  TYR330  ARG18   ARG19   ASN20  
 ALA21   ILE22   HIS23  

>  <Gold.Protein.RotatedAtoms>  (5) 
    9.5767   19.4159    8.1020 H   0  0  0  0  0  0  0  0  0  0  0  0  # atno 641  bound_to 637 
   17.2164   13.7033    6.6779 H   0  0  0  0  0  0  0  0  0  0  0  0  # atno 681  bound_to 677 
   19.6474   11.8208   -1.8036 H   0  0  0  0  0  0  0  0  0  0  0  0  # atno 702  bound_to 698 
   -7.0432   15.5708   -0.2854 H   0  0  0  0  0  0  0  0  0  0  0  0  # atno 965  bound_to 957 
    0.8426   10.7694   10.8356 H   0  0  0  0  0  0  0  0  0  0  0  0  # atno 1886 bound_to 1878
   10.4359    3.3483   -3.3756 H   0  0  0  0  0  0  0  0  0  0  0  0  # atno 2577 bound_to 2569
    7.3861    6.6604    1.4597 H   0  0  0  0  0  0  0  0  0  0  0  0  # atno 2891 bound_to 2887
   19.1582    2.7765   -1.1883 H   0  0  0  0  0  0  0  0  0  0  0  0  # atno 3175 bound_to 3171
   12.6945    9.9400    9.9257 H   0  0  0  0  0  0  0  0  0  0  0  0  # atno 5278 bound_to 5270
   16.2459   12.5508    6.1622 LP  0  0  0  0  0  0  0  0  0  0  0  0  # atno 5914 bound_to 677 
   15.8075   13.5236    7.3983 LP  0  0  0  0  0  0  0  0  0  0  0  0  # atno 5915 bound_to 677 
   19.9360   11.7226   -0.2402 LP  0  0  0  0  0  0  0  0  0  0  0  0  # atno 5920 bound_to 698 
   21.1394   11.5303   -1.3272 LP  0  0  0  0  0  0  0  0  0  0  0  0  # atno 5921 bound_to 698 
   10.8215    2.1026   -2.4620 LP  0  0  0  0  0  0  0  0  0  0  0  0  # atno 5950 bound_to 2569
    9.2608    2.4361   -2.8080 LP  0  0  0  0  0  0  0  0  0  0  0  0  # atno 5951 bound_to 2569
    8.3809    6.3436    0.2569 LP  0  0  0  0  0  0  0  0  0  0  0  0  # atno 5982 bound_to 2887
    7.5205    5.1516    0.9679 LP  0  0  0  0  0  0  0  0  0  0  0  0  # atno 5983 bound_to 2887
   18.8248    2.7552    0.3686 LP  0  0  0  0  0  0  0  0  0  0  0  0  # atno 6000 bound_to 3171
   17.9012    1.9316   -0.6969 LP  0  0  0  0  0  0  0  0  0  0  0  0  # atno 6001 bound_to 3171
   14.2644    9.8749   10.1864 LP  0  0  0  0  0  0  0  0  0  0  0  0  # atno 6004 bound_to 5270
   13.6758   10.2339    8.7061 LP  0  0  0  0  0  0  0  0  0  0  0  0  # atno 6005 bound_to 5270
   10.8820   18.9587    7.3131 LP  0  0  0  0  0  0  0  0  0  0  0  0  # atno 6055 bound_to 637 
   10.9966   19.6944    8.7664 LP  0  0  0  0  0  0  0  0  0  0  0  0  # atno 6056 bound_to 637 
    1.2277   12.3104   10.9476 LP  0  0  0  0  0  0  0  0  0  0  0  0  # atno 6063 bound_to 1878
    2.2706   11.2313   10.3038 LP  0  0  0  0  0  0  0  0  0  0  0  0  # atno 6064 bound_to 1878
   -6.4354   16.1251   -1.6487 LP  0  0  0  0  0  0  0  0  0  0  0  0  # atno 6067 bound_to 957 
   -6.9547   17.1478   -0.4863 LP  0  0  0  0  0  0  0  0  0  0  0  0  # atno 6068 bound_to 957 

>  <STRIFE_LigEff_Score>  (5) 
2.4959055555555554

$$$$
unknown|pharmsElabsTestMulti|sdf|15|dock10
     RDKit          3D

 18 19  0  0  0  0  0  0  0  0999 V2000
   15.2103    7.8291    3.0311 C   0  0  0  0  0  0  0  0  0  0  0  0
   13.9210    7.6403    2.2318 C   0  0  0  0  0  0  0  0  0  0  0  0
   13.9022    8.5132    1.0503 N   0  0  0  0  0  0  0  0  0  0  0  0
   12.5830    7.6649    2.9950 C   0  0  0  0  0  0  0  0  0  0  0  0
   11.3734    6.8617    2.4481 C   0  0  0  0  0  0  0  0  0  0  0  0
   10.1217    7.6754    2.1694 C   0  0  0  0  0  0  0  0  0  0  0  0
    9.8153    8.6382    3.3134 C   0  0  0  0  0  0  0  0  0  0  0  0
    8.5037    9.3155    3.0609 C   0  0  0  0  0  0  0  0  0  0  0  0
    8.1794   10.3325    3.7364 O   0  0  0  0  0  0  0  0  0  0  0  0
    7.6192    8.8127    2.0606 N   0  0  0  0  0  0  0  0  0  0  0  0
    6.2849    9.3688    1.9277 C   0  0  0  0  0  0  0  0  0  0  0  0
    5.4414    9.2423    3.1891 C   0  0  0  0  0  0  0  0  0  0  0  0
    5.4594   10.4022    4.1455 C   0  0  0  0  0  0  0  0  0  0  0  0
    4.5984    9.8944    5.2910 C   0  0  0  0  0  0  0  0  0  0  0  0
    3.5985    8.9070    4.6668 C   0  0  0  0  0  0  0  0  0  0  0  0
    4.0723    8.6202    3.2360 C   0  0  0  0  0  0  0  0  0  0  0  0
   10.9326    9.6721    3.4101 C   0  0  0  0  0  0  0  0  0  0  0  0
   12.2864    9.0263    3.6958 C   0  0  0  0  0  0  0  0  0  0  0  0
  1  2  1  0
  2  3  1  0
  2  4  1  0
  4  5  1  0
  5  6  1  0
  6  7  1  0
  7  8  1  0
  8  9  2  0
  8 10  1  0
 10 11  1  0
 11 12  1  0
 12 13  1  0
 13 14  1  0
 14 15  1  0
 15 16  1  0
  7 17  1  0
 17 18  1  0
 18  4  1  0
 16 12  1  0
M  CHG  1   3   1
M  END
>  <EmbedRMS>  (6) 
0.2701286003923815

>  <Gold.Version>  (6) 
2020.3.0

>  <Gold.Id.Protein>  (6) 
unknown|1q8t_protein|pdb

>  <Gold.PLP.Fitness>  (6) 
49.3247

>  <Gold.PLP.PLP>  (6) 
-42.3476

>  <Gold.PLP.part.hbond>  (6) 
-2.0000

>  <Gold.PLP.part.metal>  (6) 
0.0000

>  <Gold.PLP.part.buried>  (6) 
-0.0095

>  <Gold.PLP.part.nonpolar>  (6) 
-40.8686

>  <Gold.PLP.part.repulsive>  (6) 
0.0000

>  <Gold.PLP.ligand.clash>  (6) 
0.0000

>  <Gold.PLP.ligand.torsion>  (6) 
1.1816

>  <Gold.PLP.Chemscore.Hbond>  (6) 
2.9440

>  <Gold.PLP.Chemscore.CHOScore>  (6) 
0.0000

>  <Gold.PLP.Chemscore.Metal>  (6) 
0.0000

>  <Gold.Chemscore.Hbonds>  (6) 
donor molecule, donor type, donor heavy atom, donor atom, acceptor molecule, acceptor atom, score
      L1  H     3    24       P1  2902  2.00
      L1  H    10    32       P1  2887  0.94

>  <Gold.PLP.Chemscore.Internal.Correction>  (6) 
0.5081

>  <Gold.PLP.Constraint>  (6) 
-0.0000

>  <Gold.Protein.RotatedTorsions>  (6) 
[  681  677  676  673 ] final -160.49 input -179.99 | X-H torsion
[  702  698  697  694 ] final  -60.29 input  179.99 | X-H torsion
[ 2577 2569 2568 2566 ] final   21.79 input   -0.13 | X-H torsion
[ 2891 2887 2886 2883 ] final  -35.77 input  179.98 | X-H torsion
[ 3175 3171 3170 3167 ] final  176.72 input -179.99 | X-H torsion
[ 5278 5270 5269 5267 ] final  -36.71 input    0.55 | X-H torsion
[  641  637  636  633 ] final  153.51 input  179.99 | X-H torsion
[ 1886 1878 1877 1875 ] final   -4.93 input    1.60 | X-H torsion
[  965  957  956  954 ] final   73.06 input    0.45 | X-H torsion

>  <Gold.Protein.ActiveResidues>  (6) 
 LYS47   THR48   LEU49   GLY50   THR51   GLY52   SER53   PHE54   GLY55   ARG56  
 VAL57   MET58   LEU59   TYR69   ALA70   MET71   LYS72   ILE73   LEU74   GLU91  
 LEU95   VAL104  LYS105  MET118  VAL119  MET120  GLU121  TYR122  VAL123  PRO124 
 GLY125  GLY126  GLU127  MET128  PHE129  TYR164  ASP166  LEU167  LYS168  PRO169 
 GLU170  ASN171  LEU172  LEU173  ILE174  GLN181  VAL182  THR183  ASP184  PHE185 
 GLY186  PHE187  GLY200  THR201  ASN326  PHE327  TYR330  ARG18   ARG19   ASN20  
 ALA21   ILE22   HIS23  

>  <Gold.Protein.RotatedAtoms>  (6) 
   11.1935   19.5542    8.5496 H   0  0  0  0  0  0  0  0  0  0  0  0  # atno 641  bound_to 637 
   16.7636   13.9584    7.2114 H   0  0  0  0  0  0  0  0  0  0  0  0  # atno 681  bound_to 677 
   20.2885   11.6770   -0.2409 H   0  0  0  0  0  0  0  0  0  0  0  0  # atno 702  bound_to 698 
   -7.1249   15.7990   -0.1013 H   0  0  0  0  0  0  0  0  0  0  0  0  # atno 965  bound_to 957 
    2.2213   11.2404   10.3082 H   0  0  0  0  0  0  0  0  0  0  0  0  # atno 1886 bound_to 1878
    9.4968    3.0881   -3.2638 H   0  0  0  0  0  0  0  0  0  0  0  0  # atno 2577 bound_to 2569
    7.7327    5.1890    0.7057 H   0  0  0  0  0  0  0  0  0  0  0  0  # atno 2891 bound_to 2887
   18.1263    2.1877    0.1524 H   0  0  0  0  0  0  0  0  0  0  0  0  # atno 3175 bound_to 3171
   12.9732    9.8520   10.2942 H   0  0  0  0  0  0  0  0  0  0  0  0  # atno 5278 bound_to 5270
   16.9488   12.8806    6.0538 LP  0  0  0  0  0  0  0  0  0  0  0  0  # atno 5914 bound_to 677 
   15.5813   12.9253    6.9452 LP  0  0  0  0  0  0  0  0  0  0  0  0  # atno 5915 bound_to 677 
   21.0029   11.5609   -1.6599 LP  0  0  0  0  0  0  0  0  0  0  0  0  # atno 5920 bound_to 698 
   19.3982   11.8433   -1.5513 LP  0  0  0  0  0  0  0  0  0  0  0  0  # atno 5921 bound_to 698 
   11.0633    2.9356   -3.0227 LP  0  0  0  0  0  0  0  0  0  0  0  0  # atno 5950 bound_to 2569
   10.0078    1.8771   -2.3651 LP  0  0  0  0  0  0  0  0  0  0  0  0  # atno 5951 bound_to 2569
    7.2264    6.4000    1.6077 LP  0  0  0  0  0  0  0  0  0  0  0  0  # atno 5982 bound_to 2887
    8.3102    6.6437    0.4107 LP  0  0  0  0  0  0  0  0  0  0  0  0  # atno 5983 bound_to 2887
   18.4472    2.2431   -1.4064 LP  0  0  0  0  0  0  0  0  0  0  0  0  # atno 6000 bound_to 3171
   19.3647    3.0632   -0.3329 LP  0  0  0  0  0  0  0  0  0  0  0  0  # atno 6001 bound_to 3171
   14.4629    9.9854    9.7468 LP  0  0  0  0  0  0  0  0  0  0  0  0  # atno 6004 bound_to 5270
   13.1840   10.2159    8.7580 LP  0  0  0  0  0  0  0  0  0  0  0  0  # atno 6005 bound_to 5270
    9.6102   19.5759    8.3826 LP  0  0  0  0  0  0  0  0  0  0  0  0  # atno 6055 bound_to 637 
   10.5656   18.9317    7.2255 LP  0  0  0  0  0  0  0  0  0  0  0  0  # atno 6056 bound_to 637 
    0.8161   10.7344   10.8603 LP  0  0  0  0  0  0  0  0  0  0  0  0  # atno 6063 bound_to 1878
    1.2309   12.3114   10.9464 LP  0  0  0  0  0  0  0  0  0  0  0  0  # atno 6064 bound_to 1878
   -6.4801   15.8212   -1.5569 LP  0  0  0  0  0  0  0  0  0  0  0  0  # atno 6067 bound_to 957 
   -6.8241   17.2113   -0.7720 LP  0  0  0  0  0  0  0  0  0  0  0  0  # atno 6068 bound_to 957 

>  <STRIFE_LigEff_Score>  (6) 
2.7402611111111113

$$$$
unknown|pharmsElabsTestMulti|sdf|16|dock1
     RDKit          3D

 20 21  0  0  0  0  0  0  0  0999 V2000
   15.2814    6.4573    2.3043 C   0  0  0  0  0  0  0  0  0  0  0  0
   14.5651    7.7932    2.0434 C   0  0  0  0  0  0  0  0  0  0  0  0
   14.8995    8.2913    0.7059 N   0  0  0  0  0  0  0  0  0  0  0  0
   13.0205    7.8233    2.3286 C   0  0  0  0  0  0  0  0  0  0  0  0
   12.1552    7.5670    1.0956 C   0  0  0  0  0  0  0  0  0  0  0  0
   10.6562    7.5448    1.3511 C   0  0  0  0  0  0  0  0  0  0  0  0
   10.2025    8.6239    2.3045 C   0  0  0  0  0  0  0  0  0  0  0  0
    8.7134    8.8049    2.3511 C   0  0  0  0  0  0  0  0  0  0  0  0
    8.1215    8.0817    3.1878 O   0  0  0  0  0  0  0  0  0  0  0  0
    7.9425    9.7073    1.5404 N   0  0  0  0  0  0  0  0  0  0  0  0
    6.4728    9.6645    1.5807 C   0  0  0  0  0  0  0  0  0  0  0  0
    5.9819    9.8342    2.9970 C   0  0  0  0  0  0  0  0  0  0  0  0
    6.7874   10.4299    3.9850 C   0  0  0  0  0  0  0  0  0  0  0  0
    6.3287   10.5262    5.3039 C   0  0  0  0  0  0  0  0  0  0  0  0
    5.0658   10.0330    5.6441 C   0  0  0  0  0  0  0  0  0  0  0  0
    4.2582    9.4405    4.6674 C   0  0  0  0  0  0  0  0  0  0  0  0
    3.0011    8.9526    5.0136 O   0  0  0  0  0  0  0  0  0  0  0  0
    4.7189    9.3384    3.3492 C   0  0  0  0  0  0  0  0  0  0  0  0
   10.9754    8.7794    3.5949 C   0  0  0  0  0  0  0  0  0  0  0  0
   12.4900    8.8543    3.3443 C   0  0  0  0  0  0  0  0  0  0  0  0
  1  2  1  0
  2  3  1  0
  2  4  1  0
  4  5  1  0
  5  6  1  0
  6  7  1  0
  7  8  1  0
  8  9  2  0
  8 10  1  0
 10 11  1  0
 11 12  1  0
 12 13  2  0
 13 14  1  0
 14 15  2  0
 15 16  1  0
 16 17  1  0
 16 18  2  0
  7 19  1  0
 19 20  1  0
 20  4  1  0
 18 12  1  0
M  CHG  1   3   1
M  END
>  <EmbedRMS>  (7) 
0.24874902131530774

>  <Gold.Version>  (7) 
2020.3.0

>  <Gold.Id.Protein>  (7) 
unknown|1q8t_protein|pdb

>  <Gold.PLP.Fitness>  (7) 
45.9722

>  <Gold.PLP.PLP>  (7) 
-39.4234

>  <Gold.PLP.part.hbond>  (7) 
-3.5464

>  <Gold.PLP.part.metal>  (7) 
0.0000

>  <Gold.PLP.part.buried>  (7) 
4.3993

>  <Gold.PLP.part.nonpolar>  (7) 
-41.1187

>  <Gold.PLP.part.repulsive>  (7) 
0.0279

>  <Gold.PLP.ligand.clash>  (7) 
0.0000

>  <Gold.PLP.ligand.torsion>  (7) 
1.8482

>  <Gold.PLP.Chemscore.Hbond>  (7) 
3.1168

>  <Gold.PLP.Chemscore.CHOScore>  (7) 
0.0000

>  <Gold.PLP.Chemscore.Metal>  (7) 
0.0000

>  <Gold.Chemscore.Hbonds>  (7) 
donor molecule, donor type, donor heavy atom, donor atom, acceptor molecule, acceptor atom, score
      L1  H     3    27       P1  2902  2.00
      L1  H    17    40       P1  1891  0.99
      P1  H  1888  1903       L1    17  0.12

>  <Gold.PLP.Chemscore.Internal.Correction>  (7) 
0.8947

>  <Gold.PLP.Constraint>  (7) 
-0.0000

>  <Gold.Protein.RotatedTorsions>  (7) 
[  681  677  676  673 ] final  -23.53 input -179.99 | X-H torsion
[  702  698  697  694 ] final  165.02 input  179.99 | X-H torsion
[ 2577 2569 2568 2566 ] final  -36.95 input   -0.13 | X-H torsion
[ 2891 2887 2886 2883 ] final   84.64 input  179.98 | X-H torsion
[ 3175 3171 3170 3167 ] final   -0.27 input -179.99 | X-H torsion
[ 5278 5270 5269 5267 ] final  -63.84 input    0.55 | X-H torsion
[  641  637  636  633 ] final  137.17 input  179.99 | X-H torsion
[ 1886 1878 1877 1875 ] final -135.96 input    1.60 | X-H torsion
[  965  957  956  954 ] final -148.29 input    0.45 | X-H torsion

>  <Gold.Protein.ActiveResidues>  (7) 
 LYS47   THR48   LEU49   GLY50   THR51   GLY52   SER53   PHE54   GLY55   ARG56  
 VAL57   MET58   LEU59   TYR69   ALA70   MET71   LYS72   ILE73   LEU74   GLU91  
 LEU95   VAL104  LYS105  MET118  VAL119  MET120  GLU121  TYR122  VAL123  PRO124 
 GLY125  GLY126  GLU127  MET128  PHE129  TYR164  ASP166  LEU167  LYS168  PRO169 
 GLU170  ASN171  LEU172  LEU173  ILE174  GLN181  VAL182  THR183  ASP184  PHE185 
 GLY186  PHE187  GLY200  THR201  ASN326  PHE327  TYR330  ARG18   ARG19   ASN20  
 ALA21   ILE22   HIS23  

>  <Gold.Protein.RotatedAtoms>  (7) 
   11.0168   19.6452    8.7086 H   0  0  0  0  0  0  0  0  0  0  0  0  # atno 641  bound_to 637 
   15.6786   12.7903    6.7254 H   0  0  0  0  0  0  0  0  0  0  0  0  # atno 681  bound_to 677 
   20.8197   11.6130   -1.8061 H   0  0  0  0  0  0  0  0  0  0  0  0  # atno 702  bound_to 698 
   -6.6902   17.1249   -1.0285 H   0  0  0  0  0  0  0  0  0  0  0  0  # atno 965  bound_to 957 
    0.7424   10.8974   10.9016 H   0  0  0  0  0  0  0  0  0  0  0  0  # atno 1886 bound_to 1878
   10.3191    3.3664   -3.3967 H   0  0  0  0  0  0  0  0  0  0  0  0  # atno 2577 bound_to 2569
    8.2685    6.6221    0.4284 H   0  0  0  0  0  0  0  0  0  0  0  0  # atno 2891 bound_to 2887
   19.1344    2.7554   -1.2145 H   0  0  0  0  0  0  0  0  0  0  0  0  # atno 3175 bound_to 3171
   13.3546    9.8134   10.4668 H   0  0  0  0  0  0  0  0  0  0  0  0  # atno 5278 bound_to 5270
   16.5422   13.9598    7.3756 LP  0  0  0  0  0  0  0  0  0  0  0  0  # atno 5914 bound_to 677 
   17.1298   13.0756    6.1349 LP  0  0  0  0  0  0  0  0  0  0  0  0  # atno 5915 bound_to 677 
   19.3208   11.8526   -1.3233 LP  0  0  0  0  0  0  0  0  0  0  0  0  # atno 5920 bound_to 698 
   20.5214   11.6189   -0.2414 LP  0  0  0  0  0  0  0  0  0  0  0  0  # atno 5921 bound_to 698 
   10.9074    2.1816   -2.5105 LP  0  0  0  0  0  0  0  0  0  0  0  0  # atno 5950 bound_to 2569
    9.2979    2.3381   -2.7372 LP  0  0  0  0  0  0  0  0  0  0  0  0  # atno 5951 bound_to 2569
    7.7486    5.1417    0.7013 LP  0  0  0  0  0  0  0  0  0  0  0  0  # atno 5982 bound_to 2887
    7.2241    6.3938    1.6089 LP  0  0  0  0  0  0  0  0  0  0  0  0  # atno 5983 bound_to 2887
   18.8583    2.7781    0.3536 LP  0  0  0  0  0  0  0  0  0  0  0  0  # atno 6000 bound_to 3171
   17.8927    1.9308   -0.6545 LP  0  0  0  0  0  0  0  0  0  0  0  0  # atno 6001 bound_to 3171
   14.4234   10.0905    9.3189 LP  0  0  0  0  0  0  0  0  0  0  0  0  # atno 6004 bound_to 5270
   12.8221   10.1514    9.0043 LP  0  0  0  0  0  0  0  0  0  0  0  0  # atno 6005 bound_to 5270
    9.5366   19.4620    8.1515 LP  0  0  0  0  0  0  0  0  0  0  0  0  # atno 6055 bound_to 637 
   10.8253   18.9497    7.2892 LP  0  0  0  0  0  0  0  0  0  0  0  0  # atno 6056 bound_to 637 
    1.3952   12.3496   10.8804 LP  0  0  0  0  0  0  0  0  0  0  0  0  # atno 6063 bound_to 1878
    2.2086   11.0573   10.3015 LP  0  0  0  0  0  0  0  0  0  0  0  0  # atno 6064 bound_to 1878
   -7.2025   16.0568    0.0353 LP  0  0  0  0  0  0  0  0  0  0  0  0  # atno 6067 bound_to 957 
   -6.5594   15.5793   -1.3877 LP  0  0  0  0  0  0  0  0  0  0  0  0  # atno 6068 bound_to 957 

>  <STRIFE_LigEff_Score>  (7) 
2.29861

$$$$
unknown|pharmsElabsTestMulti|sdf|17|dock9
     RDKit          3D

 18 18  0  0  0  0  0  0  0  0999 V2000
   14.4604    9.1972    1.4517 C   0  0  0  0  0  0  0  0  0  0  0  0
   13.5326    8.0208    1.7024 C   0  0  0  0  0  0  0  0  0  0  0  0
   13.8421    6.8204    0.9339 N   0  0  0  0  0  0  0  0  0  0  0  0
   12.0288    8.3499    1.9400 C   0  0  0  0  0  0  0  0  0  0  0  0
   11.1322    7.2394    2.5109 C   0  0  0  0  0  0  0  0  0  0  0  0
    9.6407    7.5791    2.3257 C   0  0  0  0  0  0  0  0  0  0  0  0
    9.3534    9.0717    2.1806 C   0  0  0  0  0  0  0  0  0  0  0  0
    7.9083    9.4193    2.2248 C   0  0  0  0  0  0  0  0  0  0  0  0
    7.2989    9.4192    1.1275 O   0  0  0  0  0  0  0  0  0  0  0  0
    7.2069    9.6963    3.4318 N   0  0  0  0  0  0  0  0  0  0  0  0
    5.9101   10.3297    3.4421 C   0  0  0  0  0  0  0  0  0  0  0  0
    4.7934    9.5552    4.1471 C   0  0  0  0  0  0  0  0  0  0  0  0
    4.3653    9.7869    5.5938 C   0  0  0  0  0  0  0  0  0  0  0  0
    3.7796    9.1064    3.0892 C   0  0  0  0  0  0  0  0  0  0  0  0
    4.1361    9.1162    1.6109 C   0  0  0  0  0  0  0  0  0  0  0  0
    2.5072    9.5075    3.4436 O   0  0  0  0  0  0  0  0  0  0  0  0
   10.3161   10.0954    2.7643 C   0  0  0  0  0  0  0  0  0  0  0  0
   11.7939    9.6586    2.7211 C   0  0  0  0  0  0  0  0  0  0  0  0
  1  2  1  0
  2  3  1  0
  2  4  1  0
  4  5  1  0
  5  6  1  0
  6  7  1  0
  7  8  1  0
  8  9  2  0
  8 10  1  0
 10 11  1  0
 11 12  1  0
 12 13  1  0
 12 14  1  0
 14 15  1  0
 14 16  1  0
  7 17  1  0
 17 18  1  0
 18  4  1  0
M  CHG  1   3   1
M  END
>  <EmbedRMS>  (8) 
0.38250517418353436

>  <Gold.Version>  (8) 
2020.3.0

>  <Gold.Id.Protein>  (8) 
unknown|1q8t_protein|pdb

>  <Gold.PLP.Fitness>  (8) 
54.5376

>  <Gold.PLP.PLP>  (8) 
-43.1472

>  <Gold.PLP.part.hbond>  (8) 
-3.9096

>  <Gold.PLP.part.metal>  (8) 
0.0000

>  <Gold.PLP.part.buried>  (8) 
-3.2023

>  <Gold.PLP.part.nonpolar>  (8) 
-37.5135

>  <Gold.PLP.part.repulsive>  (8) 
0.0844

>  <Gold.PLP.ligand.clash>  (8) 
0.0000

>  <Gold.PLP.ligand.torsion>  (8) 
2.1264

>  <Gold.PLP.Chemscore.Hbond>  (8) 
4.5696

>  <Gold.PLP.Chemscore.CHOScore>  (8) 
0.0000

>  <Gold.PLP.Chemscore.Metal>  (8) 
0.0000

>  <Gold.Chemscore.Hbonds>  (8) 
donor molecule, donor type, donor heavy atom, donor atom, acceptor molecule, acceptor atom, score
      L1  H     3    23       P1  2691  0.87
      L1  H     3    25       P1  2902  2.00
      L1  H    16    43       P1  1855  0.99
      P1  H  1888  1903       L1    16  0.70

>  <Gold.PLP.Chemscore.Internal.Correction>  (8) 
1.9343

>  <Gold.PLP.Constraint>  (8) 
-0.0000

>  <Gold.Protein.RotatedTorsions>  (8) 
[  681  677  676  673 ] final  149.47 input -179.99 | X-H torsion
[  702  698  697  694 ] final  112.16 input  179.99 | X-H torsion
[ 2577 2569 2568 2566 ] final -131.44 input   -0.13 | X-H torsion
[ 2891 2887 2886 2883 ] final  -45.50 input  179.98 | X-H torsion
[ 3175 3171 3170 3167 ] final -160.75 input -179.99 | X-H torsion
[ 5278 5270 5269 5267 ] final -159.37 input    0.55 | X-H torsion
[  641  637  636  633 ] final  118.88 input  179.99 | X-H torsion
[ 1886 1878 1877 1875 ] final  -80.96 input    1.60 | X-H torsion
[  965  957  956  954 ] final -177.76 input    0.45 | X-H torsion

>  <Gold.Protein.ActiveResidues>  (8) 
 LYS47   THR48   LEU49   GLY50   THR51   GLY52   SER53   PHE54   GLY55   ARG56  
 VAL57   MET58   LEU59   TYR69   ALA70   MET71   LYS72   ILE73   LEU74   GLU91  
 LEU95   VAL104  LYS105  MET118  VAL119  MET120  GLU121  TYR122  VAL123  PRO124 
 GLY125  GLY126  GLU127  MET128  PHE129  TYR164  ASP166  LEU167  LYS168  PRO169 
 GLU170  ASN171  LEU172  LEU173  ILE174  GLN181  VAL182  THR183  ASP184  PHE185 
 GLY186  PHE187  GLY200  THR201  ASN326  PHE327  TYR330  ARG18   ARG19   ASN20  
 ALA21   ILE22   HIS23  

>  <Gold.Protein.RotatedAtoms>  (8) 
   10.7675   19.7183    8.8245 H   0  0  0  0  0  0  0  0  0  0  0  0  # atno 641  bound_to 637 
   17.2201   13.6948    6.6672 H   0  0  0  0  0  0  0  0  0  0  0  0  # atno 681  bound_to 677 
   20.0617   11.7514   -2.0135 H   0  0  0  0  0  0  0  0  0  0  0  0  # atno 702  bound_to 698 
   -6.8786   17.1430   -0.6143 H   0  0  0  0  0  0  0  0  0  0  0  0  # atno 965  bound_to 957 
    1.4020   10.5429   10.5504 H   0  0  0  0  0  0  0  0  0  0  0  0  # atno 1886 bound_to 1878
   11.0468    2.4924   -2.7365 H   0  0  0  0  0  0  0  0  0  0  0  0  # atno 2577 bound_to 2569
    7.6324    5.1790    0.8195 H   0  0  0  0  0  0  0  0  0  0  0  0  # atno 2891 bound_to 2887
   18.3586    2.3827    0.3269 H   0  0  0  0  0  0  0  0  0  0  0  0  # atno 3175 bound_to 3171
   14.4216   10.0127    9.7039 H   0  0  0  0  0  0  0  0  0  0  0  0  # atno 5278 bound_to 5270
   16.2326   12.5491    6.1688 LP  0  0  0  0  0  0  0  0  0  0  0  0  # atno 5914 bound_to 677 
   15.8169   13.5343    7.4030 LP  0  0  0  0  0  0  0  0  0  0  0  0  # atno 5915 bound_to 677 
   19.5310   11.7997   -0.5124 LP  0  0  0  0  0  0  0  0  0  0  0  0  # atno 5920 bound_to 698 
   21.1085   11.5262   -0.8341 LP  0  0  0  0  0  0  0  0  0  0  0  0  # atno 5921 bound_to 698 
    9.5282    2.0615   -2.5283 LP  0  0  0  0  0  0  0  0  0  0  0  0  # atno 5950 bound_to 2569
    9.9110    3.3785   -3.4147 LP  0  0  0  0  0  0  0  0  0  0  0  0  # atno 5951 bound_to 2569
    7.2893    6.5419    1.5687 LP  0  0  0  0  0  0  0  0  0  0  0  0  # atno 5982 bound_to 2887
    8.3528    6.5124    0.3299 LP  0  0  0  0  0  0  0  0  0  0  0  0  # atno 5983 bound_to 2887
   18.1792    2.0685   -1.2238 LP  0  0  0  0  0  0  0  0  0  0  0  0  # atno 6000 bound_to 3171
   19.3882    3.0327   -0.6992 LP  0  0  0  0  0  0  0  0  0  0  0  0  # atno 6001 bound_to 3171
   13.1436   10.2114    8.7745 LP  0  0  0  0  0  0  0  0  0  0  0  0  # atno 6004 bound_to 5270
   12.9792    9.8208   10.3515 LP  0  0  0  0  0  0  0  0  0  0  0  0  # atno 6005 bound_to 5270
    9.5436   19.3255    7.8849 LP  0  0  0  0  0  0  0  0  0  0  0  0  # atno 6055 bound_to 637 
   11.0809   19.0092    7.4338 LP  0  0  0  0  0  0  0  0  0  0  0  0  # atno 6056 bound_to 637 
    0.7064   11.8649   11.1015 LP  0  0  0  0  0  0  0  0  0  0  0  0  # atno 6063 bound_to 1878
    2.2031   11.9153   10.4502 LP  0  0  0  0  0  0  0  0  0  0  0  0  # atno 6064 bound_to 1878
   -7.1134   15.6324   -0.1693 LP  0  0  0  0  0  0  0  0  0  0  0  0  # atno 6067 bound_to 957 
   -6.4501   15.9847   -1.6193 LP  0  0  0  0  0  0  0  0  0  0  0  0  # atno 6068 bound_to 957 

>  <STRIFE_LigEff_Score>  (8) 
3.0298666666666665

$$$$
unknown|pharmsElabsTestMulti|sdf|18|dock9
     RDKit          3D

 17 17  0  0  0  0  0  0  0  0999 V2000
   14.7694    7.4796    3.3034 C   0  0  0  0  0  0  0  0  0  0  0  0
   13.7939    8.0553    2.2659 C   0  0  0  0  0  0  0  0  0  0  0  0
   13.7947    7.2236    1.0571 N   0  0  0  0  0  0  0  0  0  0  0  0
   12.3420    8.3645    2.7752 C   0  0  0  0  0  0  0  0  0  0  0  0
   11.2518    7.3675    2.3392 C   0  0  0  0  0  0  0  0  0  0  0  0
    9.8540    7.9496    2.2404 C   0  0  0  0  0  0  0  0  0  0  0  0
    9.5479    8.9281    3.3675 C   0  0  0  0  0  0  0  0  0  0  0  0
    8.1093    9.3697    3.2700 C   0  0  0  0  0  0  0  0  0  0  0  0
    7.7150   10.4025    3.8830 O   0  0  0  0  0  0  0  0  0  0  0  0
    7.1871    8.5984    2.5004 N   0  0  0  0  0  0  0  0  0  0  0  0
    5.7952    9.0044    2.3481 C   0  0  0  0  0  0  0  0  0  0  0  0
    5.1335    9.0467    3.6859 C   0  0  0  0  0  0  0  0  0  0  0  0
    5.8264    8.8980    4.7280 O   0  0  0  0  0  0  0  0  0  0  0  0
    3.7357    9.3324    3.7833 N   0  0  0  0  0  0  0  0  0  0  0  0
    3.1074    9.4172    5.0351 N   0  0  0  0  0  0  0  0  0  0  0  0
   10.4726   10.1483    3.2968 C   0  0  0  0  0  0  0  0  0  0  0  0
   11.9648    9.8285    3.0846 C   0  0  0  0  0  0  0  0  0  0  0  0
  1  2  1  0
  2  3  1  0
  2  4  1  0
  4  5  1  0
  5  6  1  0
  6  7  1  0
  7  8  1  0
  8  9  2  0
  8 10  1  0
 10 11  1  0
 11 12  1  0
 12 13  2  0
 12 14  1  0
 14 15  1  0
  7 16  1  0
 16 17  1  0
 17  4  1  0
M  CHG  1   3   1
M  END
>  <EmbedRMS>  (9) 
0.16865104847114704

>  <Gold.Version>  (9) 
2020.3.0

>  <Gold.Id.Protein>  (9) 
unknown|1q8t_protein|pdb

>  <Gold.PLP.Fitness>  (9) 
41.9394

>  <Gold.PLP.PLP>  (9) 
-29.4257

>  <Gold.PLP.part.hbond>  (9) 
-4.9899

>  <Gold.PLP.part.metal>  (9) 
0.0000

>  <Gold.PLP.part.buried>  (9) 
-4.5213

>  <Gold.PLP.part.nonpolar>  (9) 
-20.5352

>  <Gold.PLP.part.repulsive>  (9) 
0.1295

>  <Gold.PLP.ligand.clash>  (9) 
0.0157

>  <Gold.PLP.ligand.torsion>  (9) 
1.7657

>  <Gold.PLP.Chemscore.Hbond>  (9) 
5.1581

>  <Gold.PLP.Chemscore.CHOScore>  (9) 
0.0000

>  <Gold.PLP.Chemscore.Metal>  (9) 
0.0000

>  <Gold.Chemscore.Hbonds>  (9) 
donor molecule, donor type, donor heavy atom, donor atom, acceptor molecule, acceptor atom, score
      L1  H     3    22       P1  2902  2.00
      L1  H     3    24       P1  2691  1.00
      L1  H    10    31       P1  2887  1.00
      L1  H    15    35       P1  1891  0.16
      P1  H  1888  1903       L1    15  1.00

>  <Gold.PLP.Chemscore.Internal.Correction>  (9) 
0.5865

>  <Gold.PLP.Constraint>  (9) 
-0.0000

>  <Gold.Protein.RotatedTorsions>  (9) 
[  681  677  676  673 ] final   63.25 input -179.99 | X-H torsion
[  702  698  697  694 ] final  -27.83 input  179.99 | X-H torsion
[ 2577 2569 2568 2566 ] final  -10.34 input   -0.13 | X-H torsion
[ 2891 2887 2886 2883 ] final   11.29 input  179.98 | X-H torsion
[ 3175 3171 3170 3167 ] final -130.71 input -179.99 | X-H torsion
[ 5278 5270 5269 5267 ] final   35.32 input    0.55 | X-H torsion
[  641  637  636  633 ] final   26.55 input  179.99 | X-H torsion
[ 1886 1878 1877 1875 ] final  113.54 input    1.60 | X-H torsion
[  965  957  956  954 ] final  115.36 input    0.45 | X-H torsion

>  <Gold.Protein.ActiveResidues>  (9) 
 LYS47   THR48   LEU49   GLY50   THR51   GLY52   SER53   PHE54   GLY55   ARG56  
 VAL57   MET58   LEU59   TYR69   ALA70   MET71   LYS72   ILE73   LEU74   GLU91  
 LEU95   VAL104  LYS105  MET118  VAL119  MET120  GLU121  TYR122  VAL123  PRO124 
 GLY125  GLY126  GLU127  MET128  PHE129  TYR164  ASP166  LEU167  LYS168  PRO169 
 GLU170  ASN171  LEU172  LEU173  ILE174  GLN181  VAL182  THR183  ASP184  PHE185 
 GLY186  PHE187  GLY200  THR201  ASN326  PHE327  TYR330  ARG18   ARG19   ASN20  
 ALA21   ILE22   HIS23  

>  <Gold.Protein.RotatedAtoms>  (9) 
    9.6144   19.5059    8.2823 H   0  0  0  0  0  0  0  0  0  0  0  0  # atno 641  bound_to 637 
   16.7121   12.7625    6.0576 H   0  0  0  0  0  0  0  0  0  0  0  0  # atno 681  bound_to 677 
   19.8071   11.7644   -0.3486 H   0  0  0  0  0  0  0  0  0  0  0  0  # atno 702  bound_to 698 
   -7.1686   16.4343    0.0082 H   0  0  0  0  0  0  0  0  0  0  0  0  # atno 965  bound_to 957 
    1.2558   12.2765   10.9105 H   0  0  0  0  0  0  0  0  0  0  0  0  # atno 1886 bound_to 1878
    9.9089    3.3274   -3.3997 H   0  0  0  0  0  0  0  0  0  0  0  0  # atno 2577 bound_to 2569
    8.1729    5.5658    0.2861 H   0  0  0  0  0  0  0  0  0  0  0  0  # atno 2891 bound_to 2887
   18.7288    2.6609    0.3578 H   0  0  0  0  0  0  0  0  0  0  0  0  # atno 3175 bound_to 3171
   12.6908   10.0923    9.3080 H   0  0  0  0  0  0  0  0  0  0  0  0  # atno 5278 bound_to 5270
   15.5895   13.1170    7.1302 LP  0  0  0  0  0  0  0  0  0  0  0  0  # atno 5914 bound_to 677 
   16.9947   13.9476    7.0831 LP  0  0  0  0  0  0  0  0  0  0  0  0  # atno 5915 bound_to 677 
   21.1580   11.5237   -1.1577 LP  0  0  0  0  0  0  0  0  0  0  0  0  # atno 5920 bound_to 698 
   19.7494   11.7885   -1.9403 LP  0  0  0  0  0  0  0  0  0  0  0  0  # atno 5921 bound_to 698 
   11.0958    2.5090   -2.7241 LP  0  0  0  0  0  0  0  0  0  0  0  0  # atno 5950 bound_to 2569
    9.5414    2.0518   -2.5205 LP  0  0  0  0  0  0  0  0  0  0  0  0  # atno 5951 bound_to 2569
    7.1573    5.6568    1.5096 LP  0  0  0  0  0  0  0  0  0  0  0  0  # atno 5982 bound_to 2887
    7.9160    6.9904    0.9503 LP  0  0  0  0  0  0  0  0  0  0  0  0  # atno 5983 bound_to 2887
   17.9354    1.9408   -0.8202 LP  0  0  0  0  0  0  0  0  0  0  0  0  # atno 6000 bound_to 3171
   19.2424    2.8676   -1.1353 LP  0  0  0  0  0  0  0  0  0  0  0  0  # atno 6001 bound_to 3171
   13.6865    9.7882   10.5133 LP  0  0  0  0  0  0  0  0  0  0  0  0  # atno 6004 bound_to 5270
   14.2575   10.1602    9.0293 LP  0  0  0  0  0  0  0  0  0  0  0  0  # atno 6005 bound_to 5270
   10.6785   18.9351    7.2446 LP  0  0  0  0  0  0  0  0  0  0  0  0  # atno 6055 bound_to 637 
   11.1603   19.6233    8.6449 LP  0  0  0  0  0  0  0  0  0  0  0  0  # atno 6056 bound_to 637 
    2.2631   11.2037   10.3024 LP  0  0  0  0  0  0  0  0  0  0  0  0  # atno 6063 bound_to 1878
    0.8003   10.7514   10.8702 LP  0  0  0  0  0  0  0  0  0  0  0  0  # atno 6064 bound_to 1878
   -6.6979   15.3793   -1.0875 LP  0  0  0  0  0  0  0  0  0  0  0  0  # atno 6067 bound_to 957 
   -6.5602   16.9841   -1.3566 LP  0  0  0  0  0  0  0  0  0  0  0  0  # atno 6068 bound_to 957 

>  <STRIFE_LigEff_Score>  (9) 
2.467023529411765

$$$$
unknown|pharmsElabsTestMulti|sdf|19|dock1
     RDKit          3D

 18 18  0  0  0  0  0  0  0  0999 V2000
    3.6019   10.1009    5.3006 C   0  0  0  0  0  0  0  0  0  0  0  0
    5.0025    9.4917    5.1994 C   0  0  0  0  0  0  0  0  0  0  0  0
    5.6502    9.5888    3.7896 C   0  0  0  0  0  0  0  0  0  0  0  0
    5.5344   11.0203    3.2197 C   0  0  0  0  0  0  0  0  0  0  0  0
    4.9490    8.6011    2.8245 C   0  0  0  0  0  0  0  0  0  0  0  0
    3.6833    9.0837    2.4662 O   0  0  0  0  0  0  0  0  0  0  0  0
    7.0719    9.2104    3.8891 N   0  0  0  0  0  0  0  0  0  0  0  0
    8.0493    9.4207    2.8601 C   0  0  0  0  0  0  0  0  0  0  0  0
    7.7422   10.0208    1.7918 O   0  0  0  0  0  0  0  0  0  0  0  0
    9.4644    8.9456    3.0735 C   0  0  0  0  0  0  0  0  0  0  0  0
    9.8556    8.0019    1.9424 C   0  0  0  0  0  0  0  0  0  0  0  0
   11.2272    7.3872    2.1462 C   0  0  0  0  0  0  0  0  0  0  0  0
   12.2904    8.3455    2.7150 C   0  0  0  0  0  0  0  0  0  0  0  0
   13.7768    8.0236    2.3276 C   0  0  0  0  0  0  0  0  0  0  0  0
   14.6539    7.4256    3.4380 C   0  0  0  0  0  0  0  0  0  0  0  0
   13.8709    7.2039    1.1143 N   0  0  0  0  0  0  0  0  0  0  0  0
   11.9125    9.8055    3.0418 C   0  0  0  0  0  0  0  0  0  0  0  0
   10.4129   10.1483    3.1325 C   0  0  0  0  0  0  0  0  0  0  0  0
  1  2  1  0
  2  3  1  0
  3  4  1  0
  3  5  1  0
  5  6  1  0
  3  7  1  0
  7  8  1  0
  8  9  2  0
  8 10  1  0
 10 11  1  0
 11 12  1  0
 12 13  1  0
 13 14  1  0
 14 15  1  0
 14 16  1  0
 13 17  1  0
 17 18  1  0
 18 10  1  0
M  CHG  1  16   1
M  END
>  <EmbedRMS>  (10) 
0.16504514334881726

>  <Gold.Version>  (10) 
2020.3.0

>  <Gold.Id.Protein>  (10) 
unknown|1q8t_protein|pdb

>  <Gold.PLP.Fitness>  (10) 
43.8697

>  <Gold.PLP.PLP>  (10) 
-37.3540

>  <Gold.PLP.part.hbond>  (10) 
-2.0000

>  <Gold.PLP.part.metal>  (10) 
0.0000

>  <Gold.PLP.part.buried>  (10) 
-5.1382

>  <Gold.PLP.part.nonpolar>  (10) 
-30.6201

>  <Gold.PLP.part.repulsive>  (10) 
0.0478

>  <Gold.PLP.ligand.clash>  (10) 
0.0000

>  <Gold.PLP.ligand.torsion>  (10) 
1.7154

>  <Gold.PLP.Chemscore.Hbond>  (10) 
3.0000

>  <Gold.PLP.Chemscore.CHOScore>  (10) 
0.0000

>  <Gold.PLP.Chemscore.Metal>  (10) 
0.0000

>  <Gold.Chemscore.Hbonds>  (10) 
donor molecule, donor type, donor heavy atom, donor atom, acceptor molecule, acceptor atom, score
      L1  H    16    41       P1  2902  2.00
      L1  H    16    43       P1  2691  1.00

>  <Gold.PLP.Chemscore.Internal.Correction>  (10) 
0.9464

>  <Gold.PLP.Constraint>  (10) 
-0.0000

>  <Gold.Protein.RotatedTorsions>  (10) 
[  681  677  676  673 ] final  -16.24 input -179.99 | X-H torsion
[  702  698  697  694 ] final   87.55 input  179.99 | X-H torsion
[ 2577 2569 2568 2566 ] final  115.86 input   -0.13 | X-H torsion
[ 2891 2887 2886 2883 ] final -108.94 input  179.98 | X-H torsion
[ 3175 3171 3170 3167 ] final -126.77 input -179.99 | X-H torsion
[ 5278 5270 5269 5267 ] final -154.70 input    0.55 | X-H torsion
[  641  637  636  633 ] final -103.13 input  179.99 | X-H torsion
[ 1886 1878 1877 1875 ] final  -85.74 input    1.60 | X-H torsion
[  965  957  956  954 ] final -169.27 input    0.45 | X-H torsion

>  <Gold.Protein.ActiveResidues>  (10) 
 LYS47   THR48   LEU49   GLY50   THR51   GLY52   SER53   PHE54   GLY55   ARG56  
 VAL57   MET58   LEU59   TYR69   ALA70   MET71   LYS72   ILE73   LEU74   GLU91  
 LEU95   VAL104  LYS105  MET118  VAL119  MET120  GLU121  TYR122  VAL123  PRO124 
 GLY125  GLY126  GLU127  MET128  PHE129  TYR164  ASP166  LEU167  LYS168  PRO169 
 GLU170  ASN171  LEU172  LEU173  ILE174  GLN181  VAL182  THR183  ASP184  PHE185 
 GLY186  PHE187  GLY200  THR201  ASN326  PHE327  TYR330  ARG18   ARG19   ASN20  
 ALA21   ILE22   HIS23  

>  <Gold.Protein.RotatedAtoms>  (10) 
   10.8108   18.9564    7.3371 H   0  0  0  0  0  0  0  0  0  0  0  0  # atno 641  bound_to 637 
   15.7256   12.7327    6.6392 H   0  0  0  0  0  0  0  0  0  0  0  0  # atno 681  bound_to 677 
   19.7167   11.8096   -1.8602 H   0  0  0  0  0  0  0  0  0  0  0  0  # atno 702  bound_to 698 
   -6.8241   17.1619   -0.7336 H   0  0  0  0  0  0  0  0  0  0  0  0  # atno 965  bound_to 957 
    1.3336   10.5436   10.5807 H   0  0  0  0  0  0  0  0  0  0  0  0  # atno 1886 bound_to 1878
    9.6491    2.0242   -2.5138 H   0  0  0  0  0  0  0  0  0  0  0  0  # atno 2577 bound_to 2569
    7.1744    5.6827    1.4706 H   0  0  0  0  0  0  0  0  0  0  0  0  # atno 2891 bound_to 2887
   18.7780    2.6955    0.3438 H   0  0  0  0  0  0  0  0  0  0  0  0  # atno 3175 bound_to 3171
   14.4113    9.9953    9.7741 H   0  0  0  0  0  0  0  0  0  0  0  0  # atno 5278 bound_to 5270
   16.4327   13.9306    7.4145 LP  0  0  0  0  0  0  0  0  0  0  0  0  # atno 5914 bound_to 677 
   17.1899   13.1653    6.1867 LP  0  0  0  0  0  0  0  0  0  0  0  0  # atno 5915 bound_to 677 
   19.8490   11.7387   -0.2744 LP  0  0  0  0  0  0  0  0  0  0  0  0  # atno 5920 bound_to 698 
   21.1534   11.5260   -1.2334 LP  0  0  0  0  0  0  0  0  0  0  0  0  # atno 5921 bound_to 698 
    9.7984    3.3408   -3.3967 LP  0  0  0  0  0  0  0  0  0  0  0  0  # atno 5950 bound_to 2569
   11.1124    2.5922   -2.7807 LP  0  0  0  0  0  0  0  0  0  0  0  0  # atno 5951 bound_to 2569
    7.9185    6.9901    0.9474 LP  0  0  0  0  0  0  0  0  0  0  0  0  # atno 5982 bound_to 2887
    8.2056    5.5341    0.2660 LP  0  0  0  0  0  0  0  0  0  0  0  0  # atno 5983 bound_to 2887
   17.9164    1.9348   -0.7584 LP  0  0  0  0  0  0  0  0  0  0  0  0  # atno 6000 bound_to 3171
   19.2097    2.8372   -1.1823 LP  0  0  0  0  0  0  0  0  0  0  0  0  # atno 6001 bound_to 3171
   13.2149   10.2190    8.7468 LP  0  0  0  0  0  0  0  0  0  0  0  0  # atno 6004 bound_to 5270
   12.9188    9.8315   10.3053 LP  0  0  0  0  0  0  0  0  0  0  0  0  # atno 6005 bound_to 5270
   11.0429   19.6772    8.7377 LP  0  0  0  0  0  0  0  0  0  0  0  0  # atno 6055 bound_to 637 
    9.5360   19.4599    8.1473 LP  0  0  0  0  0  0  0  0  0  0  0  0  # atno 6056 bound_to 637 
    0.7473   11.9319   11.0948 LP  0  0  0  0  0  0  0  0  0  0  0  0  # atno 6063 bound_to 1878
    2.2342   11.8475   10.4249 LP  0  0  0  0  0  0  0  0  0  0  0  0  # atno 6064 bound_to 1878
   -7.1483   15.7420   -0.0903 LP  0  0  0  0  0  0  0  0  0  0  0  0  # atno 6067 bound_to 957 
   -6.4726   15.8552   -1.5726 LP  0  0  0  0  0  0  0  0  0  0  0  0  # atno 6068 bound_to 957 

>  <STRIFE_LigEff_Score>  (10) 
2.437205555555556

$$$$
unknown|pharmsElabsTestMulti|sdf|1|dock2
     RDKit          3D

 17 17  0  0  0  0  0  0  0  0999 V2000
   14.6464    9.2095    1.3838 C   0  0  0  0  0  0  0  0  0  0  0  0
   13.7489    8.0187    1.6739 C   0  0  0  0  0  0  0  0  0  0  0  0
   13.9913    6.8428    0.8477 N   0  0  0  0  0  0  0  0  0  0  0  0
   12.2718    8.3314    2.0531 C   0  0  0  0  0  0  0  0  0  0  0  0
   11.3630    7.1687    2.4913 C   0  0  0  0  0  0  0  0  0  0  0  0
    9.9012    7.6233    2.3371 C   0  0  0  0  0  0  0  0  0  0  0  0
    9.6265    8.8764    3.1889 C   0  0  0  0  0  0  0  0  0  0  0  0
    8.2143    9.3602    2.9968 C   0  0  0  0  0  0  0  0  0  0  0  0
    7.8231    9.7707    1.8678 O   0  0  0  0  0  0  0  0  0  0  0  0
    7.3357    9.3698    4.1277 N   0  0  0  0  0  0  0  0  0  0  0  0
    5.9646    9.7773    4.1010 C   0  0  0  0  0  0  0  0  0  0  0  0
    5.4327   10.1960    3.0370 O   0  0  0  0  0  0  0  0  0  0  0  0
    5.2001    9.7056    5.3048 N   0  0  0  0  0  0  0  0  0  0  0  0
    3.8578   10.0985    5.3309 N   0  0  0  0  0  0  0  0  0  0  0  0
    3.1021    9.7993    4.3847 O   0  0  0  0  0  0  0  0  0  0  0  0
   10.6278   10.0166    2.9213 C   0  0  0  0  0  0  0  0  0  0  0  0
   12.0800    9.5245    3.0057 C   0  0  0  0  0  0  0  0  0  0  0  0
  1  2  1  0
  2  3  1  0
  2  4  1  0
  4  5  1  0
  5  6  1  0
  6  7  1  0
  7  8  1  0
  8  9  2  0
  8 10  1  0
 10 11  1  0
 11 12  2  0
 11 13  1  0
 13 14  1  0
 14 15  2  0
  7 16  1  0
 16 17  1  0
 17  4  1  0
M  CHG  1   3   1
M  END
>  <EmbedRMS>  (11) 
0.18747540890302497

>  <Gold.Version>  (11) 
2020.3.0

>  <Gold.Id.Protein>  (11) 
unknown|1q8t_protein|pdb

>  <Gold.PLP.Fitness>  (11) 
39.7574

>  <Gold.PLP.PLP>  (11) 
-28.0655

>  <Gold.PLP.part.hbond>  (11) 
-3.0000

>  <Gold.PLP.part.metal>  (11) 
0.0000

>  <Gold.PLP.part.buried>  (11) 
-7.1899

>  <Gold.PLP.part.nonpolar>  (11) 
-18.2156

>  <Gold.PLP.part.repulsive>  (11) 
0.2969

>  <Gold.PLP.ligand.clash>  (11) 
0.0000

>  <Gold.PLP.ligand.torsion>  (11) 
0.3440

>  <Gold.PLP.Chemscore.Hbond>  (11) 
3.9920

>  <Gold.PLP.Chemscore.CHOScore>  (11) 
0.0000

>  <Gold.PLP.Chemscore.Metal>  (11) 
0.0000

>  <Gold.Chemscore.Hbonds>  (11) 
donor molecule, donor type, donor heavy atom, donor atom, acceptor molecule, acceptor atom, score
      L1  H     3    22       P1  2902  2.00
      L1  H     3    23       P1  2691  0.99
      P1  H  1888  1903       L1    15  1.00

>  <Gold.PLP.Chemscore.Internal.Correction>  (11) 
0.4038

>  <Gold.PLP.Constraint>  (11) 
-0.0000

>  <Gold.Protein.RotatedTorsions>  (11) 
[  681  677  676  673 ] final  -78.15 input -179.99 | X-H torsion
[  702  698  697  694 ] final  -32.07 input  179.99 | X-H torsion
[ 2577 2569 2568 2566 ] final  -70.36 input   -0.13 | X-H torsion
[ 2891 2887 2886 2883 ] final -120.00 input  179.98 | X-H torsion
[ 3175 3171 3170 3167 ] final   83.09 input -179.99 | X-H torsion
[ 5278 5270 5269 5267 ] final   37.91 input    0.55 | X-H torsion
[  641  637  636  633 ] final -171.75 input  179.99 | X-H torsion
[ 1886 1878 1877 1875 ] final  -50.02 input    1.60 | X-H torsion
[  965  957  956  954 ] final   45.68 input    0.45 | X-H torsion

>  <Gold.Protein.ActiveResidues>  (11) 
 LYS47   THR48   LEU49   GLY50   THR51   GLY52   SER53   PHE54   GLY55   ARG56  
 VAL57   MET58   LEU59   TYR69   ALA70   MET71   LYS72   ILE73   LEU74   GLU91  
 LEU95   VAL104  LYS105  MET118  VAL119  MET120  GLU121  TYR122  VAL123  PRO124 
 GLY125  GLY126  GLU127  MET128  PHE129  TYR164  ASP166  LEU167  LYS168  PRO169 
 GLU170  ASN171  LEU172  LEU173  ILE174  GLN181  VAL182  THR183  ASP184  PHE185 
 GLY186  PHE187  GLY200  THR201  ASN326  PHE327  TYR330  ARG18   ARG19   ASN20  
 ALA21   ILE22   HIS23  

>  <Gold.Protein.RotatedAtoms>  (11) 
   11.3628   19.3160    8.1018 H   0  0  0  0  0  0  0  0  0  0  0  0  # atno 641  bound_to 637 
   15.7332   13.3894    7.2856 H   0  0  0  0  0  0  0  0  0  0  0  0  # atno 681  bound_to 677 
   19.8654   11.7535   -0.3190 H   0  0  0  0  0  0  0  0  0  0  0  0  # atno 702  bound_to 698 
   -7.0024   15.5011   -0.3766 H   0  0  0  0  0  0  0  0  0  0  0  0  # atno 965  bound_to 957 
    1.8282   10.6829   10.3863 H   0  0  0  0  0  0  0  0  0  0  0  0  # atno 1886 bound_to 1878
   10.7818    3.1983   -3.2461 H   0  0  0  0  0  0  0  0  0  0  0  0  # atno 2577 bound_to 2569
    7.1549    5.8431    1.5317 H   0  0  0  0  0  0  0  0  0  0  0  0  # atno 2891 bound_to 2887
   18.1746    2.0534   -1.1461 H   0  0  0  0  0  0  0  0  0  0  0  0  # atno 3175 bound_to 3171
   12.7058   10.1015    9.2714 H   0  0  0  0  0  0  0  0  0  0  0  0  # atno 5278 bound_to 5270
   17.1975   13.8178    6.8288 LP  0  0  0  0  0  0  0  0  0  0  0  0  # atno 5914 bound_to 677 
   16.4170   12.5870    6.0920 LP  0  0  0  0  0  0  0  0  0  0  0  0  # atno 5915 bound_to 677 
   21.1540   11.5258   -1.2272 LP  0  0  0  0  0  0  0  0  0  0  0  0  # atno 5920 bound_to 698 
   19.6920   11.7979   -1.9018 LP  0  0  0  0  0  0  0  0  0  0  0  0  # atno 5921 bound_to 698 
   10.4600    1.9159   -2.3589 LP  0  0  0  0  0  0  0  0  0  0  0  0  # atno 5950 bound_to 2569
    9.2582    2.7808   -3.0475 LP  0  0  0  0  0  0  0  0  0  0  0  0  # atno 5951 bound_to 2569
    8.0318    6.9588    0.8087 LP  0  0  0  0  0  0  0  0  0  0  0  0  # atno 5982 bound_to 2887
    8.1130    5.3966    0.3404 LP  0  0  0  0  0  0  0  0  0  0  0  0  # atno 5983 bound_to 2887
   19.3806    3.0190   -0.7604 LP  0  0  0  0  0  0  0  0  0  0  0  0  # atno 6000 bound_to 3171
   18.3806    2.4287    0.3877 LP  0  0  0  0  0  0  0  0  0  0  0  0  # atno 6001 bound_to 3171
   13.6443    9.7864   10.5191 LP  0  0  0  0  0  0  0  0  0  0  0  0  # atno 6004 bound_to 5270
   14.2839   10.1525    9.0618 LP  0  0  0  0  0  0  0  0  0  0  0  0  # atno 6005 bound_to 5270
    9.9830   19.7511    8.7665 LP  0  0  0  0  0  0  0  0  0  0  0  0  # atno 6055 bound_to 637 
   10.0146   19.0072    7.3132 LP  0  0  0  0  0  0  0  0  0  0  0  0  # atno 6056 bound_to 637 
    0.5744   11.3802   11.0770 LP  0  0  0  0  0  0  0  0  0  0  0  0  # atno 6063 bound_to 1878
    1.8863   12.2525   10.6474 LP  0  0  0  0  0  0  0  0  0  0  0  0  # atno 6064 bound_to 1878
   -6.4299   16.2529   -1.6581 LP  0  0  0  0  0  0  0  0  0  0  0  0  # atno 6067 bound_to 957 
   -7.0033   17.0933   -0.3808 LP  0  0  0  0  0  0  0  0  0  0  0  0  # atno 6068 bound_to 957 

>  <STRIFE_LigEff_Score>  (11) 
2.338670588235294

$$$$
unknown|pharmsElabsTestMulti|sdf|20|dock6
     RDKit          3D

 20 21  0  0  0  0  0  0  0  0999 V2000
    5.3822   10.0962    5.5896 C   0  0  0  0  0  0  0  0  0  0  0  0
    5.1193    9.7482    4.1554 C   0  0  0  0  0  0  0  0  0  0  0  0
    3.8660    9.2503    3.7717 C   0  0  0  0  0  0  0  0  0  0  0  0
    3.6101    8.9497    2.4324 C   0  0  0  0  0  0  0  0  0  0  0  0
    4.5944    9.1614    1.4646 C   0  0  0  0  0  0  0  0  0  0  0  0
    5.8494    9.6700    1.8282 C   0  0  0  0  0  0  0  0  0  0  0  0
    6.8824    9.9322    0.7597 C   0  0  0  0  0  0  0  0  0  0  0  0
    8.2310    9.9985    1.3437 N   0  0  0  0  0  0  0  0  0  0  0  0
    8.7258    8.9197    2.1558 C   0  0  0  0  0  0  0  0  0  0  0  0
    7.9676    7.9557    2.4175 O   0  0  0  0  0  0  0  0  0  0  0  0
   10.1006    8.8217    2.7490 C   0  0  0  0  0  0  0  0  0  0  0  0
   11.0217    7.8739    1.9968 C   0  0  0  0  0  0  0  0  0  0  0  0
   12.3263    7.5636    2.7224 C   0  0  0  0  0  0  0  0  0  0  0  0
   12.7797    8.6773    3.6845 C   0  0  0  0  0  0  0  0  0  0  0  0
   14.1753    8.2989    4.2828 C   0  0  0  0  0  0  0  0  0  0  0  0
   14.1929    6.8216    4.7157 C   0  0  0  0  0  0  0  0  0  0  0  0
   15.2758    8.5387    3.3391 N   0  0  0  0  0  0  0  0  0  0  0  0
   11.6925    8.8790    4.7707 C   0  0  0  0  0  0  0  0  0  0  0  0
   10.2508    9.0461    4.2418 C   0  0  0  0  0  0  0  0  0  0  0  0
    6.1066    9.9656    3.1798 C   0  0  0  0  0  0  0  0  0  0  0  0
  1  2  1  0
  2  3  2  0
  3  4  1  0
  4  5  2  0
  5  6  1  0
  6  7  1  0
  7  8  1  0
  8  9  1  0
  9 10  2  0
  9 11  1  0
 11 12  1  0
 12 13  1  0
 13 14  1  0
 14 15  1  0
 15 16  1  0
 15 17  1  0
 14 18  1  0
 18 19  1  0
  6 20  2  0
 20  2  1  0
 19 11  1  0
M  CHG  1  17   1
M  END
>  <EmbedRMS>  (12) 
0.16810927383701896

>  <Gold.Version>  (12) 
2020.3.0

>  <Gold.Id.Protein>  (12) 
unknown|1q8t_protein|pdb

>  <Gold.PLP.Fitness>  (12) 
53.8624

>  <Gold.PLP.PLP>  (12) 
-49.0981

>  <Gold.PLP.part.hbond>  (12) 
-1.8826

>  <Gold.PLP.part.metal>  (12) 
0.0000

>  <Gold.PLP.part.buried>  (12) 
-2.8159

>  <Gold.PLP.part.nonpolar>  (12) 
-45.8423

>  <Gold.PLP.part.repulsive>  (12) 
0.0045

>  <Gold.PLP.ligand.clash>  (12) 
0.0000

>  <Gold.PLP.ligand.torsion>  (12) 
0.9866

>  <Gold.PLP.Chemscore.Hbond>  (12) 
2.0000

>  <Gold.PLP.Chemscore.CHOScore>  (12) 
0.0000

>  <Gold.PLP.Chemscore.Metal>  (12) 
0.0000

>  <Gold.Chemscore.Hbonds>  (12) 
donor molecule, donor type, donor heavy atom, donor atom, acceptor molecule, acceptor atom, score
      L1  H    17    42       P1   675  1.00
      P1  H  2887  2891       L1    10  1.00

>  <Gold.PLP.Chemscore.Internal.Correction>  (12) 
0.7375

>  <Gold.PLP.Constraint>  (12) 
-0.0000

>  <Gold.Protein.RotatedTorsions>  (12) 
[  681  677  676  673 ] final -118.06 input -179.99 | X-H torsion
[  702  698  697  694 ] final  126.64 input  179.99 | X-H torsion
[ 2577 2569 2568 2566 ] final -145.92 input   -0.13 | X-H torsion
[ 2891 2887 2886 2883 ] final  144.03 input  179.98 | X-H torsion
[ 3175 3171 3170 3167 ] final   71.51 input -179.99 | X-H torsion
[ 5278 5270 5269 5267 ] final  -45.25 input    0.55 | X-H torsion
[  641  637  636  633 ] final -174.69 input  179.99 | X-H torsion
[ 1886 1878 1877 1875 ] final   75.95 input    1.60 | X-H torsion
[  965  957  956  954 ] final   14.44 input    0.45 | X-H torsion

>  <Gold.Protein.ActiveResidues>  (12) 
 LYS47   THR48   LEU49   GLY50   THR51   GLY52   SER53   PHE54   GLY55   ARG56  
 VAL57   MET58   LEU59   TYR69   ALA70   MET71   LYS72   ILE73   LEU74   GLU91  
 LEU95   VAL104  LYS105  MET118  VAL119  MET120  GLU121  TYR122  VAL123  PRO124 
 GLY125  GLY126  GLU127  MET128  PHE129  TYR164  ASP166  LEU167  LYS168  PRO169 
 GLU170  ASN171  LEU172  LEU173  ILE174  GLN181  VAL182  THR183  ASP184  PHE185 
 GLY186  PHE187  GLY200  THR201  ASN326  PHE327  TYR330  ARG18   ARG19   ASN20  
 ALA21   ILE22   HIS23  

>  <Gold.Protein.RotatedAtoms>  (12) 
   11.3607   19.3370    8.1427 H   0  0  0  0  0  0  0  0  0  0  0  0  # atno 641  bound_to 637 
   16.1707   13.7956    7.4173 H   0  0  0  0  0  0  0  0  0  0  0  0  # atno 681  bound_to 677 
   20.2836   11.7124   -2.0298 H   0  0  0  0  0  0  0  0  0  0  0  0  # atno 702  bound_to 698 
   -6.8108   15.3735   -0.8003 H   0  0  0  0  0  0  0  0  0  0  0  0  # atno 965  bound_to 957 
    1.7817   12.2516   10.6744 H   0  0  0  0  0  0  0  0  0  0  0  0  # atno 1886 bound_to 1878
   10.9667    2.3163   -2.6201 H   0  0  0  0  0  0  0  0  0  0  0  0  # atno 2577 bound_to 2569
    7.7654    6.9394    1.0871 H   0  0  0  0  0  0  0  0  0  0  0  0  # atno 2891 bound_to 2887
   18.2942    2.1271   -1.2596 H   0  0  0  0  0  0  0  0  0  0  0  0  # atno 3175 bound_to 3171
   13.0836    9.8351   10.3672 H   0  0  0  0  0  0  0  0  0  0  0  0  # atno 5278 bound_to 5270
   17.2853   13.3932    6.3534 LP  0  0  0  0  0  0  0  0  0  0  0  0  # atno 5914 bound_to 677 
   15.8688   12.5841    6.4288 LP  0  0  0  0  0  0  0  0  0  0  0  0  # atno 5915 bound_to 677 
   19.4004   11.8266   -0.7091 LP  0  0  0  0  0  0  0  0  0  0  0  0  # atno 5920 bound_to 698 
   21.0057   11.5403   -0.6204 LP  0  0  0  0  0  0  0  0  0  0  0  0  # atno 5921 bound_to 698 
    9.3783    2.2077   -2.6407 LP  0  0  0  0  0  0  0  0  0  0  0  0  # atno 5950 bound_to 2569
   10.1452    3.4177   -3.4247 LP  0  0  0  0  0  0  0  0  0  0  0  0  # atno 5951 bound_to 2569
    8.2929    5.7197    0.2093 LP  0  0  0  0  0  0  0  0  0  0  0  0  # atno 5982 bound_to 2887
    7.2093    5.4818    1.4075 LP  0  0  0  0  0  0  0  0  0  0  0  0  # atno 5983 bound_to 2887
   19.3933    3.0529   -0.5738 LP  0  0  0  0  0  0  0  0  0  0  0  0  # atno 6000 bound_to 3171
   18.2419    2.3172    0.3205 LP  0  0  0  0  0  0  0  0  0  0  0  0  # atno 6001 bound_to 3171
   14.4731   10.0190    9.6109 LP  0  0  0  0  0  0  0  0  0  0  0  0  # atno 6004 bound_to 5270
   13.0576   10.2000    8.8171 LP  0  0  0  0  0  0  0  0  0  0  0  0  # atno 6005 bound_to 5270
    9.9422   19.7410    8.7423 LP  0  0  0  0  0  0  0  0  0  0  0  0  # atno 6055 bound_to 637 
   10.0576   18.9952    7.2942 LP  0  0  0  0  0  0  0  0  0  0  0  0  # atno 6056 bound_to 637 
    1.9324   10.6976   10.3618 LP  0  0  0  0  0  0  0  0  0  0  0  0  # atno 6063 bound_to 1878
    0.5773   11.2838   11.0593 LP  0  0  0  0  0  0  0  0  0  0  0  0  # atno 6064 bound_to 1878
   -6.4792   16.7441   -1.5395 LP  0  0  0  0  0  0  0  0  0  0  0  0  # atno 6067 bound_to 957 
   -7.1557   16.7366   -0.0532 LP  0  0  0  0  0  0  0  0  0  0  0  0  # atno 6068 bound_to 957 

>  <STRIFE_LigEff_Score>  (12) 
2.69312

$$$$
unknown|pharmsElabsTestMulti|sdf|21|dock10
     RDKit          3D

 17 18  0  0  0  0  0  0  0  0999 V2000
   14.3130    7.4648    3.6812 C   0  0  0  0  0  0  0  0  0  0  0  0
   13.5002    7.9102    2.4561 C   0  0  0  0  0  0  0  0  0  0  0  0
   13.8814    7.1163    1.2825 N   0  0  0  0  0  0  0  0  0  0  0  0
   11.9437    7.9845    2.6452 C   0  0  0  0  0  0  0  0  0  0  0  0
   11.1006    7.6839    1.3917 C   0  0  0  0  0  0  0  0  0  0  0  0
    9.7386    8.3527    1.3594 C   0  0  0  0  0  0  0  0  0  0  0  0
    9.0557    8.3584    2.7224 C   0  0  0  0  0  0  0  0  0  0  0  0
    7.6675    8.9318    2.5834 C   0  0  0  0  0  0  0  0  0  0  0  0
    6.9537    8.6280    1.5858 O   0  0  0  0  0  0  0  0  0  0  0  0
    7.1771    9.8484    3.5673 N   0  0  0  0  0  0  0  0  0  0  0  0
    5.8175   10.3765    3.5413 C   0  0  0  0  0  0  0  0  0  0  0  0
    5.0619    9.9829    4.8179 C   0  0  0  0  0  0  0  0  0  0  0  0
    5.7762   10.0895    6.1682 C   0  0  0  0  0  0  0  0  0  0  0  0
    3.9759    8.9248    4.6947 C   0  0  0  0  0  0  0  0  0  0  0  0
    3.5977   10.3959    4.8389 C   0  0  0  0  0  0  0  0  0  0  0  0
    9.8625    9.1846    3.7308 C   0  0  0  0  0  0  0  0  0  0  0  0
   11.3774    8.9017    3.7493 C   0  0  0  0  0  0  0  0  0  0  0  0
  1  2  1  0
  2  3  1  0
  2  4  1  0
  4  5  1  0
  5  6  1  0
  6  7  1  0
  7  8  1  0
  8  9  2  0
  8 10  1  0
 10 11  1  0
 11 12  1  0
 12 13  1  0
 12 14  1  0
 14 15  1  0
  7 16  1  0
 16 17  1  0
 17  4  1  0
 15 12  1  0
M  CHG  1   3   1
M  END
>  <EmbedRMS>  (13) 
0.16887367645226622

>  <Gold.Version>  (13) 
2020.3.0

>  <Gold.Id.Protein>  (13) 
unknown|1q8t_protein|pdb

>  <Gold.PLP.Fitness>  (13) 
47.5240

>  <Gold.PLP.PLP>  (13) 
-37.4542

>  <Gold.PLP.part.hbond>  (13) 
-2.9304

>  <Gold.PLP.part.metal>  (13) 
0.0000

>  <Gold.PLP.part.buried>  (13) 
-1.2675

>  <Gold.PLP.part.nonpolar>  (13) 
-33.6706

>  <Gold.PLP.part.repulsive>  (13) 
0.0500

>  <Gold.PLP.ligand.clash>  (13) 
0.0000

>  <Gold.PLP.ligand.torsion>  (13) 
1.3792

>  <Gold.PLP.Chemscore.Hbond>  (13) 
3.8800

>  <Gold.PLP.Chemscore.CHOScore>  (13) 
0.0000

>  <Gold.PLP.Chemscore.Metal>  (13) 
0.0000

>  <Gold.Chemscore.Hbonds>  (13) 
donor molecule, donor type, donor heavy atom, donor atom, acceptor molecule, acceptor atom, score
      L1  H     3    22       P1  2691  1.00
      L1  H     3    24       P1  2902  2.00
      P1  H  2887  2891       L1     9  0.88

>  <Gold.PLP.Chemscore.Internal.Correction>  (13) 
1.1882

>  <Gold.PLP.Constraint>  (13) 
-0.0000

>  <Gold.Protein.RotatedTorsions>  (13) 
[  681  677  676  673 ] final   36.58 input -179.99 | X-H torsion
[  702  698  697  694 ] final  -76.57 input  179.99 | X-H torsion
[ 2577 2569 2568 2566 ] final   32.45 input   -0.13 | X-H torsion
[ 2891 2887 2886 2883 ] final  158.28 input  179.98 | X-H torsion
[ 3175 3171 3170 3167 ] final  -37.06 input -179.99 | X-H torsion
[ 5278 5270 5269 5267 ] final  145.65 input    0.55 | X-H torsion
[  641  637  636  633 ] final  178.84 input  179.99 | X-H torsion
[ 1886 1878 1877 1875 ] final   23.39 input    1.60 | X-H torsion
[  965  957  956  954 ] final  123.07 input    0.45 | X-H torsion

>  <Gold.Protein.ActiveResidues>  (13) 
 LYS47   THR48   LEU49   GLY50   THR51   GLY52   SER53   PHE54   GLY55   ARG56  
 VAL57   MET58   LEU59   TYR69   ALA70   MET71   LYS72   ILE73   LEU74   GLU91  
 LEU95   VAL104  LYS105  MET118  VAL119  MET120  GLU121  TYR122  VAL123  PRO124 
 GLY125  GLY126  GLU127  MET128  PHE129  TYR164  ASP166  LEU167  LYS168  PRO169 
 GLU170  ASN171  LEU172  LEU173  ILE174  GLN181  VAL182  THR183  ASP184  PHE185 
 GLY186  PHE187  GLY200  THR201  ASN326  PHE327  TYR330  ARG18   ARG19   ASN20  
 ALA21   ILE22   HIS23  

>  <Gold.Protein.RotatedAtoms>  (13) 
   11.3479   19.3831    8.2316 H   0  0  0  0  0  0  0  0  0  0  0  0  # atno 641  bound_to 637 
   16.3362   12.6124    6.1416 H   0  0  0  0  0  0  0  0  0  0  0  0  # atno 681  bound_to 677 
   20.5331   11.6347   -0.2935 H   0  0  0  0  0  0  0  0  0  0  0  0  # atno 702  bound_to 698 
   -7.1552   16.5509   -0.0189 H   0  0  0  0  0  0  0  0  0  0  0  0  # atno 965  bound_to 957 
    2.2347   11.6732   10.3761 H   0  0  0  0  0  0  0  0  0  0  0  0  # atno 1886 bound_to 1878
    9.4015    2.9730   -3.1908 H   0  0  0  0  0  0  0  0  0  0  0  0  # atno 2577 bound_to 2569
    7.6184    6.8803    1.2432 H   0  0  0  0  0  0  0  0  0  0  0  0  # atno 2891 bound_to 2887
   19.3540    2.9796   -0.7443 H   0  0  0  0  0  0  0  0  0  0  0  0  # atno 3175 bound_to 3171
   14.1156   10.1937    8.9570 H   0  0  0  0  0  0  0  0  0  0  0  0  # atno 5278 bound_to 5270
   15.7477   13.4495    7.3618 LP  0  0  0  0  0  0  0  0  0  0  0  0  # atno 5914 bound_to 677 
   17.2321   13.7731    6.7631 LP  0  0  0  0  0  0  0  0  0  0  0  0  # atno 5915 bound_to 677 
   20.8278   11.5958   -1.8584 LP  0  0  0  0  0  0  0  0  0  0  0  0  # atno 5920 bound_to 698 
   19.3159   11.8530   -1.2975 LP  0  0  0  0  0  0  0  0  0  0  0  0  # atno 5921 bound_to 698 
   10.9895    3.0634   -3.1169 LP  0  0  0  0  0  0  0  0  0  0  0  0  # atno 5950 bound_to 2569
   10.1820    1.8705   -2.3477 LP  0  0  0  0  0  0  0  0  0  0  0  0  # atno 5951 bound_to 2569
    8.3575    5.9436    0.1882 LP  0  0  0  0  0  0  0  0  0  0  0  0  # atno 5982 bound_to 2887
    7.2994    5.3201    1.2644 LP  0  0  0  0  0  0  0  0  0  0  0  0  # atno 5983 bound_to 2887
   18.3789    2.4274    0.3871 LP  0  0  0  0  0  0  0  0  0  0  0  0  # atno 6000 bound_to 3171
   18.1411    2.0456   -1.1827 LP  0  0  0  0  0  0  0  0  0  0  0  0  # atno 6001 bound_to 3171
   12.6043   10.0425    9.4364 LP  0  0  0  0  0  0  0  0  0  0  0  0  # atno 6004 bound_to 5270
   13.8405    9.7992   10.4754 LP  0  0  0  0  0  0  0  0  0  0  0  0  # atno 6005 bound_to 5270
    9.8577   19.7155    8.6831 LP  0  0  0  0  0  0  0  0  0  0  0  0  # atno 6055 bound_to 637 
   10.1555   18.9722    7.2599 LP  0  0  0  0  0  0  0  0  0  0  0  0  # atno 6056 bound_to 637 
    1.1753   10.5202   10.6654 LP  0  0  0  0  0  0  0  0  0  0  0  0  # atno 6063 bound_to 1878
    0.8576   12.0701   11.0698 LP  0  0  0  0  0  0  0  0  0  0  0  0  # atno 6064 bound_to 1878
   -6.7488   15.3455   -0.9764 LP  0  0  0  0  0  0  0  0  0  0  0  0  # atno 6067 bound_to 957 
   -6.5234   16.8952   -1.4392 LP  0  0  0  0  0  0  0  0  0  0  0  0  # atno 6068 bound_to 957 

>  <STRIFE_LigEff_Score>  (13) 
2.795529411764706

$$$$
unknown|pharmsElabsTestMulti|sdf|22|dock4
     RDKit          3D

 16 16  0  0  0  0  0  0  0  0999 V2000
   13.3005    7.2170    3.8417 C   0  0  0  0  0  0  0  0  0  0  0  0
   12.9550    8.0398    2.5872 C   0  0  0  0  0  0  0  0  0  0  0  0
   13.2112    7.2264    1.3905 N   0  0  0  0  0  0  0  0  0  0  0  0
   11.4780    8.5520    2.6584 C   0  0  0  0  0  0  0  0  0  0  0  0
   10.5592    7.3836    3.0601 C   0  0  0  0  0  0  0  0  0  0  0  0
    9.0771    7.7416    3.0585 C   0  0  0  0  0  0  0  0  0  0  0  0
    8.7913    9.2157    3.3006 C   0  0  0  0  0  0  0  0  0  0  0  0
    7.3434    9.5133    3.5560 C   0  0  0  0  0  0  0  0  0  0  0  0
    6.6628    9.7615    2.5317 O   0  0  0  0  0  0  0  0  0  0  0  0
    6.7052    9.5346    4.8436 N   0  0  0  0  0  0  0  0  0  0  0  0
    5.3205   10.0084    4.9884 C   0  0  0  0  0  0  0  0  0  0  0  0
    4.3640    9.2007    4.1028 C   0  0  0  0  0  0  0  0  0  0  0  0
    3.0263    9.7965    4.0800 N   0  0  0  0  0  0  0  0  0  0  0  0
    2.4498    9.5131    2.8286 N   0  0  0  0  0  0  0  0  0  0  0  0
    9.8258   10.1218    3.9413 C   0  0  0  0  0  0  0  0  0  0  0  0
   11.2900    9.7119    3.6691 C   0  0  0  0  0  0  0  0  0  0  0  0
  1  2  1  0
  2  3  1  0
  2  4  1  0
  4  5  1  0
  5  6  1  0
  6  7  1  0
  7  8  1  0
  8  9  2  0
  8 10  1  0
 10 11  1  0
 11 12  1  0
 12 13  1  0
 13 14  1  0
  7 15  1  0
 15 16  1  0
 16  4  1  0
M  CHG  1   3   1
M  END
>  <EmbedRMS>  (14) 
0.18953983231979948

>  <Gold.Version>  (14) 
2020.3.0

>  <Gold.Id.Protein>  (14) 
unknown|1q8t_protein|pdb

>  <Gold.PLP.Fitness>  (14) 
49.2355

>  <Gold.PLP.PLP>  (14) 
-38.1996

>  <Gold.PLP.part.hbond>  (14) 
-4.5758

>  <Gold.PLP.part.metal>  (14) 
0.0000

>  <Gold.PLP.part.buried>  (14) 
-6.6743

>  <Gold.PLP.part.nonpolar>  (14) 
-26.4373

>  <Gold.PLP.part.repulsive>  (14) 
0.0289

>  <Gold.PLP.ligand.clash>  (14) 
0.0000

>  <Gold.PLP.ligand.torsion>  (14) 
0.7965

>  <Gold.PLP.Chemscore.Hbond>  (14) 
3.9540

>  <Gold.PLP.Chemscore.CHOScore>  (14) 
0.0000

>  <Gold.PLP.Chemscore.Metal>  (14) 
0.0000

>  <Gold.Chemscore.Hbonds>  (14) 
donor molecule, donor type, donor heavy atom, donor atom, acceptor molecule, acceptor atom, score
      L1  H     3    22       P1  2902  2.00
      L1  H     3    23       P1  2691  0.82
      L1  H    14    36       P1  1855  0.69
      P1  H  1888  1903       L1    13  0.45

>  <Gold.PLP.Chemscore.Internal.Correction>  (14) 
0.7669

>  <Gold.PLP.Constraint>  (14) 
-0.0000

>  <Gold.Protein.RotatedTorsions>  (14) 
[  681  677  676  673 ] final  -23.52 input -179.99 | X-H torsion
[  702  698  697  694 ] final   -6.95 input  179.99 | X-H torsion
[ 2577 2569 2568 2566 ] final  165.08 input   -0.13 | X-H torsion
[ 2891 2887 2886 2883 ] final  131.40 input  179.98 | X-H torsion
[ 3175 3171 3170 3167 ] final -162.02 input -179.99 | X-H torsion
[ 5278 5270 5269 5267 ] final  124.69 input    0.55 | X-H torsion
[  641  637  636  633 ] final   60.96 input  179.99 | X-H torsion
[ 1886 1878 1877 1875 ] final  154.39 input    1.60 | X-H torsion
[  965  957  956  954 ] final -128.05 input    0.45 | X-H torsion

>  <Gold.Protein.ActiveResidues>  (14) 
 LYS47   THR48   LEU49   GLY50   THR51   GLY52   SER53   PHE54   GLY55   ARG56  
 VAL57   MET58   LEU59   TYR69   ALA70   MET71   LYS72   ILE73   LEU74   GLU91  
 LEU95   VAL104  LYS105  MET118  VAL119  MET120  GLU121  TYR122  VAL123  PRO124 
 GLY125  GLY126  GLU127  MET128  PHE129  TYR164  ASP166  LEU167  LYS168  PRO169 
 GLU170  ASN171  LEU172  LEU173  ILE174  GLN181  VAL182  THR183  ASP184  PHE185 
 GLY186  PHE187  GLY200  THR201  ASN326  PHE327  TYR330  ARG18   ARG19   ASN20  
 ALA21   ILE22   HIS23  

>  <Gold.Protein.RotatedAtoms>  (14) 
    9.9132   19.6914    8.6784 H   0  0  0  0  0  0  0  0  0  0  0  0  # atno 641  bound_to 637 
   15.6787   12.7902    6.7253 H   0  0  0  0  0  0  0  0  0  0  0  0  # atno 681  bound_to 677 
   19.5595   11.8123   -0.5534 H   0  0  0  0  0  0  0  0  0  0  0  0  # atno 702  bound_to 698 
   -6.5754   16.9815   -1.2839 H   0  0  0  0  0  0  0  0  0  0  0  0  # atno 965  bound_to 957 
    0.7740   11.9073   11.0600 H   0  0  0  0  0  0  0  0  0  0  0  0  # atno 1886 bound_to 1878
   10.3781    1.9253   -2.3917 H   0  0  0  0  0  0  0  0  0  0  0  0  # atno 2577 bound_to 2569
    7.8949    6.9468    0.9388 H   0  0  0  0  0  0  0  0  0  0  0  0  # atno 2891 bound_to 2887
   18.3439    2.3709    0.3203 H   0  0  0  0  0  0  0  0  0  0  0  0  # atno 3175 bound_to 3171
   13.8342   10.2304    8.7965 H   0  0  0  0  0  0  0  0  0  0  0  0  # atno 5278 bound_to 5270
   16.5420   13.9598    7.3756 LP  0  0  0  0  0  0  0  0  0  0  0  0  # atno 5914 bound_to 677 
   17.1299   13.0757    6.1349 LP  0  0  0  0  0  0  0  0  0  0  0  0  # atno 5915 bound_to 677 
   21.1037   11.5268   -0.8203 LP  0  0  0  0  0  0  0  0  0  0  0  0  # atno 5920 bound_to 698 
   20.0641   11.7351   -2.0623 LP  0  0  0  0  0  0  0  0  0  0  0  0  # atno 5921 bound_to 698 
    9.2773    2.8411   -3.0880 LP  0  0  0  0  0  0  0  0  0  0  0  0  # atno 5950 bound_to 2569
   10.8659    3.1960   -3.2180 LP  0  0  0  0  0  0  0  0  0  0  0  0  # atno 5951 bound_to 2569
    8.2082    5.5385    0.2641 LP  0  0  0  0  0  0  0  0  0  0  0  0  # atno 5982 bound_to 2887
    7.1577    5.6553    1.5089 LP  0  0  0  0  0  0  0  0  0  0  0  0  # atno 5983 bound_to 2887
   18.1929    2.0769   -1.2374 LP  0  0  0  0  0  0  0  0  0  0  0  0  # atno 6000 bound_to 3171
   19.3900    3.0367   -0.6787 LP  0  0  0  0  0  0  0  0  0  0  0  0  # atno 6001 bound_to 3171
   12.6024    9.9604    9.7695 LP  0  0  0  0  0  0  0  0  0  0  0  0  # atno 6004 bound_to 5270
   14.1385    9.8428   10.3111 LP  0  0  0  0  0  0  0  0  0  0  0  0  # atno 6005 bound_to 5270
   10.1231   18.9791    7.2700 LP  0  0  0  0  0  0  0  0  0  0  0  0  # atno 6055 bound_to 637 
   11.4011   19.3839    8.2024 LP  0  0  0  0  0  0  0  0  0  0  0  0  # atno 6056 bound_to 637 
    2.2333   11.8495   10.4257 LP  0  0  0  0  0  0  0  0  0  0  0  0  # atno 6063 bound_to 1878
    1.3372   10.4942   10.5896 LP  0  0  0  0  0  0  0  0  0  0  0  0  # atno 6064 bound_to 1878
   -7.2068   16.3877    0.0517 LP  0  0  0  0  0  0  0  0  0  0  0  0  # atno 6067 bound_to 957 
   -6.6761   15.3995   -1.1351 LP  0  0  0  0  0  0  0  0  0  0  0  0  # atno 6068 bound_to 957 

>  <STRIFE_LigEff_Score>  (14) 
3.07721875

$$$$
unknown|pharmsElabsTestMulti|sdf|23|dock5
     RDKit          3D

 17 17  0  0  0  0  0  0  0  0999 V2000
   14.5988    7.4355    2.7659 C   0  0  0  0  0  0  0  0  0  0  0  0
   13.3557    7.6660    1.9070 C   0  0  0  0  0  0  0  0  0  0  0  0
   13.4673    8.9177    1.1455 N   0  0  0  0  0  0  0  0  0  0  0  0
   11.9739    7.5085    2.5715 C   0  0  0  0  0  0  0  0  0  0  0  0
   10.7184    7.2790    1.6882 C   0  0  0  0  0  0  0  0  0  0  0  0
    9.6020    8.2997    1.8551 C   0  0  0  0  0  0  0  0  0  0  0  0
    9.3345    8.6000    3.3278 C   0  0  0  0  0  0  0  0  0  0  0  0
    8.1328    9.4934    3.4722 C   0  0  0  0  0  0  0  0  0  0  0  0
    7.5292    9.9224    2.4490 O   0  0  0  0  0  0  0  0  0  0  0  0
    7.6935    9.8724    4.7782 N   0  0  0  0  0  0  0  0  0  0  0  0
    6.5151   10.7075    4.9764 C   0  0  0  0  0  0  0  0  0  0  0  0
    5.2806    9.9175    4.6870 C   0  0  0  0  0  0  0  0  0  0  0  0
    5.2778    9.0907    3.7361 O   0  0  0  0  0  0  0  0  0  0  0  0
    4.1345   10.0452    5.5306 N   0  0  0  0  0  0  0  0  0  0  0  0
    3.0230    9.3075    5.2998 O   0  0  0  0  0  0  0  0  0  0  0  0
   10.5648    9.2658    3.9336 C   0  0  0  0  0  0  0  0  0  0  0  0
   11.7983    8.3678    3.8611 C   0  0  0  0  0  0  0  0  0  0  0  0
  1  2  1  0
  2  3  1  0
  2  4  1  0
  4  5  1  0
  5  6  1  0
  6  7  1  0
  7  8  1  0
  8  9  2  0
  8 10  1  0
 10 11  1  0
 11 12  1  0
 12 13  2  0
 12 14  1  0
 14 15  1  0
  7 16  1  0
 16 17  1  0
 17  4  1  0
M  CHG  1   3   1
M  END
>  <EmbedRMS>  (15) 
0.20786673572978834

>  <Gold.Version>  (15) 
2020.3.0

>  <Gold.Id.Protein>  (15) 
unknown|1q8t_protein|pdb

>  <Gold.PLP.Fitness>  (15) 
43.8779

>  <Gold.PLP.PLP>  (15) 
-32.9765

>  <Gold.PLP.part.hbond>  (15) 
-3.0000

>  <Gold.PLP.part.metal>  (15) 
0.0000

>  <Gold.PLP.part.buried>  (15) 
-5.7358

>  <Gold.PLP.part.nonpolar>  (15) 
-24.3769

>  <Gold.PLP.part.repulsive>  (15) 
0.0582

>  <Gold.PLP.ligand.clash>  (15) 
0.0000

>  <Gold.PLP.ligand.torsion>  (15) 
0.5504

>  <Gold.PLP.Chemscore.Hbond>  (15) 
3.8560

>  <Gold.PLP.Chemscore.CHOScore>  (15) 
0.0000

>  <Gold.PLP.Chemscore.Metal>  (15) 
0.0000

>  <Gold.Chemscore.Hbonds>  (15) 
donor molecule, donor type, donor heavy atom, donor atom, acceptor molecule, acceptor atom, score
      L1  H     3    23       P1  2902  2.00
      L1  H    15    35       P1  1891  0.99
      P1  H  1888  1903       L1    15  0.86

>  <Gold.PLP.Chemscore.Internal.Correction>  (15) 
0.4343

>  <Gold.PLP.Constraint>  (15) 
-0.0000

>  <Gold.Protein.RotatedTorsions>  (15) 
[  681  677  676  673 ] final -140.40 input -179.99 | X-H torsion
[  702  698  697  694 ] final  172.33 input  179.99 | X-H torsion
[ 2577 2569 2568 2566 ] final    5.69 input   -0.13 | X-H torsion
[ 2891 2887 2886 2883 ] final -118.97 input  179.98 | X-H torsion
[ 3175 3171 3170 3167 ] final  173.35 input -179.99 | X-H torsion
[ 5278 5270 5269 5267 ] final  -59.89 input    0.55 | X-H torsion
[  641  637  636  633 ] final  -99.57 input  179.99 | X-H torsion
[ 1886 1878 1877 1875 ] final   -6.97 input    1.60 | X-H torsion
[  965  957  956  954 ] final   84.08 input    0.45 | X-H torsion

>  <Gold.Protein.ActiveResidues>  (15) 
 LYS47   THR48   LEU49   GLY50   THR51   GLY52   SER53   PHE54   GLY55   ARG56  
 VAL57   MET58   LEU59   TYR69   ALA70   MET71   LYS72   ILE73   LEU74   GLU91  
 LEU95   VAL104  LYS105  MET118  VAL119  MET120  GLU121  TYR122  VAL123  PRO124 
 GLY125  GLY126  GLU127  MET128  PHE129  TYR164  ASP166  LEU167  LYS168  PRO169 
 GLU170  ASN171  LEU172  LEU173  ILE174  GLN181  VAL182  THR183  ASP184  PHE185 
 GLY186  PHE187  GLY200  THR201  ASN326  PHE327  TYR330  ARG18   ARG19   ASN20  
 ALA21   ILE22   HIS23  

>  <Gold.Protein.RotatedAtoms>  (15) 
   10.7589   18.9498    7.3185 H   0  0  0  0  0  0  0  0  0  0  0  0  # atno 641  bound_to 637 
   16.4857   13.9252    7.3506 H   0  0  0  0  0  0  0  0  0  0  0  0  # atno 681  bound_to 677 
   20.8987   11.5975   -1.7252 H   0  0  0  0  0  0  0  0  0  0  0  0  # atno 702  bound_to 698 
   -7.1551   15.9534   -0.0317 H   0  0  0  0  0  0  0  0  0  0  0  0  # atno 965  bound_to 957 
    2.2127   11.2099   10.3067 H   0  0  0  0  0  0  0  0  0  0  0  0  # atno 1886 bound_to 1878
    9.6839    3.2313   -3.3494 H   0  0  0  0  0  0  0  0  0  0  0  0  # atno 2577 bound_to 2569
    7.1558    5.8276    1.5269 H   0  0  0  0  0  0  0  0  0  0  0  0  # atno 2891 bound_to 2887
   18.0976    2.1618    0.1166 H   0  0  0  0  0  0  0  0  0  0  0  0  # atno 3175 bound_to 3171
   13.2945    9.8162   10.4529 H   0  0  0  0  0  0  0  0  0  0  0  0  # atno 5278 bound_to 5270
   17.1570   13.1138    6.1559 LP  0  0  0  0  0  0  0  0  0  0  0  0  # atno 5914 bound_to 677 
   15.6655   12.7271    6.6965 LP  0  0  0  0  0  0  0  0  0  0  0  0  # atno 5915 bound_to 677 
   19.3521   11.8493   -1.4392 LP  0  0  0  0  0  0  0  0  0  0  0  0  # atno 5920 bound_to 698 
   20.4070   11.6386   -0.2106 LP  0  0  0  0  0  0  0  0  0  0  0  0  # atno 5921 bound_to 698 
   11.1163    2.7250   -2.8726 LP  0  0  0  0  0  0  0  0  0  0  0  0  # atno 5950 bound_to 2569
    9.7579    1.9370   -2.4250 LP  0  0  0  0  0  0  0  0  0  0  0  0  # atno 5951 bound_to 2569
    8.0215    6.9632    0.8216 LP  0  0  0  0  0  0  0  0  0  0  0  0  # atno 5982 bound_to 2887
    8.1222    5.4084    0.3325 LP  0  0  0  0  0  0  0  0  0  0  0  0  # atno 5983 bound_to 2887
   18.4909    2.2733   -1.4224 LP  0  0  0  0  0  0  0  0  0  0  0  0  # atno 6000 bound_to 3171
   19.3513    3.0603   -0.2792 LP  0  0  0  0  0  0  0  0  0  0  0  0  # atno 6001 bound_to 3171
   14.4421   10.0758    9.3794 LP  0  0  0  0  0  0  0  0  0  0  0  0  # atno 6004 bound_to 5270
   12.8667   10.1632    8.9584 LP  0  0  0  0  0  0  0  0  0  0  0  0  # atno 6005 bound_to 5270
   11.0881   19.6583    8.7057 LP  0  0  0  0  0  0  0  0  0  0  0  0  # atno 6055 bound_to 637 
    9.5454   19.4857    8.1989 LP  0  0  0  0  0  0  0  0  0  0  0  0  # atno 6056 bound_to 637 
    0.7952   10.7570   10.8733 LP  0  0  0  0  0  0  0  0  0  0  0  0  # atno 6063 bound_to 1878
    1.2608   12.3210   10.9348 LP  0  0  0  0  0  0  0  0  0  0  0  0  # atno 6064 bound_to 1878
   -6.5231   15.6708   -1.4656 LP  0  0  0  0  0  0  0  0  0  0  0  0  # atno 6067 bound_to 957 
   -6.7493   17.1991   -0.9366 LP  0  0  0  0  0  0  0  0  0  0  0  0  # atno 6068 bound_to 957 

>  <STRIFE_LigEff_Score>  (15) 
2.58105294117647

$$$$
unknown|pharmsElabsTestMulti|sdf|24|dock6
     RDKit          3D

 18 18  0  0  0  0  0  0  0  0999 V2000
    3.5983    8.7765    1.8545 C   0  0  0  0  0  0  0  0  0  0  0  0
    4.4732    8.9309    3.0089 N   0  0  0  0  0  0  0  0  0  0  0  0
    3.9968    9.4587    4.2521 C   0  0  0  0  0  0  0  0  0  0  0  0
    2.7916    9.8075    4.3761 O   0  0  0  0  0  0  0  0  0  0  0  0
    4.9358    9.6357    5.4056 C   0  0  0  0  0  0  0  0  0  0  0  0
    6.1628   10.4530    4.9945 C   0  0  0  0  0  0  0  0  0  0  0  0
    7.3072    9.5841    4.7361 N   0  0  0  0  0  0  0  0  0  0  0  0
    7.8328    9.3796    3.4190 C   0  0  0  0  0  0  0  0  0  0  0  0
    7.3014    9.9523    2.4263 O   0  0  0  0  0  0  0  0  0  0  0  0
    9.0348    8.4948    3.2266 C   0  0  0  0  0  0  0  0  0  0  0  0
    9.3741    8.3735    1.7423 C   0  0  0  0  0  0  0  0  0  0  0  0
   10.4931    7.3697    1.5048 C   0  0  0  0  0  0  0  0  0  0  0  0
   11.7054    7.4774    2.4678 C   0  0  0  0  0  0  0  0  0  0  0  0
   13.1190    7.6979    1.8938 C   0  0  0  0  0  0  0  0  0  0  0  0
   14.3142    7.4965    2.8250 C   0  0  0  0  0  0  0  0  0  0  0  0
   13.2303    8.9671    1.1618 N   0  0  0  0  0  0  0  0  0  0  0  0
   11.4729    8.1784    3.8408 C   0  0  0  0  0  0  0  0  0  0  0  0
   10.2382    9.0685    3.9672 C   0  0  0  0  0  0  0  0  0  0  0  0
  1  2  1  0
  2  3  1  0
  3  4  2  0
  3  5  1  0
  5  6  1  0
  6  7  1  0
  7  8  1  0
  8  9  2  0
  8 10  1  0
 10 11  1  0
 11 12  1  0
 12 13  1  0
 13 14  1  0
 14 15  1  0
 14 16  1  0
 13 17  1  0
 17 18  1  0
 18 10  1  0
M  CHG  1  16   1
M  END
>  <EmbedRMS>  (16) 
0.20180190035783102

>  <Gold.Version>  (16) 
2020.3.0

>  <Gold.Id.Protein>  (16) 
unknown|1q8t_protein|pdb

>  <Gold.PLP.Fitness>  (16) 
52.8057

>  <Gold.PLP.PLP>  (16) 
-44.4961

>  <Gold.PLP.part.hbond>  (16) 
-2.0000

>  <Gold.PLP.part.metal>  (16) 
0.0000

>  <Gold.PLP.part.buried>  (16) 
-4.9052

>  <Gold.PLP.part.nonpolar>  (16) 
-37.7325

>  <Gold.PLP.part.repulsive>  (16) 
0.1847

>  <Gold.PLP.ligand.clash>  (16) 
0.0000

>  <Gold.PLP.ligand.torsion>  (16) 
0.5927

>  <Gold.PLP.Chemscore.Hbond>  (16) 
3.0000

>  <Gold.PLP.Chemscore.CHOScore>  (16) 
0.0000

>  <Gold.PLP.Chemscore.Metal>  (16) 
0.0000

>  <Gold.Chemscore.Hbonds>  (16) 
donor molecule, donor type, donor heavy atom, donor atom, acceptor molecule, acceptor atom, score
      L1  H    16    40       P1  2902  2.00
      P1  H  1888  1903       L1     4  1.00

>  <Gold.PLP.Chemscore.Internal.Correction>  (16) 
0.4951

>  <Gold.PLP.Constraint>  (16) 
-0.0000

>  <Gold.Protein.RotatedTorsions>  (16) 
[  681  677  676  673 ] final  -25.91 input -179.99 | X-H torsion
[  702  698  697  694 ] final  -48.43 input  179.99 | X-H torsion
[ 2577 2569 2568 2566 ] final  107.48 input   -0.13 | X-H torsion
[ 2891 2887 2886 2883 ] final   52.99 input  179.98 | X-H torsion
[ 3175 3171 3170 3167 ] final  110.84 input -179.99 | X-H torsion
[ 5278 5270 5269 5267 ] final   20.81 input    0.55 | X-H torsion
[  641  637  636  633 ] final   16.76 input  179.99 | X-H torsion
[ 1886 1878 1877 1875 ] final   24.21 input    1.60 | X-H torsion
[  965  957  956  954 ] final  161.39 input    0.45 | X-H torsion

>  <Gold.Protein.ActiveResidues>  (16) 
 LYS47   THR48   LEU49   GLY50   THR51   GLY52   SER53   PHE54   GLY55   ARG56  
 VAL57   MET58   LEU59   TYR69   ALA70   MET71   LYS72   ILE73   LEU74   GLU91  
 LEU95   VAL104  LYS105  MET118  VAL119  MET120  GLU121  TYR122  VAL123  PRO124 
 GLY125  GLY126  GLU127  MET128  PHE129  TYR164  ASP166  LEU167  LYS168  PRO169 
 GLU170  ASN171  LEU172  LEU173  ILE174  GLN181  VAL182  THR183  ASP184  PHE185 
 GLY186  PHE187  GLY200  THR201  ASN326  PHE327  TYR330  ARG18   ARG19   ASN20  
 ALA21   ILE22   HIS23  

>  <Gold.Protein.RotatedAtoms>  (16) 
    9.5820   19.4395    8.1487 H   0  0  0  0  0  0  0  0  0  0  0  0  # atno 641  bound_to 637 
   15.6659   12.8109    6.7537 H   0  0  0  0  0  0  0  0  0  0  0  0  # atno 681  bound_to 677 
   20.1063   11.7094   -0.2477 H   0  0  0  0  0  0  0  0  0  0  0  0  # atno 702  bound_to 698 
   -7.0032   17.0169   -0.3431 H   0  0  0  0  0  0  0  0  0  0  0  0  # atno 965  bound_to 957 
    2.2321   11.6853   10.3793 H   0  0  0  0  0  0  0  0  0  0  0  0  # atno 1886 bound_to 1878
    9.5497    2.0905   -2.5672 H   0  0  0  0  0  0  0  0  0  0  0  0  # atno 2577 bound_to 2569
    8.3421    6.1786    0.2369 H   0  0  0  0  0  0  0  0  0  0  0  0  # atno 2891 bound_to 2887
   17.9731    1.9521   -0.7803 H   0  0  0  0  0  0  0  0  0  0  0  0  # atno 3175 bound_to 3171
   12.6391   10.0390    9.5218 H   0  0  0  0  0  0  0  0  0  0  0  0  # atno 5278 bound_to 5270
   16.5777   13.9669    7.3606 LP  0  0  0  0  0  0  0  0  0  0  0  0  # atno 5914 bound_to 677 
   17.1077   13.0468    6.1200 LP  0  0  0  0  0  0  0  0  0  0  0  0  # atno 5915 bound_to 677 
   21.0920   11.5418   -1.4878 LP  0  0  0  0  0  0  0  0  0  0  0  0  # atno 5920 bound_to 698 
   19.5006   11.8283   -1.7162 LP  0  0  0  0  0  0  0  0  0  0  0  0  # atno 5921 bound_to 698 
    9.9280    3.3831   -3.4166 LP  0  0  0  0  0  0  0  0  0  0  0  0  # atno 5950 bound_to 2569
   11.0874    2.4800   -2.7046 LP  0  0  0  0  0  0  0  0  0  0  0  0  # atno 5951 bound_to 2569
    7.4219    5.2013    1.0940 LP  0  0  0  0  0  0  0  0  0  0  0  0  # atno 5982 bound_to 2887
    7.4733    6.8010    1.4177 LP  0  0  0  0  0  0  0  0  0  0  0  0  # atno 5983 bound_to 2887
   19.2298    2.8557   -1.1543 LP  0  0  0  0  0  0  0  0  0  0  0  0  # atno 6000 bound_to 3171
   18.7434    2.6986    0.3966 LP  0  0  0  0  0  0  0  0  0  0  0  0  # atno 6001 bound_to 3171
   13.9145    9.8070   10.4470 LP  0  0  0  0  0  0  0  0  0  0  0  0  # atno 6004 bound_to 5270
   14.0839   10.1976    8.8705 LP  0  0  0  0  0  0  0  0  0  0  0  0  # atno 6005 bound_to 5270
   10.8316   18.9506    7.2916 LP  0  0  0  0  0  0  0  0  0  0  0  0  # atno 6055 bound_to 637 
   11.0415   19.6778    8.7386 LP  0  0  0  0  0  0  0  0  0  0  0  0  # atno 6056 bound_to 637 
    1.1871   10.5171   10.6596 LP  0  0  0  0  0  0  0  0  0  0  0  0  # atno 6063 bound_to 1878
    0.8484   12.0604   11.0722 LP  0  0  0  0  0  0  0  0  0  0  0  0  # atno 6064 bound_to 1878
   -7.0023   15.4265   -0.4177 LP  0  0  0  0  0  0  0  0  0  0  0  0  # atno 6067 bound_to 957 
   -6.4300   16.3233   -1.6566 LP  0  0  0  0  0  0  0  0  0  0  0  0  # atno 6068 bound_to 957 

>  <STRIFE_LigEff_Score>  (16) 
2.93365

$$$$
unknown|pharmsElabsTestMulti|sdf|25|dock5
     RDKit          3D

 14 14  0  0  0  0  0  0  0  0999 V2000
    4.1022    9.5025    5.2858 C   0  0  0  0  0  0  0  0  0  0  0  0
    4.9341    9.7774    4.0391 C   0  0  0  0  0  0  0  0  0  0  0  0
    6.2660    9.1974    4.1762 N   0  0  0  0  0  0  0  0  0  0  0  0
    7.2835    9.3626    3.1812 C   0  0  0  0  0  0  0  0  0  0  0  0
    7.0731   10.0918    2.1715 O   0  0  0  0  0  0  0  0  0  0  0  0
    8.6155    8.6849    3.3604 C   0  0  0  0  0  0  0  0  0  0  0  0
    8.9508    7.8362    2.1354 C   0  0  0  0  0  0  0  0  0  0  0  0
   10.2209    7.0244    2.3474 C   0  0  0  0  0  0  0  0  0  0  0  0
   11.4097    7.7927    2.9845 C   0  0  0  0  0  0  0  0  0  0  0  0
   12.7588    7.8635    2.2417 C   0  0  0  0  0  0  0  0  0  0  0  0
   14.0345    7.9880    3.0745 C   0  0  0  0  0  0  0  0  0  0  0  0
   12.7432    8.8497    1.1527 N   0  0  0  0  0  0  0  0  0  0  0  0
   11.0782    9.0776    3.8038 C   0  0  0  0  0  0  0  0  0  0  0  0
    9.7147    9.7226    3.5625 C   0  0  0  0  0  0  0  0  0  0  0  0
  1  2  1  0
  2  3  1  0
  3  4  1  0
  4  5  2  0
  4  6  1  0
  6  7  1  0
  7  8  1  0
  8  9  1  0
  9 10  1  0
 10 11  1  0
 10 12  1  0
  9 13  1  0
 13 14  1  0
 14  6  1  0
M  CHG  1  12   1
M  END
>  <EmbedRMS>  (17) 
0.22880006867790334

>  <Gold.Version>  (17) 
2020.3.0

>  <Gold.Id.Protein>  (17) 
unknown|1q8t_protein|pdb

>  <Gold.PLP.Fitness>  (17) 
33.7403

>  <Gold.PLP.PLP>  (17) 
-28.0324

>  <Gold.PLP.part.hbond>  (17) 
-1.0000

>  <Gold.PLP.part.metal>  (17) 
0.0000

>  <Gold.PLP.part.buried>  (17) 
0.2167

>  <Gold.PLP.part.nonpolar>  (17) 
-26.9997

>  <Gold.PLP.part.repulsive>  (17) 
0.0000

>  <Gold.PLP.ligand.clash>  (17) 
0.0000

>  <Gold.PLP.ligand.torsion>  (17) 
0.3397

>  <Gold.PLP.Chemscore.Hbond>  (17) 
2.0000

>  <Gold.PLP.Chemscore.CHOScore>  (17) 
0.0000

>  <Gold.PLP.Chemscore.Metal>  (17) 
0.0000

>  <Gold.Chemscore.Hbonds>  (17) 
donor molecule, donor type, donor heavy atom, donor atom, acceptor molecule, acceptor atom, score
      L1  H    12    32       P1  2902  2.00

>  <Gold.PLP.Chemscore.Internal.Correction>  (17) 
0.3873

>  <Gold.PLP.Constraint>  (17) 
-0.0000

>  <Gold.Protein.RotatedTorsions>  (17) 
[  681  677  676  673 ] final   27.28 input -179.99 | X-H torsion
[  702  698  697  694 ] final   98.22 input  179.99 | X-H torsion
[ 2577 2569 2568 2566 ] final -100.78 input   -0.13 | X-H torsion
[ 2891 2887 2886 2883 ] final   96.66 input  179.98 | X-H torsion
[ 3175 3171 3170 3167 ] final -129.10 input -179.99 | X-H torsion
[ 5278 5270 5269 5267 ] final  -41.93 input    0.55 | X-H torsion
[  641  637  636  633 ] final  113.53 input  179.99 | X-H torsion
[ 1886 1878 1877 1875 ] final  -59.99 input    1.60 | X-H torsion
[  965  957  956  954 ] final   40.34 input    0.45 | X-H torsion

>  <Gold.Protein.ActiveResidues>  (17) 
 LYS47   THR48   LEU49   GLY50   THR51   GLY52   SER53   PHE54   GLY55   ARG56  
 VAL57   MET58   LEU59   TYR69   ALA70   MET71   LYS72   ILE73   LEU74   GLU91  
 LEU95   VAL104  LYS105  MET118  VAL119  MET120  GLU121  TYR122  VAL123  PRO124 
 GLY125  GLY126  GLU127  MET128  PHE129  TYR164  ASP166  LEU167  LYS168  PRO169 
 GLU170  ASN171  LEU172  LEU173  ILE174  GLN181  VAL182  THR183  ASP184  PHE185 
 GLY186  PHE187  GLY200  THR201  ASN326  PHE327  TYR330  ARG18   ARG19   ASN20  
 ALA21   ILE22   HIS23  

>  <Gold.Protein.RotatedAtoms>  (17) 
   10.6876   19.7328    8.8442 H   0  0  0  0  0  0  0  0  0  0  0  0  # atno 641  bound_to 637 
   16.2060   12.5924    6.2025 H   0  0  0  0  0  0  0  0  0  0  0  0  # atno 681  bound_to 677 
   19.8581   11.7862   -1.9451 H   0  0  0  0  0  0  0  0  0  0  0  0  # atno 702  bound_to 698 
   -6.9723   15.4616   -0.4436 H   0  0  0  0  0  0  0  0  0  0  0  0  # atno 965  bound_to 957 
    1.6977   10.6113   10.4317 H   0  0  0  0  0  0  0  0  0  0  0  0  # atno 1886 bound_to 1878
   11.0324    2.8806   -3.0071 H   0  0  0  0  0  0  0  0  0  0  0  0  # atno 2577 bound_to 2569
    8.1971    6.7530    0.5424 H   0  0  0  0  0  0  0  0  0  0  0  0  # atno 2891 bound_to 2887
   18.7490    2.6752    0.3525 H   0  0  0  0  0  0  0  0  0  0  0  0  # atno 3175 bound_to 3171
   13.0394    9.8412   10.3408 H   0  0  0  0  0  0  0  0  0  0  0  0  # atno 5278 bound_to 5270
   15.8402   13.5596    7.4136 LP  0  0  0  0  0  0  0  0  0  0  0  0  # atno 5914 bound_to 677 
   17.2767   13.6841    6.6472 LP  0  0  0  0  0  0  0  0  0  0  0  0  # atno 5915 bound_to 677 
   19.6989   11.7670   -0.3603 LP  0  0  0  0  0  0  0  0  0  0  0  0  # atno 5920 bound_to 698 
   21.1548   11.5224   -1.0582 LP  0  0  0  0  0  0  0  0  0  0  0  0  # atno 5921 bound_to 698 
    9.9665    1.8827   -2.3720 LP  0  0  0  0  0  0  0  0  0  0  0  0  # atno 5950 bound_to 2569
    9.4878    3.1485   -3.2860 LP  0  0  0  0  0  0  0  0  0  0  0  0  # atno 5951 bound_to 2569
    7.8792    5.1925    0.5622 LP  0  0  0  0  0  0  0  0  0  0  0  0  # atno 5982 bound_to 2887
    7.1686    6.2053    1.6280 LP  0  0  0  0  0  0  0  0  0  0  0  0  # atno 5983 bound_to 2887
   17.9272    1.9380   -0.7950 LP  0  0  0  0  0  0  0  0  0  0  0  0  # atno 6000 bound_to 3171
   19.2294    2.8554   -1.1549 LP  0  0  0  0  0  0  0  0  0  0  0  0  # atno 6001 bound_to 3171
   14.4716   10.0059    9.6638 LP  0  0  0  0  0  0  0  0  0  0  0  0  # atno 6004 bound_to 5270
   13.1055   10.2067    8.7920 LP  0  0  0  0  0  0  0  0  0  0  0  0  # atno 6005 bound_to 5270
    9.5636   19.2856    7.8090 LP  0  0  0  0  0  0  0  0  0  0  0  0  # atno 6055 bound_to 637 
   11.1450   19.0338    7.4888 LP  0  0  0  0  0  0  0  0  0  0  0  0  # atno 6056 bound_to 637 
    0.5905   11.5420   11.0975 LP  0  0  0  0  0  0  0  0  0  0  0  0  # atno 6063 bound_to 1878
    2.0077   12.1661   10.5791 LP  0  0  0  0  0  0  0  0  0  0  0  0  # atno 6064 bound_to 1878
   -6.4303   16.3406   -1.6554 LP  0  0  0  0  0  0  0  0  0  0  0  0  # atno 6067 bound_to 957 
   -7.0346   17.0472   -0.3129 LP  0  0  0  0  0  0  0  0  0  0  0  0  # atno 6068 bound_to 957 

>  <STRIFE_LigEff_Score>  (17) 
2.4100214285714285

$$$$
unknown|pharmsElabsTestMulti|sdf|26|dock5
     RDKit          3D

 17 17  0  0  0  0  0  0  0  0999 V2000
    3.9425    9.2326    2.4581 C   0  0  0  0  0  0  0  0  0  0  0  0
    3.5686    8.6172    3.8049 C   0  0  0  0  0  0  0  0  0  0  0  0
    3.9068    9.5453    4.9735 C   0  0  0  0  0  0  0  0  0  0  0  0
    5.4021    9.5318    5.2945 C   0  0  0  0  0  0  0  0  0  0  0  0
    6.1789   10.2993    4.2290 C   0  0  0  0  0  0  0  0  0  0  0  0
    7.5670    9.8579    4.2074 N   0  0  0  0  0  0  0  0  0  0  0  0
    8.0912    9.0494    3.1502 C   0  0  0  0  0  0  0  0  0  0  0  0
    7.3655    8.7525    2.1581 O   0  0  0  0  0  0  0  0  0  0  0  0
    9.5232    8.5841    3.2083 C   0  0  0  0  0  0  0  0  0  0  0  0
    9.9063    7.9591    1.8719 C   0  0  0  0  0  0  0  0  0  0  0  0
   11.3013    7.3623    1.8868 C   0  0  0  0  0  0  0  0  0  0  0  0
   12.3531    8.1863    2.6532 C   0  0  0  0  0  0  0  0  0  0  0  0
   13.8367    8.0201    2.1692 C   0  0  0  0  0  0  0  0  0  0  0  0
   14.8788    7.7313    3.2603 C   0  0  0  0  0  0  0  0  0  0  0  0
   13.9615    7.0430    1.0816 N   0  0  0  0  0  0  0  0  0  0  0  0
   11.9444    9.5073    3.3379 C   0  0  0  0  0  0  0  0  0  0  0  0
   10.4393    9.7674    3.5387 C   0  0  0  0  0  0  0  0  0  0  0  0
  1  2  1  0
  2  3  1  0
  3  4  1  0
  4  5  1  0
  5  6  1  0
  6  7  1  0
  7  8  2  0
  7  9  1  0
  9 10  1  0
 10 11  1  0
 11 12  1  0
 12 13  1  0
 13 14  1  0
 13 15  1  0
 12 16  1  0
 16 17  1  0
 17  9  1  0
M  CHG  1  15   1
M  END
>  <EmbedRMS>  (18) 
0.16933320433084326

>  <Gold.Version>  (18) 
2020.3.0

>  <Gold.Id.Protein>  (18) 
unknown|1q8t_protein|pdb

>  <Gold.PLP.Fitness>  (18) 
54.5879

>  <Gold.PLP.PLP>  (18) 
-44.7178

>  <Gold.PLP.part.hbond>  (18) 
-3.0000

>  <Gold.PLP.part.metal>  (18) 
0.0000

>  <Gold.PLP.part.buried>  (18) 
-3.4375

>  <Gold.PLP.part.nonpolar>  (18) 
-38.0868

>  <Gold.PLP.part.repulsive>  (18) 
0.0646

>  <Gold.PLP.ligand.clash>  (18) 
0.0000

>  <Gold.PLP.ligand.torsion>  (18) 
1.4150

>  <Gold.PLP.Chemscore.Hbond>  (18) 
4.0000

>  <Gold.PLP.Chemscore.CHOScore>  (18) 
0.0000

>  <Gold.PLP.Chemscore.Metal>  (18) 
0.0000

>  <Gold.Chemscore.Hbonds>  (18) 
donor molecule, donor type, donor heavy atom, donor atom, acceptor molecule, acceptor atom, score
      L1  H    15    40       P1  2902  2.00
      L1  H    15    41       P1  2691  1.00
      P1  H  2887  2891       L1     8  1.00

>  <Gold.PLP.Chemscore.Internal.Correction>  (18) 
0.7001

>  <Gold.PLP.Constraint>  (18) 
-0.0000

>  <Gold.Protein.RotatedTorsions>  (18) 
[  681  677  676  673 ] final -127.64 input -179.99 | X-H torsion
[  702  698  697  694 ] final   -9.59 input  179.99 | X-H torsion
[ 2577 2569 2568 2566 ] final  120.85 input   -0.13 | X-H torsion
[ 2891 2887 2886 2883 ] final  156.62 input  179.98 | X-H torsion
[ 3175 3171 3170 3167 ] final -128.34 input -179.99 | X-H torsion
[ 5278 5270 5269 5267 ] final  167.13 input    0.55 | X-H torsion
[  641  637  636  633 ] final -157.90 input  179.99 | X-H torsion
[ 1886 1878 1877 1875 ] final  111.35 input    1.60 | X-H torsion
[  965  957  956  954 ] final  131.22 input    0.45 | X-H torsion

>  <Gold.Protein.ActiveResidues>  (18) 
 LYS47   THR48   LEU49   GLY50   THR51   GLY52   SER53   PHE54   GLY55   ARG56  
 VAL57   MET58   LEU59   TYR69   ALA70   MET71   LYS72   ILE73   LEU74   GLU91  
 LEU95   VAL104  LYS105  MET118  VAL119  MET120  GLU121  TYR122  VAL123  PRO124 
 GLY125  GLY126  GLU127  MET128  PHE129  TYR164  ASP166  LEU167  LYS168  PRO169 
 GLU170  ASN171  LEU172  LEU173  ILE174  GLN181  VAL182  THR183  ASP184  PHE185 
 GLY186  PHE187  GLY200  THR201  ASN326  PHE327  TYR330  ARG18   ARG19   ASN20  
 ALA21   ILE22   HIS23  

>  <Gold.Protein.RotatedAtoms>  (18) 
   11.3409   19.2193    7.9101 H   0  0  0  0  0  0  0  0  0  0  0  0  # atno 641  bound_to 637 
   16.3037   13.8622    7.4009 H   0  0  0  0  0  0  0  0  0  0  0  0  # atno 681  bound_to 677 
   19.5865   11.8069   -0.5225 H   0  0  0  0  0  0  0  0  0  0  0  0  # atno 702  bound_to 698 
   -7.1342   16.6685   -0.0627 H   0  0  0  0  0  0  0  0  0  0  0  0  # atno 965  bound_to 957 
    1.2866   12.2854   10.8985 H   0  0  0  0  0  0  0  0  0  0  0  0  # atno 1886 bound_to 1878
    9.7137    1.9908   -2.4859 H   0  0  0  0  0  0  0  0  0  0  0  0  # atno 2577 bound_to 2569
    7.6354    6.8899    1.2259 H   0  0  0  0  0  0  0  0  0  0  0  0  # atno 2891 bound_to 2887
   18.7585    2.6818    0.3498 H   0  0  0  0  0  0  0  0  0  0  0  0  # atno 3175 bound_to 3171
   14.3234   10.1332    9.2114 H   0  0  0  0  0  0  0  0  0  0  0  0  # atno 5278 bound_to 5270
   17.2451   13.2733    6.2595 LP  0  0  0  0  0  0  0  0  0  0  0  0  # atno 5914 bound_to 677 
   15.7690   12.6338    6.5400 LP  0  0  0  0  0  0  0  0  0  0  0  0  # atno 5915 bound_to 677 
   21.1172   11.5252   -0.8616 LP  0  0  0  0  0  0  0  0  0  0  0  0  # atno 5920 bound_to 698 
   20.0222   11.7423   -2.0534 LP  0  0  0  0  0  0  0  0  0  0  0  0  # atno 5921 bound_to 698 
    9.7249    3.3085   -3.3797 LP  0  0  0  0  0  0  0  0  0  0  0  0  # atno 5950 bound_to 2569
   11.1178    2.6596   -2.8271 LP  0  0  0  0  0  0  0  0  0  0  0  0  # atno 5951 bound_to 2569
    8.3518    5.9168    0.1884 LP  0  0  0  0  0  0  0  0  0  0  0  0  # atno 5982 bound_to 2887
    7.2872    5.3368    1.2825 LP  0  0  0  0  0  0  0  0  0  0  0  0  # atno 5983 bound_to 2887
   17.9236    1.9369   -0.7831 LP  0  0  0  0  0  0  0  0  0  0  0  0  # atno 6000 bound_to 3171
   19.2231    2.8495   -1.1640 LP  0  0  0  0  0  0  0  0  0  0  0  0  # atno 6001 bound_to 3171
   12.7333   10.1221    9.1194 LP  0  0  0  0  0  0  0  0  0  0  0  0  # atno 6004 bound_to 5270
   13.4929    9.7834   10.5247 LP  0  0  0  0  0  0  0  0  0  0  0  0  # atno 6005 bound_to 5270
   10.1901   19.7843    8.8542 LP  0  0  0  0  0  0  0  0  0  0  0  0  # atno 6055 bound_to 637 
    9.8305   19.0759    7.4275 LP  0  0  0  0  0  0  0  0  0  0  0  0  # atno 6056 bound_to 637 
    2.2525   11.1693   10.3012 LP  0  0  0  0  0  0  0  0  0  0  0  0  # atno 6063 bound_to 1878
    0.7785   10.7764   10.8840 LP  0  0  0  0  0  0  0  0  0  0  0  0  # atno 6064 bound_to 1878
   -6.8040   15.3278   -0.8556 LP  0  0  0  0  0  0  0  0  0  0  0  0  # atno 6067 bound_to 957 
   -6.4904   16.7890   -1.5139 LP  0  0  0  0  0  0  0  0  0  0  0  0  # atno 6068 bound_to 957 

>  <STRIFE_LigEff_Score>  (18) 
3.2110529411764706

$$$$
unknown|pharmsElabsTestMulti|sdf|27|dock3
     RDKit          3D

 17 17  0  0  0  0  0  0  0  0999 V2000
   14.5611    7.6851    3.4888 C   0  0  0  0  0  0  0  0  0  0  0  0
   13.3549    7.6111    2.5540 C   0  0  0  0  0  0  0  0  0  0  0  0
   13.5074    8.4796    1.3848 N   0  0  0  0  0  0  0  0  0  0  0  0
   11.9372    7.6923    3.1718 C   0  0  0  0  0  0  0  0  0  0  0  0
   10.8399    7.0992    2.2762 C   0  0  0  0  0  0  0  0  0  0  0  0
    9.4147    7.5323    2.5761 C   0  0  0  0  0  0  0  0  0  0  0  0
    9.3097    9.0001    2.9033 C   0  0  0  0  0  0  0  0  0  0  0  0
    7.9056    9.5262    2.8925 C   0  0  0  0  0  0  0  0  0  0  0  0
    7.4863    9.9354    4.0019 O   0  0  0  0  0  0  0  0  0  0  0  0
    7.0323    9.5779    1.7510 N   0  0  0  0  0  0  0  0  0  0  0  0
    5.6251    9.9734    1.9115 C   0  0  0  0  0  0  0  0  0  0  0  0
    4.8650    8.9355    2.7514 C   0  0  0  0  0  0  0  0  0  0  0  0
    4.9847    9.2203    4.1805 N   0  0  0  0  0  0  0  0  0  0  0  0
    3.8614    9.6508    4.9552 C   0  0  0  0  0  0  0  0  0  0  0  0
    2.7304    9.8077    4.4221 O   0  0  0  0  0  0  0  0  0  0  0  0
   10.2254    9.5130    3.9797 C   0  0  0  0  0  0  0  0  0  0  0  0
   11.6795    9.1132    3.7397 C   0  0  0  0  0  0  0  0  0  0  0  0
  1  2  1  0
  2  3  1  0
  2  4  1  0
  4  5  1  0
  5  6  1  0
  6  7  1  0
  7  8  1  0
  8  9  2  0
  8 10  1  0
 10 11  1  0
 11 12  1  0
 12 13  1  0
 13 14  1  0
 14 15  2  0
  7 16  1  0
 16 17  1  0
 17  4  1  0
M  CHG  1   3   1
M  END
>  <EmbedRMS>  (19) 
0.30207850723488733

>  <Gold.Version>  (19) 
2020.3.0

>  <Gold.Id.Protein>  (19) 
unknown|1q8t_protein|pdb

>  <Gold.PLP.Fitness>  (19) 
44.7000

>  <Gold.PLP.PLP>  (19) 
-36.4762

>  <Gold.PLP.part.hbond>  (19) 
-1.9551

>  <Gold.PLP.part.metal>  (19) 
0.0000

>  <Gold.PLP.part.buried>  (19) 
-4.5878

>  <Gold.PLP.part.nonpolar>  (19) 
-30.1230

>  <Gold.PLP.part.repulsive>  (19) 
0.1850

>  <Gold.PLP.ligand.clash>  (19) 
0.0000

>  <Gold.PLP.ligand.torsion>  (19) 
0.7165

>  <Gold.PLP.Chemscore.Hbond>  (19) 
3.0000

>  <Gold.PLP.Chemscore.CHOScore>  (19) 
0.0000

>  <Gold.PLP.Chemscore.Metal>  (19) 
0.0000

>  <Gold.Chemscore.Hbonds>  (19) 
donor molecule, donor type, donor heavy atom, donor atom, acceptor molecule, acceptor atom, score
      L1  H     3    22       P1  2902  2.00
      P1  H  1888  1903       L1    15  1.00

>  <Gold.PLP.Chemscore.Internal.Correction>  (19) 
0.6569

>  <Gold.PLP.Constraint>  (19) 
-0.0000

>  <Gold.Protein.RotatedTorsions>  (19) 
[  681  677  676  673 ] final   96.58 input -179.99 | X-H torsion
[  702  698  697  694 ] final   80.81 input  179.99 | X-H torsion
[ 2577 2569 2568 2566 ] final  -17.34 input   -0.13 | X-H torsion
[ 2891 2887 2886 2883 ] final   72.85 input  179.98 | X-H torsion
[ 3175 3171 3170 3167 ] final   27.75 input -179.99 | X-H torsion
[ 5278 5270 5269 5267 ] final  104.31 input    0.55 | X-H torsion
[  641  637  636  633 ] final -118.25 input  179.99 | X-H torsion
[ 1886 1878 1877 1875 ] final  112.32 input    1.60 | X-H torsion
[  965  957  956  954 ] final  100.29 input    0.45 | X-H torsion

>  <Gold.Protein.ActiveResidues>  (19) 
 LYS47   THR48   LEU49   GLY50   THR51   GLY52   SER53   PHE54   GLY55   ARG56  
 VAL57   MET58   LEU59   TYR69   ALA70   MET71   LYS72   ILE73   LEU74   GLU91  
 LEU95   VAL104  LYS105  MET118  VAL119  MET120  GLU121  TYR122  VAL123  PRO124 
 GLY125  GLY126  GLU127  MET128  PHE129  TYR164  ASP166  LEU167  LYS168  PRO169 
 GLU170  ASN171  LEU172  LEU173  ILE174  GLN181  VAL182  THR183  ASP184  PHE185 
 GLY186  PHE187  GLY200  THR201  ASN326  PHE327  TYR330  ARG18   ARG19   ASN20  
 ALA21   ILE22   HIS23  

>  <Gold.Protein.RotatedAtoms>  (19) 
   11.0145   19.0011    7.4469 H   0  0  0  0  0  0  0  0  0  0  0  0  # atno 641  bound_to 637 
   17.0896   13.0969    6.1553 H   0  0  0  0  0  0  0  0  0  0  0  0  # atno 681  bound_to 677 
   19.6363   11.8226   -1.7935 H   0  0  0  0  0  0  0  0  0  0  0  0  # atno 702  bound_to 698 
   -7.1758   16.1998    0.0190 H   0  0  0  0  0  0  0  0  0  0  0  0  # atno 965  bound_to 957 
    1.2729   12.2816   10.9038 H   0  0  0  0  0  0  0  0  0  0  0  0  # atno 1886 bound_to 1878
   10.0148    3.3528   -3.4096 H   0  0  0  0  0  0  0  0  0  0  0  0  # atno 2577 bound_to 2569
    8.3163    6.4699    0.3365 H   0  0  0  0  0  0  0  0  0  0  0  0  # atno 2891 bound_to 2887
   18.8281    2.5052   -1.3924 H   0  0  0  0  0  0  0  0  0  0  0  0  # atno 3175 bound_to 3171
   13.5217   10.2400    8.7442 H   0  0  0  0  0  0  0  0  0  0  0  0  # atno 5278 bound_to 5270
   15.6464   12.7532    6.7342 LP  0  0  0  0  0  0  0  0  0  0  0  0  # atno 5914 bound_to 677 
   16.5405   13.9594    7.3763 LP  0  0  0  0  0  0  0  0  0  0  0  0  # atno 5915 bound_to 677 
   19.9509   11.7199   -0.2353 LP  0  0  0  0  0  0  0  0  0  0  0  0  # atno 5920 bound_to 698 
   21.1361   11.5312   -1.3427 LP  0  0  0  0  0  0  0  0  0  0  0  0  # atno 5921 bound_to 698 
   11.0642    2.4170   -2.6625 LP  0  0  0  0  0  0  0  0  0  0  0  0  # atno 5950 bound_to 2569
    9.4616    2.1170   -2.5717 LP  0  0  0  0  0  0  0  0  0  0  0  0  # atno 5951 bound_to 2569
    7.6209    5.1310    0.8466 LP  0  0  0  0  0  0  0  0  0  0  0  0  # atno 5982 bound_to 2887
    7.3014    6.5646    1.5602 LP  0  0  0  0  0  0  0  0  0  0  0  0  # atno 5983 bound_to 2887
   19.1730    2.9765    0.0890 LP  0  0  0  0  0  0  0  0  0  0  0  0  # atno 6000 bound_to 3171
   17.9004    1.9957   -0.2027 LP  0  0  0  0  0  0  0  0  0  0  0  0  # atno 6001 bound_to 3171
   12.7185    9.8866   10.0734 LP  0  0  0  0  0  0  0  0  0  0  0  0  # atno 6004 bound_to 5270
   14.3513    9.9064   10.0623 LP  0  0  0  0  0  0  0  0  0  0  0  0  # atno 6005 bound_to 5270
   10.8281   19.7430    8.8432 LP  0  0  0  0  0  0  0  0  0  0  0  0  # atno 6055 bound_to 637 
    9.5362   19.3470    7.9262 LP  0  0  0  0  0  0  0  0  0  0  0  0  # atno 6056 bound_to 637 
    2.2573   11.1845   10.3017 LP  0  0  0  0  0  0  0  0  0  0  0  0  # atno 6063 bound_to 1878
    0.7880   10.7652   10.8779 LP  0  0  0  0  0  0  0  0  0  0  0  0  # atno 6064 bound_to 1878
   -6.6057   15.4912   -1.2879 LP  0  0  0  0  0  0  0  0  0  0  0  0  # atno 6067 bound_to 957 
   -6.6449   17.1192   -1.1676 LP  0  0  0  0  0  0  0  0  0  0  0  0  # atno 6068 bound_to 957 

>  <STRIFE_LigEff_Score>  (19) 
2.6294117647058823

$$$$
unknown|pharmsElabsTestMulti|sdf|28|dock8
     RDKit          3D

 18 18  0  0  0  0  0  0  0  0999 V2000
   14.5220    7.6101    3.3084 C   0  0  0  0  0  0  0  0  0  0  0  0
   13.1974    7.6059    2.5471 C   0  0  0  0  0  0  0  0  0  0  0  0
   13.2158    8.5165    1.4005 N   0  0  0  0  0  0  0  0  0  0  0  0
   11.8810    7.6994    3.3573 C   0  0  0  0  0  0  0  0  0  0  0  0
   10.6703    7.0852    2.6396 C   0  0  0  0  0  0  0  0  0  0  0  0
    9.2999    7.5223    3.1300 C   0  0  0  0  0  0  0  0  0  0  0  0
    9.2354    8.9965    3.4401 C   0  0  0  0  0  0  0  0  0  0  0  0
    7.8415    9.5225    3.6150 C   0  0  0  0  0  0  0  0  0  0  0  0
    7.2122    9.7085    2.5446 O   0  0  0  0  0  0  0  0  0  0  0  0
    7.1986    9.8338    4.8641 N   0  0  0  0  0  0  0  0  0  0  0  0
    5.8642   10.4508    4.8227 C   0  0  0  0  0  0  0  0  0  0  0  0
    4.7654    9.5020    5.2917 C   0  0  0  0  0  0  0  0  0  0  0  0
    3.6143    9.5767    4.3895 N   0  0  0  0  0  0  0  0  0  0  0  0
    3.7251    9.2663    2.9989 C   0  0  0  0  0  0  0  0  0  0  0  0
    4.8325    8.9195    2.5076 O   0  0  0  0  0  0  0  0  0  0  0  0
    2.6010    9.3488    2.1836 O   0  0  0  0  0  0  0  0  0  0  0  0
   10.2935    9.5350    4.3617 C   0  0  0  0  0  0  0  0  0  0  0  0
   11.7000    9.1326    3.9240 C   0  0  0  0  0  0  0  0  0  0  0  0
  1  2  1  0
  2  3  1  0
  2  4  1  0
  4  5  1  0
  5  6  1  0
  6  7  1  0
  7  8  1  0
  8  9  2  0
  8 10  1  0
 10 11  1  0
 11 12  1  0
 12 13  1  0
 13 14  1  0
 14 15  2  0
 14 16  1  0
  7 17  1  0
 17 18  1  0
 18  4  1  0
M  CHG  1   3   1
M  END
>  <EmbedRMS>  (20) 
0.2924325341636962

>  <Gold.Version>  (20) 
2020.3.0

>  <Gold.Id.Protein>  (20) 
unknown|1q8t_protein|pdb

>  <Gold.PLP.Fitness>  (20) 
46.8263

>  <Gold.PLP.PLP>  (20) 
-40.4341

>  <Gold.PLP.part.hbond>  (20) 
-1.5220

>  <Gold.PLP.part.metal>  (20) 
0.0000

>  <Gold.PLP.part.buried>  (20) 
-7.6695

>  <Gold.PLP.part.nonpolar>  (20) 
-31.7780

>  <Gold.PLP.part.repulsive>  (20) 
0.1052

>  <Gold.PLP.ligand.clash>  (20) 
0.0000

>  <Gold.PLP.ligand.torsion>  (20) 
1.1269

>  <Gold.PLP.Chemscore.Hbond>  (20) 
2.6720

>  <Gold.PLP.Chemscore.CHOScore>  (20) 
0.0000

>  <Gold.PLP.Chemscore.Metal>  (20) 
0.0000

>  <Gold.Chemscore.Hbonds>  (20) 
donor molecule, donor type, donor heavy atom, donor atom, acceptor molecule, acceptor atom, score
      L1  H     3    25       P1  2902  2.00
      L1  H    16    38       P1  1855  0.67

>  <Gold.PLP.Chemscore.Internal.Correction>  (20) 
0.6301

>  <Gold.PLP.Constraint>  (20) 
-0.0000

>  <Gold.Protein.RotatedTorsions>  (20) 
[  681  677  676  673 ] final -166.30 input -179.99 | X-H torsion
[  702  698  697  694 ] final   12.60 input  179.99 | X-H torsion
[ 2577 2569 2568 2566 ] final   -3.10 input   -0.13 | X-H torsion
[ 2891 2887 2886 2883 ] final -101.84 input  179.98 | X-H torsion
[ 3175 3171 3170 3167 ] final    9.15 input -179.99 | X-H torsion
[ 5278 5270 5269 5267 ] final  172.55 input    0.55 | X-H torsion
[  641  637  636  633 ] final   -8.10 input  179.99 | X-H torsion
[ 1886 1878 1877 1875 ] final    6.40 input    1.60 | X-H torsion
[  965  957  956  954 ] final  147.51 input    0.45 | X-H torsion

>  <Gold.Protein.ActiveResidues>  (20) 
 LYS47   THR48   LEU49   GLY50   THR51   GLY52   SER53   PHE54   GLY55   ARG56  
 VAL57   MET58   LEU59   TYR69   ALA70   MET71   LYS72   ILE73   LEU74   GLU91  
 LEU95   VAL104  LYS105  MET118  VAL119  MET120  GLU121  TYR122  VAL123  PRO124 
 GLY125  GLY126  GLU127  MET128  PHE129  TYR164  ASP166  LEU167  LYS168  PRO169 
 GLU170  ASN171  LEU172  LEU173  ILE174  GLN181  VAL182  THR183  ASP184  PHE185 
 GLY186  PHE187  GLY200  THR201  ASN326  PHE327  TYR330  ARG18   ARG19   ASN20  
 ALA21   ILE22   HIS23  

>  <Gold.Protein.RotatedAtoms>  (20) 
    9.6157   19.2634    7.8076 H   0  0  0  0  0  0  0  0  0  0  0  0  # atno 641  bound_to 637 
   16.8378   13.9525    7.1595 H   0  0  0  0  0  0  0  0  0  0  0  0  # atno 681  bound_to 677 
   19.4074   11.8443   -0.8149 H   0  0  0  0  0  0  0  0  0  0  0  0  # atno 702  bound_to 698 
   -7.0727   16.8772   -0.1933 H   0  0  0  0  0  0  0  0  0  0  0  0  # atno 965  bound_to 957 
    2.2506   11.4141   10.3249 H   0  0  0  0  0  0  0  0  0  0  0  0  # atno 1886 bound_to 1878
    9.8036    3.2903   -3.3817 H   0  0  0  0  0  0  0  0  0  0  0  0  # atno 2577 bound_to 2569
    7.1983    5.5870    1.4200 H   0  0  0  0  0  0  0  0  0  0  0  0  # atno 2891 bound_to 2887
   19.0411    2.6757   -1.2955 H   0  0  0  0  0  0  0  0  0  0  0  0  # atno 3175 bound_to 3171
   14.3591   10.1151    9.2860 H   0  0  0  0  0  0  0  0  0  0  0  0  # atno 5278 bound_to 5270
   16.8757   12.8208    6.0397 LP  0  0  0  0  0  0  0  0  0  0  0  0  # atno 5914 bound_to 677 
   15.5763   12.9914    7.0139 LP  0  0  0  0  0  0  0  0  0  0  0  0  # atno 5915 bound_to 677 
   20.9486   11.5489   -0.5412 LP  0  0  0  0  0  0  0  0  0  0  0  0  # atno 5920 bound_to 698 
   20.3793   11.6793   -2.0662 LP  0  0  0  0  0  0  0  0  0  0  0  0  # atno 5921 bound_to 698 
   11.1141    2.6062   -2.7902 LP  0  0  0  0  0  0  0  0  0  0  0  0  # atno 5950 bound_to 2569
    9.6339    1.9936   -2.4734 LP  0  0  0  0  0  0  0  0  0  0  0  0  # atno 5951 bound_to 2569
    7.8425    6.9920    1.0359 LP  0  0  0  0  0  0  0  0  0  0  0  0  # atno 5982 bound_to 2887
    8.2565    5.6329    0.2307 LP  0  0  0  0  0  0  0  0  0  0  0  0  # atno 5983 bound_to 2887
   18.9741    2.8549    0.2853 LP  0  0  0  0  0  0  0  0  0  0  0  0  # atno 6000 bound_to 3171
   17.8751    1.9379   -0.5008 LP  0  0  0  0  0  0  0  0  0  0  0  0  # atno 6001 bound_to 3171
   12.7844   10.1401    9.0487 LP  0  0  0  0  0  0  0  0  0  0  0  0  # atno 6004 bound_to 5270
   13.4042    9.7844   10.5170 LP  0  0  0  0  0  0  0  0  0  0  0  0  # atno 6005 bound_to 5270
   11.1634   19.0418    7.5066 LP  0  0  0  0  0  0  0  0  0  0  0  0  # atno 6055 bound_to 637 
   10.6740   19.7719    8.8829 LP  0  0  0  0  0  0  0  0  0  0  0  0  # atno 6056 bound_to 637 
    0.9462   10.6249   10.7843 LP  0  0  0  0  0  0  0  0  0  0  0  0  # atno 6063 bound_to 1878
    1.0700   12.2381   11.0048 LP  0  0  0  0  0  0  0  0  0  0  0  0  # atno 6064 bound_to 1878
   -6.9141   15.3495   -0.6131 LP  0  0  0  0  0  0  0  0  0  0  0  0  # atno 6067 bound_to 957 
   -6.4450   16.5475   -1.6189 LP  0  0  0  0  0  0  0  0  0  0  0  0  # atno 6068 bound_to 957 

>  <STRIFE_LigEff_Score>  (20) 
2.6014611111111114

$$$$
unknown|pharmsElabsTestMulti|sdf|29|dock6
     RDKit          3D

 17 17  0  0  0  0  0  0  0  0999 V2000
   14.5857    7.7112    2.9699 C   0  0  0  0  0  0  0  0  0  0  0  0
   13.2463    7.6866    2.2355 C   0  0  0  0  0  0  0  0  0  0  0  0
   13.2240    8.6045    1.0949 N   0  0  0  0  0  0  0  0  0  0  0  0
   11.9452    7.7501    3.0728 C   0  0  0  0  0  0  0  0  0  0  0  0
   10.7359    7.1028    2.3823 C   0  0  0  0  0  0  0  0  0  0  0  0
    9.3659    7.5092    2.8976 C   0  0  0  0  0  0  0  0  0  0  0  0
    9.2725    8.9832    3.1978 C   0  0  0  0  0  0  0  0  0  0  0  0
    7.8711    9.4717    3.4029 C   0  0  0  0  0  0  0  0  0  0  0  0
    7.1701    9.5226    2.3635 O   0  0  0  0  0  0  0  0  0  0  0  0
    7.3005    9.8857    4.6549 N   0  0  0  0  0  0  0  0  0  0  0  0
    5.9620   10.4884    4.6987 C   0  0  0  0  0  0  0  0  0  0  0  0
    4.9467    9.5042    5.3071 C   0  0  0  0  0  0  0  0  0  0  0  0
    3.5956    9.5311    4.5797 C   0  0  0  0  0  0  0  0  0  0  0  0
    3.6088    8.7290    3.2778 C   0  0  0  0  0  0  0  0  0  0  0  0
    3.2967    9.5642    2.1980 O   0  0  0  0  0  0  0  0  0  0  0  0
   10.3331    9.5506    4.1001 C   0  0  0  0  0  0  0  0  0  0  0  0
   11.7406    9.1804    3.6391 C   0  0  0  0  0  0  0  0  0  0  0  0
  1  2  1  0
  2  3  1  0
  2  4  1  0
  4  5  1  0
  5  6  1  0
  6  7  1  0
  7  8  1  0
  8  9  2  0
  8 10  1  0
 10 11  1  0
 11 12  1  0
 12 13  1  0
 13 14  1  0
 14 15  1  0
  7 16  1  0
 16 17  1  0
 17  4  1  0
M  CHG  1   3   1
M  END
>  <EmbedRMS>  (21) 
0.3028787039700591

>  <Gold.Version>  (21) 
2020.3.0

>  <Gold.Id.Protein>  (21) 
unknown|1q8t_protein|pdb

>  <Gold.PLP.Fitness>  (21) 
50.7964

>  <Gold.PLP.PLP>  (21) 
-44.1706

>  <Gold.PLP.part.hbond>  (21) 
-2.0000

>  <Gold.PLP.part.metal>  (21) 
0.0000

>  <Gold.PLP.part.buried>  (21) 
-4.9640

>  <Gold.PLP.part.nonpolar>  (21) 
-36.9624

>  <Gold.PLP.part.repulsive>  (21) 
0.0000

>  <Gold.PLP.ligand.clash>  (21) 
0.0000

>  <Gold.PLP.ligand.torsion>  (21) 
1.5388

>  <Gold.PLP.Chemscore.Hbond>  (21) 
3.0000

>  <Gold.PLP.Chemscore.CHOScore>  (21) 
0.0000

>  <Gold.PLP.Chemscore.Metal>  (21) 
0.0000

>  <Gold.Chemscore.Hbonds>  (21) 
donor molecule, donor type, donor heavy atom, donor atom, acceptor molecule, acceptor atom, score
      L1  H     3    23       P1  2902  2.00
      L1  H    15    40       P1  1855  1.00

>  <Gold.PLP.Chemscore.Internal.Correction>  (21) 
0.7034

>  <Gold.PLP.Constraint>  (21) 
-0.0000

>  <Gold.Protein.RotatedTorsions>  (21) 
[  681  677  676  673 ] final   19.81 input -179.99 | X-H torsion
[  702  698  697  694 ] final -133.23 input  179.99 | X-H torsion
[ 2577 2569 2568 2566 ] final  149.38 input   -0.13 | X-H torsion
[ 2891 2887 2886 2883 ] final -166.32 input  179.98 | X-H torsion
[ 3175 3171 3170 3167 ] final   20.60 input -179.99 | X-H torsion
[ 5278 5270 5269 5267 ] final  -13.85 input    0.55 | X-H torsion
[  641  637  636  633 ] final  153.63 input  179.99 | X-H torsion
[ 1886 1878 1877 1875 ] final  -34.89 input    1.60 | X-H torsion
[  965  957  956  954 ] final  107.95 input    0.45 | X-H torsion

>  <Gold.Protein.ActiveResidues>  (21) 
 LYS47   THR48   LEU49   GLY50   THR51   GLY52   SER53   PHE54   GLY55   ARG56  
 VAL57   MET58   LEU59   TYR69   ALA70   MET71   LYS72   ILE73   LEU74   GLU91  
 LEU95   VAL104  LYS105  MET118  VAL119  MET120  GLU121  TYR122  VAL123  PRO124 
 GLY125  GLY126  GLU127  MET128  PHE129  TYR164  ASP166  LEU167  LYS168  PRO169 
 GLU170  ASN171  LEU172  LEU173  ILE174  GLN181  VAL182  THR183  ASP184  PHE185 
 GLY186  PHE187  GLY200  THR201  ASN326  PHE327  TYR330  ARG18   ARG19   ASN20  
 ALA21   ILE22   HIS23  

>  <Gold.Protein.RotatedAtoms>  (21) 
   11.1946   19.5534    8.5482 H   0  0  0  0  0  0  0  0  0  0  0  0  # atno 641  bound_to 637 
   16.1054   12.5893    6.2617 H   0  0  0  0  0  0  0  0  0  0  0  0  # atno 681  bound_to 677 
   21.0910   11.5480   -0.9297 H   0  0  0  0  0  0  0  0  0  0  0  0  # atno 702  bound_to 698 
   -7.1753   16.3195    0.0205 H   0  0  0  0  0  0  0  0  0  0  0  0  # atno 965  bound_to 957 
    2.0022   10.8335   10.3353 H   0  0  0  0  0  0  0  0  0  0  0  0  # atno 1886 bound_to 1878
   10.1350    1.8991   -2.3914 H   0  0  0  0  0  0  0  0  0  0  0  0  # atno 2577 bound_to 2569
    7.3061    6.5312    1.5213 H   0  0  0  0  0  0  0  0  0  0  0  0  # atno 2891 bound_to 2887
   18.9136    2.5721   -1.3656 H   0  0  0  0  0  0  0  0  0  0  0  0  # atno 3175 bound_to 3171
   12.7444    9.9148   10.0301 H   0  0  0  0  0  0  0  0  0  0  0  0  # atno 5278 bound_to 5270
   15.9261   13.6425    7.4427 LP  0  0  0  0  0  0  0  0  0  0  0  0  # atno 5914 bound_to 677 
   17.2967   13.6044    6.5558 LP  0  0  0  0  0  0  0  0  0  0  0  0  # atno 5915 bound_to 677 
   19.9652   11.7521   -2.0380 LP  0  0  0  0  0  0  0  0  0  0  0  0  # atno 5920 bound_to 698 
   19.5915   11.7877   -0.4487 LP  0  0  0  0  0  0  0  0  0  0  0  0  # atno 5921 bound_to 698 
    9.3855    3.0366   -3.2158 LP  0  0  0  0  0  0  0  0  0  0  0  0  # atno 5950 bound_to 2569
   11.0137    3.0280   -3.0905 LP  0  0  0  0  0  0  0  0  0  0  0  0  # atno 5951 bound_to 2569
    8.3556    6.5007    0.3238 LP  0  0  0  0  0  0  0  0  0  0  0  0  # atno 5982 bound_to 2887
    7.6299    5.1305    0.8361 LP  0  0  0  0  0  0  0  0  0  0  0  0  # atno 5983 bound_to 2887
   19.1021    2.9351    0.1733 LP  0  0  0  0  0  0  0  0  0  0  0  0  # atno 6000 bound_to 3171
   17.8813    1.9668   -0.3151 LP  0  0  0  0  0  0  0  0  0  0  0  0  # atno 6001 bound_to 3171
   14.3360    9.9000   10.0876 LP  0  0  0  0  0  0  0  0  0  0  0  0  # atno 6004 bound_to 5270
   13.5516   10.2353    8.6951 LP  0  0  0  0  0  0  0  0  0  0  0  0  # atno 6005 bound_to 5270
    9.6111   19.5767    8.3843 LP  0  0  0  0  0  0  0  0  0  0  0  0  # atno 6055 bound_to 637 
   10.5636   18.9317    7.2252 LP  0  0  0  0  0  0  0  0  0  0  0  0  # atno 6056 bound_to 637 
    0.5998   11.1390   11.0247 LP  0  0  0  0  0  0  0  0  0  0  0  0  # atno 6063 bound_to 1878
    1.6778   12.3352   10.7534 LP  0  0  0  0  0  0  0  0  0  0  0  0  # atno 6064 bound_to 1878
   -6.6511   15.4270   -1.1894 LP  0  0  0  0  0  0  0  0  0  0  0  0  # atno 6067 bound_to 957 
   -6.5999   17.0573   -1.2678 LP  0  0  0  0  0  0  0  0  0  0  0  0  # atno 6068 bound_to 957 

>  <STRIFE_LigEff_Score>  (21) 
2.9880235294117647

$$$$
unknown|pharmsElabsTestMulti|sdf|2|dock4
     RDKit          3D

 20 21  0  0  0  0  0  0  0  0999 V2000
   15.1590    8.1242    0.9743 C   0  0  0  0  0  0  0  0  0  0  0  0
   14.6860    7.9302    2.4249 C   0  0  0  0  0  0  0  0  0  0  0  0
   15.5289    8.7079    3.3379 N   0  0  0  0  0  0  0  0  0  0  0  0
   13.1527    8.1427    2.6924 C   0  0  0  0  0  0  0  0  0  0  0  0
   12.2534    7.1146    2.0075 C   0  0  0  0  0  0  0  0  0  0  0  0
   10.7664    7.2687    2.2864 C   0  0  0  0  0  0  0  0  0  0  0  0
   10.3083    8.7071    2.2754 C   0  0  0  0  0  0  0  0  0  0  0  0
    8.8163    8.8683    2.2628 C   0  0  0  0  0  0  0  0  0  0  0  0
    8.1975    8.0994    3.0369 O   0  0  0  0  0  0  0  0  0  0  0  0
    8.0701    9.7992    1.4611 N   0  0  0  0  0  0  0  0  0  0  0  0
    6.6007    9.7373    1.4326 C   0  0  0  0  0  0  0  0  0  0  0  0
    6.0458    9.8056    2.8337 C   0  0  0  0  0  0  0  0  0  0  0  0
    6.7869   10.3695    3.8885 C   0  0  0  0  0  0  0  0  0  0  0  0
    6.2708   10.3714    5.1895 C   0  0  0  0  0  0  0  0  0  0  0  0
    5.0142    9.8152    5.4456 C   0  0  0  0  0  0  0  0  0  0  0  0
    4.2705    9.2538    4.4022 C   0  0  0  0  0  0  0  0  0  0  0  0
    3.0192    8.7027    4.6647 O   0  0  0  0  0  0  0  0  0  0  0  0
    4.7887    9.2460    3.1015 C   0  0  0  0  0  0  0  0  0  0  0  0
   11.1210    9.7002    3.0755 C   0  0  0  0  0  0  0  0  0  0  0  0
   12.6219    9.5881    2.7636 C   0  0  0  0  0  0  0  0  0  0  0  0
  1  2  1  0
  2  3  1  0
  2  4  1  0
  4  5  1  0
  5  6  1  0
  6  7  1  0
  7  8  1  0
  8  9  2  0
  8 10  1  0
 10 11  1  0
 11 12  1  0
 12 13  2  0
 13 14  1  0
 14 15  2  0
 15 16  1  0
 16 17  1  0
 16 18  2  0
  7 19  1  0
 19 20  1  0
 20  4  1  0
 18 12  1  0
M  CHG  1   3   1
M  END
>  <EmbedRMS>  (22) 
0.24874902131530774

>  <Gold.Version>  (22) 
2020.3.0

>  <Gold.Id.Protein>  (22) 
unknown|1q8t_protein|pdb

>  <Gold.PLP.Fitness>  (22) 
46.3956

>  <Gold.PLP.PLP>  (22) 
-41.6627

>  <Gold.PLP.part.hbond>  (22) 
-3.8396

>  <Gold.PLP.part.metal>  (22) 
0.0000

>  <Gold.PLP.part.buried>  (22) 
2.6831

>  <Gold.PLP.part.nonpolar>  (22) 
-41.2011

>  <Gold.PLP.part.repulsive>  (22) 
0.0359

>  <Gold.PLP.ligand.clash>  (22) 
0.0000

>  <Gold.PLP.ligand.torsion>  (22) 
1.0009

>  <Gold.PLP.Chemscore.Hbond>  (22) 
1.9833

>  <Gold.PLP.Chemscore.CHOScore>  (22) 
0.0000

>  <Gold.PLP.Chemscore.Metal>  (22) 
0.0000

>  <Gold.Chemscore.Hbonds>  (22) 
donor molecule, donor type, donor heavy atom, donor atom, acceptor molecule, acceptor atom, score
      L1  H     3    26       P1   675  1.00
      L1  H    17    40       P1  1891  0.98

>  <Gold.PLP.Chemscore.Internal.Correction>  (22) 
0.7848

>  <Gold.PLP.Constraint>  (22) 
-0.0000

>  <Gold.Protein.RotatedTorsions>  (22) 
[  681  677  676  673 ] final -105.14 input -179.99 | X-H torsion
[  702  698  697  694 ] final   81.01 input  179.99 | X-H torsion
[ 2577 2569 2568 2566 ] final -162.58 input   -0.13 | X-H torsion
[ 2891 2887 2886 2883 ] final  -13.16 input  179.98 | X-H torsion
[ 3175 3171 3170 3167 ] final  106.69 input -179.99 | X-H torsion
[ 5278 5270 5269 5267 ] final  100.93 input    0.55 | X-H torsion
[  641  637  636  633 ] final -176.17 input  179.99 | X-H torsion
[ 1886 1878 1877 1875 ] final   17.12 input    1.60 | X-H torsion
[  965  957  956  954 ] final -154.53 input    0.45 | X-H torsion

>  <Gold.Protein.ActiveResidues>  (22) 
 LYS47   THR48   LEU49   GLY50   THR51   GLY52   SER53   PHE54   GLY55   ARG56  
 VAL57   MET58   LEU59   TYR69   ALA70   MET71   LYS72   ILE73   LEU74   GLU91  
 LEU95   VAL104  LYS105  MET118  VAL119  MET120  GLU121  TYR122  VAL123  PRO124 
 GLY125  GLY126  GLU127  MET128  PHE129  TYR164  ASP166  LEU167  LYS168  PRO169 
 GLU170  ASN171  LEU172  LEU173  ILE174  GLN181  VAL182  THR183  ASP184  PHE185 
 GLY186  PHE187  GLY200  THR201  ASN326  PHE327  TYR330  ARG18   ARG19   ASN20  
 ALA21   ILE22   HIS23  

>  <Gold.Protein.RotatedAtoms>  (22) 
   11.3588   19.3476    8.1632 H   0  0  0  0  0  0  0  0  0  0  0  0  # atno 641  bound_to 637 
   16.0036   13.6832    7.4094 H   0  0  0  0  0  0  0  0  0  0  0  0  # atno 681  bound_to 677 
   19.6386   11.8222   -1.7956 H   0  0  0  0  0  0  0  0  0  0  0  0  # atno 702  bound_to 698 
   -6.7292   17.1483   -0.9423 H   0  0  0  0  0  0  0  0  0  0  0  0  # atno 965  bound_to 957 
    2.2489   11.5788   10.3537 H   0  0  0  0  0  0  0  0  0  0  0  0  # atno 1886 bound_to 1878
   10.8131    2.1395   -2.5086 H   0  0  0  0  0  0  0  0  0  0  0  0  # atno 2577 bound_to 2569
    7.9624    5.3076    0.4680 H   0  0  0  0  0  0  0  0  0  0  0  0  # atno 2891 bound_to 2887
   17.9942    1.9598   -0.8412 H   0  0  0  0  0  0  0  0  0  0  0  0  # atno 3175 bound_to 3171
   13.4689   10.2390    8.7461 H   0  0  0  0  0  0  0  0  0  0  0  0  # atno 5278 bound_to 5270
   17.3019   13.5484    6.4970 LP  0  0  0  0  0  0  0  0  0  0  0  0  # atno 5914 bound_to 677 
   16.0280   12.5472    6.2936 LP  0  0  0  0  0  0  0  0  0  0  0  0  # atno 5915 bound_to 677 
   19.9479   11.7204   -0.2363 LP  0  0  0  0  0  0  0  0  0  0  0  0  # atno 5920 bound_to 698 
   21.1368   11.5310   -1.3396 LP  0  0  0  0  0  0  0  0  0  0  0  0  # atno 5921 bound_to 698 
    9.2691    2.4095   -2.7889 LP  0  0  0  0  0  0  0  0  0  0  0  0  # atno 5950 bound_to 2569
   10.4161    3.4020   -3.3940 LP  0  0  0  0  0  0  0  0  0  0  0  0  # atno 5951 bound_to 2569
    7.1418    6.0405    1.6195 LP  0  0  0  0  0  0  0  0  0  0  0  0  # atno 5982 bound_to 2887
    8.1530    6.8784    0.6490 LP  0  0  0  0  0  0  0  0  0  0  0  0  # atno 5983 bound_to 2887
   19.2623    2.8866   -1.1028 LP  0  0  0  0  0  0  0  0  0  0  0  0  # atno 6000 bound_to 3171
   18.6886    2.6597    0.4092 LP  0  0  0  0  0  0  0  0  0  0  0  0  # atno 6001 bound_to 3171
   12.7481    9.8757   10.1191 LP  0  0  0  0  0  0  0  0  0  0  0  0  # atno 6004 bound_to 5270
   14.3771    9.9184   10.0146 LP  0  0  0  0  0  0  0  0  0  0  0  0  # atno 6005 bound_to 5270
    9.9222   19.7356    8.7295 LP  0  0  0  0  0  0  0  0  0  0  0  0  # atno 6055 bound_to 637 
   10.0795   18.9895    7.2855 LP  0  0  0  0  0  0  0  0  0  0  0  0  # atno 6056 bound_to 637 
    1.0869   10.5500   10.7095 LP  0  0  0  0  0  0  0  0  0  0  0  0  # atno 6063 bound_to 1878
    0.9310   12.1396   11.0493 LP  0  0  0  0  0  0  0  0  0  0  0  0  # atno 6064 bound_to 1878
   -7.1915   15.9582    0.0091 LP  0  0  0  0  0  0  0  0  0  0  0  0  # atno 6067 bound_to 957 
   -6.5294   15.6532   -1.4522 LP  0  0  0  0  0  0  0  0  0  0  0  0  # atno 6068 bound_to 957 

>  <STRIFE_LigEff_Score>  (22) 
2.31978

$$$$
unknown|pharmsElabsTestMulti|sdf|30|dock1
     RDKit          3D

 17 17  0  0  0  0  0  0  0  0999 V2000
   15.4864    6.1836    2.8906 C   0  0  0  0  0  0  0  0  0  0  0  0
   14.5339    7.1318    2.1428 C   0  0  0  0  0  0  0  0  0  0  0  0
   14.2881    6.6325    0.7866 N   0  0  0  0  0  0  0  0  0  0  0  0
   13.2084    7.5212    2.8908 C   0  0  0  0  0  0  0  0  0  0  0  0
   11.9669    7.5186    2.0001 C   0  0  0  0  0  0  0  0  0  0  0  0
   10.6614    7.8452    2.7092 C   0  0  0  0  0  0  0  0  0  0  0  0
   10.7950    8.9680    3.7102 C   0  0  0  0  0  0  0  0  0  0  0  0
    9.4811    9.4999    4.2074 C   0  0  0  0  0  0  0  0  0  0  0  0
    8.8004   10.1043    3.3425 O   0  0  0  0  0  0  0  0  0  0  0  0
    8.9577    9.3816    5.5429 N   0  0  0  0  0  0  0  0  0  0  0  0
    7.6864   10.0559    5.8533 C   0  0  0  0  0  0  0  0  0  0  0  0
    6.5624    9.5604    5.0034 C   0  0  0  0  0  0  0  0  0  0  0  0
    6.7972    8.7324    4.0827 O   0  0  0  0  0  0  0  0  0  0  0  0
    5.2296   10.0206    5.2391 N   0  0  0  0  0  0  0  0  0  0  0  0
    3.8707    9.4432    4.2701 S   0  0  0  0  0  0  0  0  0  0  0  0
   11.9479    8.8960    4.6859 C   0  0  0  0  0  0  0  0  0  0  0  0
   13.2806    8.6168    3.9727 C   0  0  0  0  0  0  0  0  0  0  0  0
  1  2  1  0
  2  3  1  0
  2  4  1  0
  4  5  1  0
  5  6  1  0
  6  7  1  0
  7  8  1  0
  8  9  2  0
  8 10  1  0
 10 11  1  0
 11 12  1  0
 12 13  2  0
 12 14  1  0
 14 15  1  0
  7 16  1  0
 16 17  1  0
 17  4  1  0
M  CHG  1   3   1
M  END
>  <EmbedRMS>  (23) 
0.26838957564480415

>  <Gold.Version>  (23) 
2020.3.0

>  <Gold.Id.Protein>  (23) 
unknown|1q8t_protein|pdb

>  <Gold.PLP.Fitness>  (23) 
47.3070

>  <Gold.PLP.PLP>  (23) 
-37.2777

>  <Gold.PLP.part.hbond>  (23) 
-3.0000

>  <Gold.PLP.part.metal>  (23) 
0.0000

>  <Gold.PLP.part.buried>  (23) 
-4.9747

>  <Gold.PLP.part.nonpolar>  (23) 
-30.2084

>  <Gold.PLP.part.repulsive>  (23) 
0.1432

>  <Gold.PLP.ligand.clash>  (23) 
0.0000

>  <Gold.PLP.ligand.torsion>  (23) 
1.3712

>  <Gold.PLP.Chemscore.Hbond>  (23) 
3.9753

>  <Gold.PLP.Chemscore.CHOScore>  (23) 
0.0000

>  <Gold.PLP.Chemscore.Metal>  (23) 
0.0000

>  <Gold.Chemscore.Hbonds>  (23) 
donor molecule, donor type, donor heavy atom, donor atom, acceptor molecule, acceptor atom, score
      L1  H     3    22       P1  2691  0.99
      L1  H     3    24       P1  2902  1.98
      L1  H    10    31       P1  1940  1.00

>  <Gold.PLP.Chemscore.Internal.Correction>  (23) 
0.8460

>  <Gold.PLP.Constraint>  (23) 
-0.0000

>  <Gold.Protein.RotatedTorsions>  (23) 
[  681  677  676  673 ] final   32.63 input -179.99 | X-H torsion
[  702  698  697  694 ] final -144.71 input  179.99 | X-H torsion
[ 2577 2569 2568 2566 ] final  -90.52 input   -0.13 | X-H torsion
[ 2891 2887 2886 2883 ] final -163.77 input  179.98 | X-H torsion
[ 3175 3171 3170 3167 ] final   11.77 input -179.99 | X-H torsion
[ 5278 5270 5269 5267 ] final   80.11 input    0.55 | X-H torsion
[  641  637  636  633 ] final   46.44 input  179.99 | X-H torsion
[ 1886 1878 1877 1875 ] final -115.13 input    1.60 | X-H torsion
[  965  957  956  954 ] final -105.27 input    0.45 | X-H torsion

>  <Gold.Protein.ActiveResidues>  (23) 
 LYS47   THR48   LEU49   GLY50   THR51   GLY52   SER53   PHE54   GLY55   ARG56  
 VAL57   MET58   LEU59   TYR69   ALA70   MET71   LYS72   ILE73   LEU74   GLU91  
 LEU95   VAL104  LYS105  MET118  VAL119  MET120  GLU121  TYR122  VAL123  PRO124 
 GLY125  GLY126  GLU127  MET128  PHE129  TYR164  ASP166  LEU167  LYS168  PRO169 
 GLU170  ASN171  LEU172  LEU173  ILE174  GLN181  VAL182  THR183  ASP184  PHE185 
 GLY186  PHE187  GLY200  THR201  ASN326  PHE327  TYR330  ARG18   ARG19   ASN20  
 ALA21   ILE22   HIS23  

>  <Gold.Protein.RotatedAtoms>  (23) 
    9.7553   19.6248    8.5307 H   0  0  0  0  0  0  0  0  0  0  0  0  # atno 641  bound_to 637 
   16.2804   12.6017    6.1656 H   0  0  0  0  0  0  0  0  0  0  0  0  # atno 681  bound_to 677 
   21.1147   11.5473   -1.1074 H   0  0  0  0  0  0  0  0  0  0  0  0  # atno 702  bound_to 698 
   -6.4806   16.7160   -1.4976 H   0  0  0  0  0  0  0  0  0  0  0  0  # atno 965  bound_to 957 
    0.9462   10.6800   10.7747 H   0  0  0  0  0  0  0  0  0  0  0  0  # atno 1886 bound_to 1878
   10.9719    3.0004   -3.0947 H   0  0  0  0  0  0  0  0  0  0  0  0  # atno 2577 bound_to 2569
    7.2889    6.4974    1.5332 H   0  0  0  0  0  0  0  0  0  0  0  0  # atno 2891 bound_to 2887
   19.0132    2.6525   -1.3144 H   0  0  0  0  0  0  0  0  0  0  0  0  # atno 3175 bound_to 3171
   13.1551   10.2167    8.8232 H   0  0  0  0  0  0  0  0  0  0  0  0  # atno 5278 bound_to 5270
   15.7849   13.4970    7.3859 LP  0  0  0  0  0  0  0  0  0  0  0  0  # atno 5914 bound_to 677 
   17.2537   13.7368    6.7137 LP  0  0  0  0  0  0  0  0  0  0  0  0  # atno 5915 bound_to 677 
   19.7934   11.7812   -1.9658 LP  0  0  0  0  0  0  0  0  0  0  0  0  # atno 5920 bound_to 698 
   19.7385   11.7595   -0.3339 LP  0  0  0  0  0  0  0  0  0  0  0  0  # atno 5921 bound_to 698 
   10.1333    1.8697   -2.3507 LP  0  0  0  0  0  0  0  0  0  0  0  0  # atno 5950 bound_to 2569
    9.3846    3.0355   -3.2150 LP  0  0  0  0  0  0  0  0  0  0  0  0  # atno 5951 bound_to 2569
    8.3465    6.5367    0.3431 LP  0  0  0  0  0  0  0  0  0  0  0  0  # atno 5982 bound_to 2887
    7.6572    5.1300    0.8044 LP  0  0  0  0  0  0  0  0  0  0  0  0  # atno 5983 bound_to 2887
   19.0048    2.8746    0.2623 LP  0  0  0  0  0  0  0  0  0  0  0  0  # atno 6000 bound_to 3171
   17.8738    1.9426   -0.4580 LP  0  0  0  0  0  0  0  0  0  0  0  0  # atno 6001 bound_to 3171
   12.9862    9.8196   10.3563 LP  0  0  0  0  0  0  0  0  0  0  0  0  # atno 6004 bound_to 5270
   14.4692    9.9979    9.6963 LP  0  0  0  0  0  0  0  0  0  0  0  0  # atno 6005 bound_to 5270
   10.3537   18.9421    7.2227 LP  0  0  0  0  0  0  0  0  0  0  0  0  # atno 6055 bound_to 637 
   11.3368   19.4911    8.4053 LP  0  0  0  0  0  0  0  0  0  0  0  0  # atno 6056 bound_to 637 
    1.0909   12.2499   10.9976 LP  0  0  0  0  0  0  0  0  0  0  0  0  # atno 6063 bound_to 1878
    2.2984   11.3858   10.3179 LP  0  0  0  0  0  0  0  0  0  0  0  0  # atno 6064 bound_to 1878
   -7.1547   16.7406   -0.0554 LP  0  0  0  0  0  0  0  0  0  0  0  0  # atno 6067 bound_to 957 
   -6.8280   15.3261   -0.8029 LP  0  0  0  0  0  0  0  0  0  0  0  0  # atno 6068 bound_to 957 

>  <STRIFE_LigEff_Score>  (23) 
2.7827647058823533

$$$$
unknown|pharmsElabsTestMulti|sdf|31|dock3
     RDKit          3D

 18 18  0  0  0  0  0  0  0  0999 V2000
   14.1299    6.8502    3.3139 C   0  0  0  0  0  0  0  0  0  0  0  0
   13.4880    7.9698    2.5127 C   0  0  0  0  0  0  0  0  0  0  0  0
   14.3579    9.1021    2.2208 N   0  0  0  0  0  0  0  0  0  0  0  0
   11.9932    8.2792    2.8162 C   0  0  0  0  0  0  0  0  0  0  0  0
   10.9489    7.1757    2.5682 C   0  0  0  0  0  0  0  0  0  0  0  0
    9.5670    7.8432    2.4669 C   0  0  0  0  0  0  0  0  0  0  0  0
    9.2404    8.6196    3.7557 C   0  0  0  0  0  0  0  0  0  0  0  0
    7.9196    9.3262    3.6353 C   0  0  0  0  0  0  0  0  0  0  0  0
    7.3998    9.5403    2.5038 O   0  0  0  0  0  0  0  0  0  0  0  0
    7.2748    9.7828    4.8233 N   0  0  0  0  0  0  0  0  0  0  0  0
    5.9787   10.4496    4.7906 C   0  0  0  0  0  0  0  0  0  0  0  0
    4.8797    9.5056    5.2768 C   0  0  0  0  0  0  0  0  0  0  0  0
    3.5992    9.6822    4.4565 C   0  0  0  0  0  0  0  0  0  0  0  0
    3.8183    9.2058    3.0619 C   0  0  0  0  0  0  0  0  0  0  0  0
    4.9680    8.8495    2.6915 O   0  0  0  0  0  0  0  0  0  0  0  0
    2.7607    9.2024    2.1588 O   0  0  0  0  0  0  0  0  0  0  0  0
   10.3459    9.6150    4.1562 C   0  0  0  0  0  0  0  0  0  0  0  0
   11.7273    8.9458    4.1772 C   0  0  0  0  0  0  0  0  0  0  0  0
  1  2  1  0
  2  3  1  0
  2  4  1  0
  4  5  1  0
  5  6  1  0
  6  7  1  0
  7  8  1  0
  8  9  2  0
  8 10  1  0
 10 11  1  0
 11 12  1  0
 12 13  1  0
 13 14  1  0
 14 15  2  0
 14 16  1  0
  7 17  1  0
 17 18  1  0
 18  4  1  0
M  CHG  1   3   1
M  END
>  <EmbedRMS>  (24) 
0.18258946011905208

>  <Gold.Version>  (24) 
2020.3.0

>  <Gold.Id.Protein>  (24) 
unknown|1q8t_protein|pdb

>  <Gold.PLP.Fitness>  (24) 
48.8922

>  <Gold.PLP.PLP>  (24) 
-44.4461

>  <Gold.PLP.part.hbond>  (24) 
-2.0000

>  <Gold.PLP.part.metal>  (24) 
0.0000

>  <Gold.PLP.part.buried>  (24) 
-6.1291

>  <Gold.PLP.part.nonpolar>  (24) 
-36.2527

>  <Gold.PLP.part.repulsive>  (24) 
0.0287

>  <Gold.PLP.ligand.clash>  (24) 
0.0000

>  <Gold.PLP.ligand.torsion>  (24) 
0.9732

>  <Gold.PLP.Chemscore.Hbond>  (24) 
1.9040

>  <Gold.PLP.Chemscore.CHOScore>  (24) 
0.0000

>  <Gold.PLP.Chemscore.Metal>  (24) 
0.0000

>  <Gold.Chemscore.Hbonds>  (24) 
donor molecule, donor type, donor heavy atom, donor atom, acceptor molecule, acceptor atom, score
      L1  H     3    23       P1   675  0.98
      L1  H    16    39       P1  1855  0.93

>  <Gold.PLP.Chemscore.Internal.Correction>  (24) 
0.6804

>  <Gold.PLP.Constraint>  (24) 
-0.0000

>  <Gold.Protein.RotatedTorsions>  (24) 
[  681  677  676  673 ] final  167.06 input -179.99 | X-H torsion
[  702  698  697  694 ] final -161.96 input  179.99 | X-H torsion
[ 2577 2569 2568 2566 ] final  -65.50 input   -0.13 | X-H torsion
[ 2891 2887 2886 2883 ] final   83.57 input  179.98 | X-H torsion
[ 3175 3171 3170 3167 ] final -175.40 input -179.99 | X-H torsion
[ 5278 5270 5269 5267 ] final  -29.66 input    0.55 | X-H torsion
[  641  637  636  633 ] final -163.84 input  179.99 | X-H torsion
[ 1886 1878 1877 1875 ] final  -37.24 input    1.60 | X-H torsion
[  965  957  956  954 ] final  -44.37 input    0.45 | X-H torsion

>  <Gold.Protein.ActiveResidues>  (24) 
 LYS47   THR48   LEU49   GLY50   THR51   GLY52   SER53   PHE54   GLY55   ARG56  
 VAL57   MET58   LEU59   TYR69   ALA70   MET71   LYS72   ILE73   LEU74   GLU91  
 LEU95   VAL104  LYS105  MET118  VAL119  MET120  GLU121  TYR122  VAL123  PRO124 
 GLY125  GLY126  GLU127  MET128  PHE129  TYR164  ASP166  LEU167  LYS168  PRO169 
 GLU170  ASN171  LEU172  LEU173  ILE174  GLN181  VAL182  THR183  ASP184  PHE185 
 GLY186  PHE187  GLY200  THR201  ASN326  PHE327  TYR330  ARG18   ARG19   ASN20  
 ALA21   ILE22   HIS23  

>  <Gold.Protein.RotatedAtoms>  (24) 
   11.3567   19.2603    7.9919 H   0  0  0  0  0  0  0  0  0  0  0  0  # atno 641  bound_to 637 
   17.1144   13.8384    6.8751 H   0  0  0  0  0  0  0  0  0  0  0  0  # atno 681  bound_to 677 
   21.0840   11.5579   -1.3742 H   0  0  0  0  0  0  0  0  0  0  0  0  # atno 702  bound_to 698 
   -6.4909   15.8087   -1.4940 H   0  0  0  0  0  0  0  0  0  0  0  0  # atno 965  bound_to 957 
    1.9775   10.8071   10.3417 H   0  0  0  0  0  0  0  0  0  0  0  0  # atno 1886 bound_to 1878
   10.7238    3.2364   -3.2768 H   0  0  0  0  0  0  0  0  0  0  0  0  # atno 2577 bound_to 2569
    8.2738    6.6092    0.4192 H   0  0  0  0  0  0  0  0  0  0  0  0  # atno 2891 bound_to 2887
   18.2001    2.2522    0.2267 H   0  0  0  0  0  0  0  0  0  0  0  0  # atno 3175 bound_to 3171
   12.8913    9.8688   10.2225 H   0  0  0  0  0  0  0  0  0  0  0  0  # atno 5278 bound_to 5270
   16.4955   12.6125    6.0687 LP  0  0  0  0  0  0  0  0  0  0  0  0  # atno 5914 bound_to 677 
   15.6653   13.3197    7.2842 LP  0  0  0  0  0  0  0  0  0  0  0  0  # atno 5915 bound_to 677 
   19.5701   11.8175   -1.7963 LP  0  0  0  0  0  0  0  0  0  0  0  0  # atno 5920 bound_to 698 
   19.9941   11.7120   -0.2228 LP  0  0  0  0  0  0  0  0  0  0  0  0  # atno 5921 bound_to 698 
   10.5350    1.9409   -2.3707 LP  0  0  0  0  0  0  0  0  0  0  0  0  # atno 5950 bound_to 2569
    9.2442    2.7157   -3.0033 LP  0  0  0  0  0  0  0  0  0  0  0  0  # atno 5951 bound_to 2569
    7.7369    5.1391    0.7143 LP  0  0  0  0  0  0  0  0  0  0  0  0  # atno 5982 bound_to 2887
    7.2302    6.4100    1.6056 LP  0  0  0  0  0  0  0  0  0  0  0  0  # atno 5983 bound_to 2887
   18.3481    2.1761   -1.3569 LP  0  0  0  0  0  0  0  0  0  0  0  0  # atno 6000 bound_to 3171
   19.3862    3.0624   -0.4606 LP  0  0  0  0  0  0  0  0  0  0  0  0  # atno 6001 bound_to 3171
   14.4389    9.9580    9.8568 LP  0  0  0  0  0  0  0  0  0  0  0  0  # atno 6004 bound_to 5270
   13.2941   10.2256    8.7234 LP  0  0  0  0  0  0  0  0  0  0  0  0  # atno 6005 bound_to 5270
   10.0985   19.7730    8.8220 LP  0  0  0  0  0  0  0  0  0  0  0  0  # atno 6055 bound_to 637 
    9.9056   19.0441    7.3734 LP  0  0  0  0  0  0  0  0  0  0  0  0  # atno 6056 bound_to 637 
    0.5919   11.1756   11.0344 LP  0  0  0  0  0  0  0  0  0  0  0  0  # atno 6063 bound_to 1878
    1.7117   12.3264   10.7370 LP  0  0  0  0  0  0  0  0  0  0  0  0  # atno 6064 bound_to 1878
   -6.8066   17.2116   -0.8104 LP  0  0  0  0  0  0  0  0  0  0  0  0  # atno 6067 bound_to 957 
   -7.1653   15.8107   -0.0517 LP  0  0  0  0  0  0  0  0  0  0  0  0  # atno 6068 bound_to 957 

>  <STRIFE_LigEff_Score>  (24) 
2.7162333333333333

$$$$
unknown|pharmsElabsTestMulti|sdf|32|dock2
     RDKit          3D

 18 18  0  0  0  0  0  0  0  0999 V2000
    3.9403   10.1006    5.8818 C   0  0  0  0  0  0  0  0  0  0  0  0
    3.8964    9.6819    4.4492 C   0  0  0  0  0  0  0  0  0  0  0  0
    2.8197    9.7883    3.8014 O   0  0  0  0  0  0  0  0  0  0  0  0
    5.0828    9.1852    3.8143 N   0  0  0  0  0  0  0  0  0  0  0  0
    5.1120    8.7703    2.4134 C   0  0  0  0  0  0  0  0  0  0  0  0
    5.7201    9.8678    1.5264 C   0  0  0  0  0  0  0  0  0  0  0  0
    7.1538    9.6215    1.3122 N   0  0  0  0  0  0  0  0  0  0  0  0
    8.0516    9.5610    2.4331 C   0  0  0  0  0  0  0  0  0  0  0  0
    7.6159    9.8341    3.5790 O   0  0  0  0  0  0  0  0  0  0  0  0
    9.4962    9.1631    2.3760 C   0  0  0  0  0  0  0  0  0  0  0  0
    9.7492    7.6542    2.4193 C   0  0  0  0  0  0  0  0  0  0  0  0
   11.2354    7.2611    2.5460 C   0  0  0  0  0  0  0  0  0  0  0  0
   12.1506    8.3642    1.9916 C   0  0  0  0  0  0  0  0  0  0  0  0
   13.6381    7.9967    1.6985 C   0  0  0  0  0  0  0  0  0  0  0  0
   14.6097    9.1508    1.5174 C   0  0  0  0  0  0  0  0  0  0  0  0
   13.8875    6.8458    0.8374 N   0  0  0  0  0  0  0  0  0  0  0  0
   11.9810    9.6475    2.8303 C   0  0  0  0  0  0  0  0  0  0  0  0
   10.5198   10.1325    2.9454 C   0  0  0  0  0  0  0  0  0  0  0  0
  1  2  1  0
  2  3  2  0
  2  4  1  0
  4  5  1  0
  5  6  1  0
  6  7  1  0
  7  8  1  0
  8  9  2  0
  8 10  1  0
 10 11  1  0
 11 12  1  0
 12 13  1  0
 13 14  1  0
 14 15  1  0
 14 16  1  0
 13 17  1  0
 17 18  1  0
 18 10  1  0
M  CHG  1  16   1
M  END
>  <EmbedRMS>  (25) 
0.2509587523478319

>  <Gold.Version>  (25) 
2020.3.0

>  <Gold.Id.Protein>  (25) 
unknown|1q8t_protein|pdb

>  <Gold.PLP.Fitness>  (25) 
49.9883

>  <Gold.PLP.PLP>  (25) 
-38.8216

>  <Gold.PLP.part.hbond>  (25) 
-2.8601

>  <Gold.PLP.part.metal>  (25) 
0.0000

>  <Gold.PLP.part.buried>  (25) 
-5.2306

>  <Gold.PLP.part.nonpolar>  (25) 
-32.3777

>  <Gold.PLP.part.repulsive>  (25) 
0.2451

>  <Gold.PLP.ligand.clash>  (25) 
0.0000

>  <Gold.PLP.ligand.torsion>  (25) 
0.9717

>  <Gold.PLP.Chemscore.Hbond>  (25) 
3.9920

>  <Gold.PLP.Chemscore.CHOScore>  (25) 
0.0000

>  <Gold.PLP.Chemscore.Metal>  (25) 
0.0000

>  <Gold.Chemscore.Hbonds>  (25) 
donor molecule, donor type, donor heavy atom, donor atom, acceptor molecule, acceptor atom, score
      L1  H    16    38       P1  2902  2.00
      L1  H    16    40       P1  2691  0.99
      P1  H  1888  1903       L1     3  1.00

>  <Gold.PLP.Chemscore.Internal.Correction>  (25) 
1.1341

>  <Gold.PLP.Constraint>  (25) 
-0.0000

>  <Gold.Protein.RotatedTorsions>  (25) 
[  681  677  676  673 ] final  -44.81 input -179.99 | X-H torsion
[  702  698  697  694 ] final   -5.24 input  179.99 | X-H torsion
[ 2577 2569 2568 2566 ] final -110.22 input   -0.13 | X-H torsion
[ 2891 2887 2886 2883 ] final  100.14 input  179.98 | X-H torsion
[ 3175 3171 3170 3167 ] final   53.93 input -179.99 | X-H torsion
[ 5278 5270 5269 5267 ] final  -66.88 input    0.55 | X-H torsion
[  641  637  636  633 ] final  129.31 input  179.99 | X-H torsion
[ 1886 1878 1877 1875 ] final  149.44 input    1.60 | X-H torsion
[  965  957  956  954 ] final   80.28 input    0.45 | X-H torsion

>  <Gold.Protein.ActiveResidues>  (25) 
 LYS47   THR48   LEU49   GLY50   THR51   GLY52   SER53   PHE54   GLY55   ARG56  
 VAL57   MET58   LEU59   TYR69   ALA70   MET71   LYS72   ILE73   LEU74   GLU91  
 LEU95   VAL104  LYS105  MET118  VAL119  MET120  GLU121  TYR122  VAL123  PRO124 
 GLY125  GLY126  GLU127  MET128  PHE129  TYR164  ASP166  LEU167  LYS168  PRO169 
 GLU170  ASN171  LEU172  LEU173  ILE174  GLN181  VAL182  THR183  ASP184  PHE185 
 GLY186  PHE187  GLY200  THR201  ASN326  PHE327  TYR330  ARG18   ARG19   ASN20  
 ALA21   ILE22   HIS23  

>  <Gold.Protein.RotatedAtoms>  (25) 
   10.9151   19.6808    8.7671 H   0  0  0  0  0  0  0  0  0  0  0  0  # atno 641  bound_to 637 
   15.6130   12.9993    6.9733 H   0  0  0  0  0  0  0  0  0  0  0  0  # atno 681  bound_to 677 
   19.5428   11.8156   -0.5739 H   0  0  0  0  0  0  0  0  0  0  0  0  # atno 702  bound_to 698 
   -7.1461   15.8985   -0.0526 H   0  0  0  0  0  0  0  0  0  0  0  0  # atno 965  bound_to 957 
    0.8189   11.9697   11.0508 H   0  0  0  0  0  0  0  0  0  0  0  0  # atno 1886 bound_to 1878
   11.0639    2.7635   -2.9235 H   0  0  0  0  0  0  0  0  0  0  0  0  # atno 2577 bound_to 2569
    8.1727    6.7854    0.5785 H   0  0  0  0  0  0  0  0  0  0  0  0  # atno 2891 bound_to 2887
   18.5013    2.2657   -1.3731 H   0  0  0  0  0  0  0  0  0  0  0  0  # atno 3175 bound_to 3171
   13.4014    9.8119   10.4748 H   0  0  0  0  0  0  0  0  0  0  0  0  # atno 5278 bound_to 5270
   16.8461   13.9796    7.2069 LP  0  0  0  0  0  0  0  0  0  0  0  0  # atno 5914 bound_to 677 
   16.8949   12.8357    6.0426 LP  0  0  0  0  0  0  0  0  0  0  0  0  # atno 5915 bound_to 677 
   21.0940   11.5280   -0.7940 LP  0  0  0  0  0  0  0  0  0  0  0  0  # atno 5920 bound_to 698 
   20.0914   11.7303   -2.0669 LP  0  0  0  0  0  0  0  0  0  0  0  0  # atno 5921 bound_to 698 
    9.8190    1.9163   -2.4061 LP  0  0  0  0  0  0  0  0  0  0  0  0  # atno 5950 bound_to 2569
    9.6022    3.2382   -3.3399 LP  0  0  0  0  0  0  0  0  0  0  0  0  # atno 5951 bound_to 2569
    7.9163    5.2144    0.5246 LP  0  0  0  0  0  0  0  0  0  0  0  0  # atno 5982 bound_to 2887
    7.1573    6.1492    1.6276 LP  0  0  0  0  0  0  0  0  0  0  0  0  # atno 5983 bound_to 2887
   19.3538    3.0610   -0.2884 LP  0  0  0  0  0  0  0  0  0  0  0  0  # atno 6000 bound_to 3171
   18.0635    2.1633    0.1545 LP  0  0  0  0  0  0  0  0  0  0  0  0  # atno 6001 bound_to 3171
   14.4061   10.1016    9.2733 LP  0  0  0  0  0  0  0  0  0  0  0  0  # atno 6004 bound_to 5270
   12.7902   10.1419    9.0415 LP  0  0  0  0  0  0  0  0  0  0  0  0  # atno 6005 bound_to 5270
    9.5279   19.4038    8.0365 LP  0  0  0  0  0  0  0  0  0  0  0  0  # atno 6055 bound_to 637 
   10.9411   18.9704    7.3425 LP  0  0  0  0  0  0  0  0  0  0  0  0  # atno 6056 bound_to 637 
    2.2598   11.7764   10.4015 LP  0  0  0  0  0  0  0  0  0  0  0  0  # atno 6063 bound_to 1878
    1.2635   10.5017   10.6234 LP  0  0  0  0  0  0  0  0  0  0  0  0  # atno 6064 bound_to 1878
   -6.5070   15.7205   -1.5000 LP  0  0  0  0  0  0  0  0  0  0  0  0  # atno 6067 bound_to 957 
   -6.7749   17.2072   -0.8801 LP  0  0  0  0  0  0  0  0  0  0  0  0  # atno 6068 bound_to 957 

>  <STRIFE_LigEff_Score>  (25) 
2.777127777777778

$$$$
unknown|pharmsElabsTestMulti|sdf|33|dock10
     RDKit          3D

 17 17  0  0  0  0  0  0  0  0999 V2000
    3.6339    9.5120    2.4622 C   0  0  0  0  0  0  0  0  0  0  0  0
    3.6010    8.6007    3.6782 C   0  0  0  0  0  0  0  0  0  0  0  0
    3.6933    9.3917    4.9103 N   0  0  0  0  0  0  0  0  0  0  0  0
    5.1027    9.5081    5.2949 C   0  0  0  0  0  0  0  0  0  0  0  0
    5.8724   10.3791    4.2966 C   0  0  0  0  0  0  0  0  0  0  0  0
    7.2850    9.9741    4.2483 N   0  0  0  0  0  0  0  0  0  0  0  0
    7.8700    9.5341    3.0107 C   0  0  0  0  0  0  0  0  0  0  0  0
    7.1469    9.4519    1.9870 O   0  0  0  0  0  0  0  0  0  0  0  0
    9.3110    9.1767    2.8037 C   0  0  0  0  0  0  0  0  0  0  0  0
    9.5993    7.6753    2.7290 C   0  0  0  0  0  0  0  0  0  0  0  0
   11.0996    7.3170    2.6977 C   0  0  0  0  0  0  0  0  0  0  0  0
   11.9366    8.4783    2.1377 C   0  0  0  0  0  0  0  0  0  0  0  0
   13.4000    8.1730    1.6926 C   0  0  0  0  0  0  0  0  0  0  0  0
   14.2920    9.3662    1.3946 C   0  0  0  0  0  0  0  0  0  0  0  0
   13.6102    7.0195    0.8243 N   0  0  0  0  0  0  0  0  0  0  0  0
   11.8136    9.7015    3.0690 C   0  0  0  0  0  0  0  0  0  0  0  0
   10.3585   10.1369    3.3429 C   0  0  0  0  0  0  0  0  0  0  0  0
  1  2  1  0
  2  3  1  0
  3  4  1  0
  4  5  1  0
  5  6  1  0
  6  7  1  0
  7  8  2  0
  7  9  1  0
  9 10  1  0
 10 11  1  0
 11 12  1  0
 12 13  1  0
 13 14  1  0
 13 15  1  0
 12 16  1  0
 16 17  1  0
 17  9  1  0
M  CHG  1  15   1
M  END
>  <EmbedRMS>  (26) 
0.25842907567579826

>  <Gold.Version>  (26) 
2020.3.0

>  <Gold.Id.Protein>  (26) 
unknown|1q8t_protein|pdb

>  <Gold.PLP.Fitness>  (26) 
48.7260

>  <Gold.PLP.PLP>  (26) 
-40.6175

>  <Gold.PLP.part.hbond>  (26) 
-2.0245

>  <Gold.PLP.part.metal>  (26) 
0.0000

>  <Gold.PLP.part.buried>  (26) 
-5.2553

>  <Gold.PLP.part.nonpolar>  (26) 
-33.3124

>  <Gold.PLP.part.repulsive>  (26) 
0.0641

>  <Gold.PLP.ligand.clash>  (26) 
0.0000

>  <Gold.PLP.ligand.torsion>  (26) 
0.9269

>  <Gold.PLP.Chemscore.Hbond>  (26) 
2.9440

>  <Gold.PLP.Chemscore.CHOScore>  (26) 
0.0000

>  <Gold.PLP.Chemscore.Metal>  (26) 
0.0000

>  <Gold.Chemscore.Hbonds>  (26) 
donor molecule, donor type, donor heavy atom, donor atom, acceptor molecule, acceptor atom, score
      L1  H    15    39       P1  2691  0.94
      L1  H    15    40       P1  2902  2.00

>  <Gold.PLP.Chemscore.Internal.Correction>  (26) 
1.1302

>  <Gold.PLP.Constraint>  (26) 
-0.0000

>  <Gold.Protein.RotatedTorsions>  (26) 
[  681  677  676  673 ] final -144.11 input -179.99 | X-H torsion
[  702  698  697  694 ] final   14.38 input  179.99 | X-H torsion
[ 2577 2569 2568 2566 ] final   96.66 input   -0.13 | X-H torsion
[ 2891 2887 2886 2883 ] final -177.49 input  179.98 | X-H torsion
[ 3175 3171 3170 3167 ] final   49.51 input -179.99 | X-H torsion
[ 5278 5270 5269 5267 ] final   -9.32 input    0.55 | X-H torsion
[  641  637  636  633 ] final   32.67 input  179.99 | X-H torsion
[ 1886 1878 1877 1875 ] final  -21.12 input    1.60 | X-H torsion
[  965  957  956  954 ] final   90.67 input    0.45 | X-H torsion

>  <Gold.Protein.ActiveResidues>  (26) 
 LYS47   THR48   LEU49   GLY50   THR51   GLY52   SER53   PHE54   GLY55   ARG56  
 VAL57   MET58   LEU59   TYR69   ALA70   MET71   LYS72   ILE73   LEU74   GLU91  
 LEU95   VAL104  LYS105  MET118  VAL119  MET120  GLU121  TYR122  VAL123  PRO124 
 GLY125  GLY126  GLU127  MET128  PHE129  TYR164  ASP166  LEU167  LYS168  PRO169 
 GLU170  ASN171  LEU172  LEU173  ILE174  GLN181  VAL182  THR183  ASP184  PHE185 
 GLY186  PHE187  GLY200  THR201  ASN326  PHE327  TYR330  ARG18   ARG19   ASN20  
 ALA21   ILE22   HIS23  

>  <Gold.Protein.RotatedAtoms>  (26) 
    9.6475   19.5453    8.3631 H   0  0  0  0  0  0  0  0  0  0  0  0  # atno 641  bound_to 637 
   16.5385   13.9376    7.3301 H   0  0  0  0  0  0  0  0  0  0  0  0  # atno 681  bound_to 677 
   19.3980   11.8464   -0.8412 H   0  0  0  0  0  0  0  0  0  0  0  0  # atno 702  bound_to 698 
   -7.1670   16.0517   -0.0035 H   0  0  0  0  0  0  0  0  0  0  0  0  # atno 965  bound_to 957 
    2.1266   11.0067   10.3101 H   0  0  0  0  0  0  0  0  0  0  0  0  # atno 1886 bound_to 1878
    9.4416    2.1931   -2.6463 H   0  0  0  0  0  0  0  0  0  0  0  0  # atno 2577 bound_to 2569
    7.3916    6.6680    1.4551 H   0  0  0  0  0  0  0  0  0  0  0  0  # atno 2891 bound_to 2887
   18.5562    2.3043   -1.3892 H   0  0  0  0  0  0  0  0  0  0  0  0  # atno 3175 bound_to 3171
   12.7128    9.9297    9.9684 H   0  0  0  0  0  0  0  0  0  0  0  0  # atno 5278 bound_to 5270
   17.1245   13.0685    6.1311 LP  0  0  0  0  0  0  0  0  0  0  0  0  # atno 5914 bound_to 677 
   15.6424   12.7594    6.7429 LP  0  0  0  0  0  0  0  0  0  0  0  0  # atno 5915 bound_to 677 
   20.9299   11.5518   -0.5186 LP  0  0  0  0  0  0  0  0  0  0  0  0  # atno 5920 bound_to 698 
   20.4078   11.6741   -2.0611 LP  0  0  0  0  0  0  0  0  0  0  0  0  # atno 5921 bound_to 698 
   10.1027    3.4142   -3.4254 LP  0  0  0  0  0  0  0  0  0  0  0  0  # atno 5950 bound_to 2569
   11.0266    2.3409   -2.6124 LP  0  0  0  0  0  0  0  0  0  0  0  0  # atno 5951 bound_to 2569
    8.3818    6.3332    0.2534 LP  0  0  0  0  0  0  0  0  0  0  0  0  # atno 5982 bound_to 2887
    7.5138    5.1540    0.9763 LP  0  0  0  0  0  0  0  0  0  0  0  0  # atno 5983 bound_to 2887
   19.3330    3.0546   -0.2191 LP  0  0  0  0  0  0  0  0  0  0  0  0  # atno 6000 bound_to 3171
   18.0265    2.1291    0.1022 LP  0  0  0  0  0  0  0  0  0  0  0  0  # atno 6001 bound_to 3171
   14.2947    9.8847   10.1479 LP  0  0  0  0  0  0  0  0  0  0  0  0  # atno 6004 bound_to 5270
   13.6262   10.2349    8.6998 LP  0  0  0  0  0  0  0  0  0  0  0  0  # atno 6005 bound_to 5270
   10.5793   18.9318    7.2271 LP  0  0  0  0  0  0  0  0  0  0  0  0  # atno 6055 bound_to 637 
   11.2247   19.5852    8.5774 LP  0  0  0  0  0  0  0  0  0  0  0  0  # atno 6056 bound_to 637 
    0.6736   10.9361   10.9575 LP  0  0  0  0  0  0  0  0  0  0  0  0  # atno 6063 bound_to 1878
    1.4731   12.3557   10.8472 LP  0  0  0  0  0  0  0  0  0  0  0  0  # atno 6064 bound_to 1878
   -6.5542   15.5911   -1.3990 LP  0  0  0  0  0  0  0  0  0  0  0  0  # atno 6067 bound_to 957 
   -6.7057   17.1753   -1.0329 LP  0  0  0  0  0  0  0  0  0  0  0  0  # atno 6068 bound_to 957 

>  <STRIFE_LigEff_Score>  (26) 
2.866235294117647

$$$$
unknown|pharmsElabsTestMulti|sdf|34|dock9
     RDKit          3D

 20 21  0  0  0  0  0  0  0  0999 V2000
   15.4401    7.3338    2.8932 C   0  0  0  0  0  0  0  0  0  0  0  0
   14.4656    7.6669    1.7508 C   0  0  0  0  0  0  0  0  0  0  0  0
   14.6863    6.7605    0.6200 N   0  0  0  0  0  0  0  0  0  0  0  0
   12.9484    7.7849    2.1410 C   0  0  0  0  0  0  0  0  0  0  0  0
   11.9868    7.3324    1.0431 C   0  0  0  0  0  0  0  0  0  0  0  0
   10.5122    7.3925    1.4103 C   0  0  0  0  0  0  0  0  0  0  0  0
   10.1453    8.6357    2.1842 C   0  0  0  0  0  0  0  0  0  0  0  0
    8.6664    8.8580    2.3090 C   0  0  0  0  0  0  0  0  0  0  0  0
    8.0769    8.0580    3.0744 O   0  0  0  0  0  0  0  0  0  0  0  0
    7.9023    9.8770    1.6429 N   0  0  0  0  0  0  0  0  0  0  0  0
    6.4342    9.8773    1.7337 C   0  0  0  0  0  0  0  0  0  0  0  0
    5.9980    9.9633    3.1752 C   0  0  0  0  0  0  0  0  0  0  0  0
    6.8840   10.3819    4.1849 C   0  0  0  0  0  0  0  0  0  0  0  0
    6.4700   10.4009    5.5218 C   0  0  0  0  0  0  0  0  0  0  0  0
    5.1720   10.0064    5.8589 C   0  0  0  0  0  0  0  0  0  0  0  0
    4.2846    9.5901    4.8608 C   0  0  0  0  0  0  0  0  0  0  0  0
    2.9930    9.1997    5.2041 O   0  0  0  0  0  0  0  0  0  0  0  0
    4.7000    9.5650    3.5240 C   0  0  0  0  0  0  0  0  0  0  0  0
   11.0183    9.0017    3.3635 C   0  0  0  0  0  0  0  0  0  0  0  0
   12.5094    8.9939    2.9905 C   0  0  0  0  0  0  0  0  0  0  0  0
  1  2  1  0
  2  3  1  0
  2  4  1  0
  4  5  1  0
  5  6  1  0
  6  7  1  0
  7  8  1  0
  8  9  2  0
  8 10  1  0
 10 11  1  0
 11 12  1  0
 12 13  2  0
 13 14  1  0
 14 15  2  0
 15 16  1  0
 16 17  1  0
 16 18  2  0
  7 19  1  0
 19 20  1  0
 20  4  1  0
 18 12  1  0
M  CHG  1   3   1
M  END
>  <EmbedRMS>  (27) 
0.24874902131530774

>  <Gold.Version>  (27) 
2020.3.0

>  <Gold.Id.Protein>  (27) 
unknown|1q8t_protein|pdb

>  <Gold.PLP.Fitness>  (27) 
51.8445

>  <Gold.PLP.PLP>  (27) 
-39.7620

>  <Gold.PLP.part.hbond>  (27) 
-4.9121

>  <Gold.PLP.part.metal>  (27) 
0.0000

>  <Gold.PLP.part.buried>  (27) 
3.8839

>  <Gold.PLP.part.nonpolar>  (27) 
-39.7190

>  <Gold.PLP.part.repulsive>  (27) 
0.1309

>  <Gold.PLP.ligand.clash>  (27) 
0.0000

>  <Gold.PLP.ligand.torsion>  (27) 
1.1164

>  <Gold.PLP.Chemscore.Hbond>  (27) 
4.5104

>  <Gold.PLP.Chemscore.CHOScore>  (27) 
0.0000

>  <Gold.PLP.Chemscore.Metal>  (27) 
0.0000

>  <Gold.Chemscore.Hbonds>  (27) 
donor molecule, donor type, donor heavy atom, donor atom, acceptor molecule, acceptor atom, score
      L1  H     3    25       P1  2902  2.00
      L1  H     3    26       P1  2691  1.00
      L1  H    17    40       P1  1891  1.00
      P1  H  1888  1903       L1    17  0.51

>  <Gold.PLP.Chemscore.Internal.Correction>  (27) 
0.7842

>  <Gold.PLP.Constraint>  (27) 
-0.0000

>  <Gold.Protein.RotatedTorsions>  (27) 
[  681  677  676  673 ] final -108.56 input -179.99 | X-H torsion
[  702  698  697  694 ] final -141.16 input  179.99 | X-H torsion
[ 2577 2569 2568 2566 ] final   80.18 input   -0.13 | X-H torsion
[ 2891 2887 2886 2883 ] final  -78.12 input  179.98 | X-H torsion
[ 3175 3171 3170 3167 ] final -117.44 input -179.99 | X-H torsion
[ 5278 5270 5269 5267 ] final -149.26 input    0.55 | X-H torsion
[  641  637  636  633 ] final   84.91 input  179.99 | X-H torsion
[ 1886 1878 1877 1875 ] final  -79.65 input    1.60 | X-H torsion
[  965  957  956  954 ] final  176.92 input    0.45 | X-H torsion

>  <Gold.Protein.ActiveResidues>  (27) 
 LYS47   THR48   LEU49   GLY50   THR51   GLY52   SER53   PHE54   GLY55   ARG56  
 VAL57   MET58   LEU59   TYR69   ALA70   MET71   LYS72   ILE73   LEU74   GLU91  
 LEU95   VAL104  LYS105  MET118  VAL119  MET120  GLU121  TYR122  VAL123  PRO124 
 GLY125  GLY126  GLU127  MET128  PHE129  TYR164  ASP166  LEU167  LYS168  PRO169 
 GLU170  ASN171  LEU172  LEU173  ILE174  GLN181  VAL182  THR183  ASP184  PHE185 
 GLY186  PHE187  GLY200  THR201  ASN326  PHE327  TYR330  ARG18   ARG19   ASN20  
 ALA21   ILE22   HIS23  

>  <Gold.Protein.RotatedAtoms>  (27) 
   10.2455   19.7519    8.8332 H   0  0  0  0  0  0  0  0  0  0  0  0  # atno 641  bound_to 637 
   16.0461   13.7153    7.4148 H   0  0  0  0  0  0  0  0  0  0  0  0  # atno 681  bound_to 677 
   21.1111   11.5468   -1.0520 H   0  0  0  0  0  0  0  0  0  0  0  0  # atno 702  bound_to 698 
   -6.9120   17.1213   -0.5413 H   0  0  0  0  0  0  0  0  0  0  0  0  # atno 965  bound_to 957 
    1.4207   10.5437   10.5423 H   0  0  0  0  0  0  0  0  0  0  0  0  # atno 1886 bound_to 1878
    9.3281    2.3783   -2.7833 H   0  0  0  0  0  0  0  0  0  0  0  0  # atno 2577 bound_to 2569
    7.3361    5.3273    1.1982 H   0  0  0  0  0  0  0  0  0  0  0  0  # atno 2891 bound_to 2887
   18.8912    2.7729    0.2947 H   0  0  0  0  0  0  0  0  0  0  0  0  # atno 3175 bound_to 3171
   14.3920    9.9753    9.8544 H   0  0  0  0  0  0  0  0  0  0  0  0  # atno 5278 bound_to 5270
   17.3018   13.5083    6.4574 LP  0  0  0  0  0  0  0  0  0  0  0  0  # atno 5914 bound_to 677 
   15.9834   12.5535    6.3274 LP  0  0  0  0  0  0  0  0  0  0  0  0  # atno 5915 bound_to 677 
   19.8450   11.7726   -1.9918 LP  0  0  0  0  0  0  0  0  0  0  0  0  # atno 5920 bound_to 698 
   19.6906   11.7686   -0.3662 LP  0  0  0  0  0  0  0  0  0  0  0  0  # atno 5921 bound_to 698 
   10.3720    3.4091   -3.4021 LP  0  0  0  0  0  0  0  0  0  0  0  0  # atno 5950 bound_to 2569
   10.8768    2.1510   -2.4916 LP  0  0  0  0  0  0  0  0  0  0  0  0  # atno 5951 bound_to 2569
    7.5859    6.8963    1.3101 LP  0  0  0  0  0  0  0  0  0  0  0  0  # atno 5982 bound_to 2887
    8.3681    6.0019    0.1899 LP  0  0  0  0  0  0  0  0  0  0  0  0  # atno 5983 bound_to 2887
   17.8852    1.9314   -0.6083 LP  0  0  0  0  0  0  0  0  0  0  0  0  # atno 6000 bound_to 3171
   19.1218    2.7592   -1.2808 LP  0  0  0  0  0  0  0  0  0  0  0  0  # atno 6001 bound_to 3171
   13.3005   10.2260    8.7219 LP  0  0  0  0  0  0  0  0  0  0  0  0  # atno 6004 bound_to 5270
   12.8535    9.8455   10.2457 LP  0  0  0  0  0  0  0  0  0  0  0  0  # atno 6005 bound_to 5270
    9.7975   19.0919    7.4553 LP  0  0  0  0  0  0  0  0  0  0  0  0  # atno 6055 bound_to 637 
   11.3768   19.2074    7.8541 LP  0  0  0  0  0  0  0  0  0  0  0  0  # atno 6056 bound_to 637 
    0.6961   11.8460   11.1028 LP  0  0  0  0  0  0  0  0  0  0  0  0  # atno 6063 bound_to 1878
    2.1936   11.9332   10.4574 LP  0  0  0  0  0  0  0  0  0  0  0  0  # atno 6064 bound_to 1878
   -7.0882   15.5706   -0.2260 LP  0  0  0  0  0  0  0  0  0  0  0  0  # atno 6067 bound_to 957 
   -6.4402   16.0693   -1.6395 LP  0  0  0  0  0  0  0  0  0  0  0  0  # atno 6068 bound_to 957 

>  <STRIFE_LigEff_Score>  (27) 
2.592225

$$$$
unknown|pharmsElabsTestMulti|sdf|35|dock4
     RDKit          3D

 17 17  0  0  0  0  0  0  0  0999 V2000
    3.7898    9.4273    2.5432 C   0  0  0  0  0  0  0  0  0  0  0  0
    3.4694    8.8626    3.9254 C   0  0  0  0  0  0  0  0  0  0  0  0
    3.8922    9.8146    5.0463 C   0  0  0  0  0  0  0  0  0  0  0  0
    5.3989    9.7559    5.3025 C   0  0  0  0  0  0  0  0  0  0  0  0
    6.1587   10.3781    4.1350 C   0  0  0  0  0  0  0  0  0  0  0  0
    7.5379    9.9093    4.1297 N   0  0  0  0  0  0  0  0  0  0  0  0
    8.0514    9.0696    3.0918 C   0  0  0  0  0  0  0  0  0  0  0  0
    7.3250    8.7669    2.1020 O   0  0  0  0  0  0  0  0  0  0  0  0
    9.4737    8.5775    3.1669 C   0  0  0  0  0  0  0  0  0  0  0  0
    9.8594    7.9411    1.8367 C   0  0  0  0  0  0  0  0  0  0  0  0
   11.2426    7.3183    1.8687 C   0  0  0  0  0  0  0  0  0  0  0  0
   12.3014    8.1248    2.6440 C   0  0  0  0  0  0  0  0  0  0  0  0
   13.7868    7.9292    2.1767 C   0  0  0  0  0  0  0  0  0  0  0  0
   14.8139    7.6397    3.2816 C   0  0  0  0  0  0  0  0  0  0  0  0
   13.9068    6.9352    1.1039 N   0  0  0  0  0  0  0  0  0  0  0  0
   11.9103    9.4555    3.3202 C   0  0  0  0  0  0  0  0  0  0  0  0
   10.4083    9.7445    3.5037 C   0  0  0  0  0  0  0  0  0  0  0  0
  1  2  1  0
  2  3  1  0
  3  4  1  0
  4  5  1  0
  5  6  1  0
  6  7  1  0
  7  8  2  0
  7  9  1  0
  9 10  1  0
 10 11  1  0
 11 12  1  0
 12 13  1  0
 13 14  1  0
 13 15  1  0
 12 16  1  0
 16 17  1  0
 17  9  1  0
M  CHG  1  15   1
M  END
>  <EmbedRMS>  (28) 
0.16933320433084326

>  <Gold.Version>  (28) 
2020.3.0

>  <Gold.Id.Protein>  (28) 
unknown|1q8t_protein|pdb

>  <Gold.PLP.Fitness>  (28) 
54.8608

>  <Gold.PLP.PLP>  (28) 
-44.8975

>  <Gold.PLP.part.hbond>  (28) 
-3.0000

>  <Gold.PLP.part.metal>  (28) 
0.0000

>  <Gold.PLP.part.buried>  (28) 
-2.5661

>  <Gold.PLP.part.nonpolar>  (28) 
-39.5769

>  <Gold.PLP.part.repulsive>  (28) 
0.0716

>  <Gold.PLP.ligand.clash>  (28) 
0.0000

>  <Gold.PLP.ligand.torsion>  (28) 
1.3503

>  <Gold.PLP.Chemscore.Hbond>  (28) 
4.0000

>  <Gold.PLP.Chemscore.CHOScore>  (28) 
0.0000

>  <Gold.PLP.Chemscore.Metal>  (28) 
0.0000

>  <Gold.Chemscore.Hbonds>  (28) 
donor molecule, donor type, donor heavy atom, donor atom, acceptor molecule, acceptor atom, score
      L1  H    15    40       P1  2902  2.00
      L1  H    15    41       P1  2691  1.00
      P1  H  2887  2891       L1     8  1.00

>  <Gold.PLP.Chemscore.Internal.Correction>  (28) 
0.6638

>  <Gold.PLP.Constraint>  (28) 
-0.0000

>  <Gold.Protein.RotatedTorsions>  (28) 
[  681  677  676  673 ] final  -58.35 input -179.99 | X-H torsion
[  702  698  697  694 ] final   17.24 input  179.99 | X-H torsion
[ 2577 2569 2568 2566 ] final   -8.11 input   -0.13 | X-H torsion
[ 2891 2887 2886 2883 ] final  153.16 input  179.98 | X-H torsion
[ 3175 3171 3170 3167 ] final   77.58 input -179.99 | X-H torsion
[ 5278 5270 5269 5267 ] final   96.75 input    0.55 | X-H torsion
[  641  637  636  633 ] final  137.12 input  179.99 | X-H torsion
[ 1886 1878 1877 1875 ] final   24.12 input    1.60 | X-H torsion
[  965  957  956  954 ] final -120.08 input    0.45 | X-H torsion

>  <Gold.Protein.ActiveResidues>  (28) 
 LYS47   THR48   LEU49   GLY50   THR51   GLY52   SER53   PHE54   GLY55   ARG56  
 VAL57   MET58   LEU59   TYR69   ALA70   MET71   LYS72   ILE73   LEU74   GLU91  
 LEU95   VAL104  LYS105  MET118  VAL119  MET120  GLU121  TYR122  VAL123  PRO124 
 GLY125  GLY126  GLU127  MET128  PHE129  TYR164  ASP166  LEU167  LYS168  PRO169 
 GLU170  ASN171  LEU172  LEU173  ILE174  GLN181  VAL182  THR183  ASP184  PHE185 
 GLY186  PHE187  GLY200  THR201  ASN326  PHE327  TYR330  ARG18   ARG19   ASN20  
 ALA21   ILE22   HIS23  

>  <Gold.Protein.RotatedAtoms>  (28) 
   11.0163   19.6454    8.7089 H   0  0  0  0  0  0  0  0  0  0  0  0  # atno 641  bound_to 637 
   15.6295   13.1539    7.1163 H   0  0  0  0  0  0  0  0  0  0  0  0  # atno 681  bound_to 677 
   19.3848   11.8496   -0.8838 H   0  0  0  0  0  0  0  0  0  0  0  0  # atno 702  bound_to 698 
   -6.5372   16.8995   -1.3694 H   0  0  0  0  0  0  0  0  0  0  0  0  # atno 965  bound_to 957 
    2.2324   11.6839   10.3789 H   0  0  0  0  0  0  0  0  0  0  0  0  # atno 1886 bound_to 1878
    9.8759    3.3172   -3.3950 H   0  0  0  0  0  0  0  0  0  0  0  0  # atno 2577 bound_to 2569
    7.6708    6.9076    1.1891 H   0  0  0  0  0  0  0  0  0  0  0  0  # atno 2891 bound_to 2887
   18.2294    2.0865   -1.2036 H   0  0  0  0  0  0  0  0  0  0  0  0  # atno 3175 bound_to 3171
   13.4039   10.2367    8.7526 H   0  0  0  0  0  0  0  0  0  0  0  0  # atno 5278 bound_to 5270
   17.0130   13.9410    7.0653 LP  0  0  0  0  0  0  0  0  0  0  0  0  # atno 5914 bound_to 677 
   16.7107   12.7117    6.0338 LP  0  0  0  0  0  0  0  0  0  0  0  0  # atno 5915 bound_to 677 
   20.8986   11.5567   -0.4839 LP  0  0  0  0  0  0  0  0  0  0  0  0  # atno 5920 bound_to 698 
   20.4530   11.6659   -2.0511 LP  0  0  0  0  0  0  0  0  0  0  0  0  # atno 5921 bound_to 698 
   11.1031    2.5387   -2.7442 LP  0  0  0  0  0  0  0  0  0  0  0  0  # atno 5950 bound_to 2569
    9.5689    2.0328   -2.5053 LP  0  0  0  0  0  0  0  0  0  0  0  0  # atno 5951 bound_to 2569
    8.3383    5.8616    0.1907 LP  0  0  0  0  0  0  0  0  0  0  0  0  # atno 5982 bound_to 2887
    7.2634    5.3735    1.3189 LP  0  0  0  0  0  0  0  0  0  0  0  0  # atno 5983 bound_to 2887
   19.3905    3.0379   -0.6724 LP  0  0  0  0  0  0  0  0  0  0  0  0  # atno 6000 bound_to 3171
   18.3130    2.3750    0.3601 LP  0  0  0  0  0  0  0  0  0  0  0  0  # atno 6001 bound_to 3171
   12.7885    9.8627   10.1732 LP  0  0  0  0  0  0  0  0  0  0  0  0  # atno 6004 bound_to 5270
   14.4051    9.9338    9.9536 LP  0  0  0  0  0  0  0  0  0  0  0  0  # atno 6005 bound_to 5270
    9.5365   19.4617    8.1508 LP  0  0  0  0  0  0  0  0  0  0  0  0  # atno 6055 bound_to 637 
   10.8260   18.9498    7.2895 LP  0  0  0  0  0  0  0  0  0  0  0  0  # atno 6056 bound_to 637 
    1.1858   10.5175   10.6603 LP  0  0  0  0  0  0  0  0  0  0  0  0  # atno 6063 bound_to 1878
    0.8495   12.0615   11.0719 LP  0  0  0  0  0  0  0  0  0  0  0  0  # atno 6064 bound_to 1878
   -7.1952   16.5162    0.0289 LP  0  0  0  0  0  0  0  0  0  0  0  0  # atno 6067 bound_to 957 
   -6.7279   15.3573   -1.0223 LP  0  0  0  0  0  0  0  0  0  0  0  0  # atno 6068 bound_to 957 

>  <STRIFE_LigEff_Score>  (28) 
3.227105882352941

$$$$
unknown|pharmsElabsTestMulti|sdf|3|dock5
     RDKit          3D

 18 18  0  0  0  0  0  0  0  0999 V2000
   14.7690    9.0078    1.7308 C   0  0  0  0  0  0  0  0  0  0  0  0
   13.8156    7.8252    1.7408 C   0  0  0  0  0  0  0  0  0  0  0  0
   14.1017    6.7889    0.7569 N   0  0  0  0  0  0  0  0  0  0  0  0
   12.3188    8.1355    2.0349 C   0  0  0  0  0  0  0  0  0  0  0  0
   11.3297    6.9598    2.1304 C   0  0  0  0  0  0  0  0  0  0  0  0
    9.9088    7.5168    1.9401 C   0  0  0  0  0  0  0  0  0  0  0  0
    9.5906    8.5800    3.0084 C   0  0  0  0  0  0  0  0  0  0  0  0
    8.2264    9.1696    2.7845 C   0  0  0  0  0  0  0  0  0  0  0  0
    7.5780    8.9082    1.7314 O   0  0  0  0  0  0  0  0  0  0  0  0
    7.6782   10.0460    3.7747 N   0  0  0  0  0  0  0  0  0  0  0  0
    6.3723   10.6717    3.6287 C   0  0  0  0  0  0  0  0  0  0  0  0
    5.4238   10.1593    4.7080 C   0  0  0  0  0  0  0  0  0  0  0  0
    4.2214    9.5442    4.0727 C   0  0  0  0  0  0  0  0  0  0  0  0
    3.2635    9.1594    4.7959 O   0  0  0  0  0  0  0  0  0  0  0  0
    4.1350    9.4469    2.6486 N   0  0  0  0  0  0  0  0  0  0  0  0
    2.9993    8.8955    2.0363 N   0  0  0  0  0  0  0  0  0  0  0  0
   10.6526    9.6941    3.0801 C   0  0  0  0  0  0  0  0  0  0  0  0
   12.0703    9.1156    3.1949 C   0  0  0  0  0  0  0  0  0  0  0  0
  1  2  1  0
  2  3  1  0
  2  4  1  0
  4  5  1  0
  5  6  1  0
  6  7  1  0
  7  8  1  0
  8  9  2  0
  8 10  1  0
 10 11  1  0
 11 12  1  0
 12 13  1  0
 13 14  2  0
 13 15  1  0
 15 16  1  0
  7 17  1  0
 17 18  1  0
 18  4  1  0
M  CHG  1   3   1
M  END
>  <EmbedRMS>  (29) 
0.1825443482688951

>  <Gold.Version>  (29) 
2020.3.0

>  <Gold.Id.Protein>  (29) 
unknown|1q8t_protein|pdb

>  <Gold.PLP.Fitness>  (29) 
47.9700

>  <Gold.PLP.PLP>  (29) 
-31.3528

>  <Gold.PLP.part.hbond>  (29) 
-5.0000

>  <Gold.PLP.part.metal>  (29) 
0.0000

>  <Gold.PLP.part.buried>  (29) 
-2.5833

>  <Gold.PLP.part.nonpolar>  (29) 
-24.3406

>  <Gold.PLP.part.repulsive>  (29) 
0.2602

>  <Gold.PLP.ligand.clash>  (29) 
0.6347

>  <Gold.PLP.ligand.torsion>  (29) 
0.6524

>  <Gold.PLP.Chemscore.Hbond>  (29) 
6.0000

>  <Gold.PLP.Chemscore.CHOScore>  (29) 
0.0000

>  <Gold.PLP.Chemscore.Metal>  (29) 
0.0000

>  <Gold.Chemscore.Hbonds>  (29) 
donor molecule, donor type, donor heavy atom, donor atom, acceptor molecule, acceptor atom, score
      L1  H     3    23       P1  2691  1.00
      L1  H     3    24       P1  2902  2.00
      L1  H    16    38       P1  1855  1.00
      P1  H  2887  2891       L1     9  1.00
      P1  H  1888  1903       L1    14  1.00

>  <Gold.PLP.Chemscore.Internal.Correction>  (29) 
0.5568

>  <Gold.PLP.Constraint>  (29) 
-0.0000

>  <Gold.Protein.RotatedTorsions>  (29) 
[  681  677  676  673 ] final  -66.18 input -179.99 | X-H torsion
[  702  698  697  694 ] final   -1.96 input  179.99 | X-H torsion
[ 2577 2569 2568 2566 ] final -124.31 input   -0.13 | X-H torsion
[ 2891 2887 2886 2883 ] final  155.14 input  179.98 | X-H torsion
[ 3175 3171 3170 3167 ] final  108.63 input -179.99 | X-H torsion
[ 5278 5270 5269 5267 ] final  144.92 input    0.55 | X-H torsion
[  641  637  636  633 ] final   75.78 input  179.99 | X-H torsion
[ 1886 1878 1877 1875 ] final  -86.74 input    1.60 | X-H torsion
[  965  957  956  954 ] final  -55.79 input    0.45 | X-H torsion

>  <Gold.Protein.ActiveResidues>  (29) 
 LYS47   THR48   LEU49   GLY50   THR51   GLY52   SER53   PHE54   GLY55   ARG56  
 VAL57   MET58   LEU59   TYR69   ALA70   MET71   LYS72   ILE73   LEU74   GLU91  
 LEU95   VAL104  LYS105  MET118  VAL119  MET120  GLU121  TYR122  VAL123  PRO124 
 GLY125  GLY126  GLU127  MET128  PHE129  TYR164  ASP166  LEU167  LYS168  PRO169 
 GLU170  ASN171  LEU172  LEU173  ILE174  GLN181  VAL182  THR183  ASP184  PHE185 
 GLY186  PHE187  GLY200  THR201  ASN326  PHE327  TYR330  ARG18   ARG19   ASN20  
 ALA21   ILE22   HIS23  

>  <Gold.Protein.RotatedAtoms>  (29) 
   10.1110   19.7368    8.7888 H   0  0  0  0  0  0  0  0  0  0  0  0  # atno 641  bound_to 637 
   15.6596   13.2468    7.1898 H   0  0  0  0  0  0  0  0  0  0  0  0  # atno 681  bound_to 677 
   19.5124   11.8218   -0.6149 H   0  0  0  0  0  0  0  0  0  0  0  0  # atno 702  bound_to 698 
   -6.4582   15.9698   -1.5625 H   0  0  0  0  0  0  0  0  0  0  0  0  # atno 965  bound_to 957 
    1.3195   10.5446   10.5871 H   0  0  0  0  0  0  0  0  0  0  0  0  # atno 1886 bound_to 1878
   11.0662    2.5832   -2.7982 H   0  0  0  0  0  0  0  0  0  0  0  0  # atno 2577 bound_to 2569
    7.6505    6.8979    1.2103 H   0  0  0  0  0  0  0  0  0  0  0  0  # atno 2891 bound_to 2887
   17.9839    1.9559   -0.8130 H   0  0  0  0  0  0  0  0  0  0  0  0  # atno 3175 bound_to 3171
   14.1069   10.1954    8.9498 H   0  0  0  0  0  0  0  0  0  0  0  0  # atno 5278 bound_to 5270
   17.0954   13.9013    6.9748 LP  0  0  0  0  0  0  0  0  0  0  0  0  # atno 5914 bound_to 677 
   16.5966   12.6536    6.0469 LP  0  0  0  0  0  0  0  0  0  0  0  0  # atno 5915 bound_to 677 
   21.0731   11.5308   -0.7441 LP  0  0  0  0  0  0  0  0  0  0  0  0  # atno 5920 bound_to 698 
   20.1443   11.7211   -2.0737 LP  0  0  0  0  0  0  0  0  0  0  0  0  # atno 5921 bound_to 698 
    9.6179    2.0026   -2.4808 LP  0  0  0  0  0  0  0  0  0  0  0  0  # atno 5950 bound_to 2569
    9.8009    3.3417   -3.3972 LP  0  0  0  0  0  0  0  0  0  0  0  0  # atno 5951 bound_to 2569
    8.3463    5.8931    0.1891 LP  0  0  0  0  0  0  0  0  0  0  0  0  # atno 5982 bound_to 2887
    7.2768    5.3522    1.2982 LP  0  0  0  0  0  0  0  0  0  0  0  0  # atno 5983 bound_to 2887
   19.2476    2.8724   -1.1272 LP  0  0  0  0  0  0  0  0  0  0  0  0  # atno 6000 bound_to 3171
   18.7142    2.6779    0.4039 LP  0  0  0  0  0  0  0  0  0  0  0  0  # atno 6001 bound_to 3171
   12.6021   10.0397    9.4479 LP  0  0  0  0  0  0  0  0  0  0  0  0  # atno 6004 bound_to 5270
   13.8518    9.8003   10.4715 LP  0  0  0  0  0  0  0  0  0  0  0  0  # atno 6005 bound_to 5270
    9.9105   19.0422    7.3703 LP  0  0  0  0  0  0  0  0  0  0  0  0  # atno 6055 bound_to 637 
   11.4053   19.2730    7.9859 LP  0  0  0  0  0  0  0  0  0  0  0  0  # atno 6056 bound_to 637 
    0.7564   11.9453   11.0931 LP  0  0  0  0  0  0  0  0  0  0  0  0  # atno 6063 bound_to 1878
    2.2399   11.8330   10.4199 LP  0  0  0  0  0  0  0  0  0  0  0  0  # atno 6064 bound_to 1878
   -6.8842   17.1959   -0.6403 LP  0  0  0  0  0  0  0  0  0  0  0  0  # atno 6067 bound_to 957 
   -7.1222   15.6567   -0.1496 LP  0  0  0  0  0  0  0  0  0  0  0  0  # atno 6068 bound_to 957 

>  <STRIFE_LigEff_Score>  (29) 
2.665

$$$$
unknown|pharmsElabsTestMulti|sdf|4|dock1
     RDKit          3D

 18 19  0  0  0  0  0  0  0  0999 V2000
   14.7580    7.5088    3.2259 C   0  0  0  0  0  0  0  0  0  0  0  0
   13.4673    7.4083    2.4131 C   0  0  0  0  0  0  0  0  0  0  0  0
   13.4581    8.3875    1.3178 N   0  0  0  0  0  0  0  0  0  0  0  0
   12.1292    7.3755    3.1757 C   0  0  0  0  0  0  0  0  0  0  0  0
   10.8397    6.9206    2.4426 C   0  0  0  0  0  0  0  0  0  0  0  0
    9.7031    7.9279    2.4350 C   0  0  0  0  0  0  0  0  0  0  0  0
    9.4975    8.5481    3.8145 C   0  0  0  0  0  0  0  0  0  0  0  0
    8.2842    9.4258    3.7937 C   0  0  0  0  0  0  0  0  0  0  0  0
    8.0348   10.1320    2.7764 O   0  0  0  0  0  0  0  0  0  0  0  0
    7.4111    9.4672    4.9214 N   0  0  0  0  0  0  0  0  0  0  0  0
    6.3295   10.4344    4.9650 C   0  0  0  0  0  0  0  0  0  0  0  0
    5.1267   10.0451    4.1163 C   0  0  0  0  0  0  0  0  0  0  0  0
    5.2872   10.1211    2.6234 C   0  0  0  0  0  0  0  0  0  0  0  0
    3.8978    9.7550    2.1264 C   0  0  0  0  0  0  0  0  0  0  0  0
    3.2951    8.8262    3.1934 C   0  0  0  0  0  0  0  0  0  0  0  0
    4.2024    8.8998    4.4285 C   0  0  0  0  0  0  0  0  0  0  0  0
   10.7319    9.3637    4.1854 C   0  0  0  0  0  0  0  0  0  0  0  0
   11.9904    8.5013    4.2463 C   0  0  0  0  0  0  0  0  0  0  0  0
  1  2  1  0
  2  3  1  0
  2  4  1  0
  4  5  1  0
  5  6  1  0
  6  7  1  0
  7  8  1  0
  8  9  2  0
  8 10  1  0
 10 11  1  0
 11 12  1  0
 12 13  1  0
 13 14  1  0
 14 15  1  0
 15 16  1  0
  7 17  1  0
 17 18  1  0
 18  4  1  0
 16 12  1  0
M  CHG  1   3   1
M  END
>  <EmbedRMS>  (30) 
0.2701286003923815

>  <Gold.Version>  (30) 
2020.3.0

>  <Gold.Id.Protein>  (30) 
unknown|1q8t_protein|pdb

>  <Gold.PLP.Fitness>  (30) 
50.4159

>  <Gold.PLP.PLP>  (30) 
-45.7793

>  <Gold.PLP.part.hbond>  (30) 
-1.0000

>  <Gold.PLP.part.metal>  (30) 
0.0000

>  <Gold.PLP.part.buried>  (30) 
-1.9978

>  <Gold.PLP.part.nonpolar>  (30) 
-42.3929

>  <Gold.PLP.part.repulsive>  (30) 
0.0000

>  <Gold.PLP.ligand.clash>  (30) 
0.0000

>  <Gold.PLP.ligand.torsion>  (30) 
0.9951

>  <Gold.PLP.Chemscore.Hbond>  (30) 
2.0000

>  <Gold.PLP.Chemscore.CHOScore>  (30) 
0.0000

>  <Gold.PLP.Chemscore.Metal>  (30) 
0.0000

>  <Gold.Chemscore.Hbonds>  (30) 
donor molecule, donor type, donor heavy atom, donor atom, acceptor molecule, acceptor atom, score
      L1  H     3    23       P1  2902  2.00

>  <Gold.PLP.Chemscore.Internal.Correction>  (30) 
0.6268

>  <Gold.PLP.Constraint>  (30) 
-0.0000

>  <Gold.Protein.RotatedTorsions>  (30) 
[  681  677  676  673 ] final   86.35 input -179.99 | X-H torsion
[  702  698  697  694 ] final  -49.95 input  179.99 | X-H torsion
[ 2577 2569 2568 2566 ] final -143.69 input   -0.13 | X-H torsion
[ 2891 2887 2886 2883 ] final  -25.02 input  179.98 | X-H torsion
[ 3175 3171 3170 3167 ] final   39.53 input -179.99 | X-H torsion
[ 5278 5270 5269 5267 ] final  178.27 input    0.55 | X-H torsion
[  641  637  636  633 ] final  -54.01 input  179.99 | X-H torsion
[ 1886 1878 1877 1875 ] final  -25.62 input    1.60 | X-H torsion
[  965  957  956  954 ] final   38.18 input    0.45 | X-H torsion

>  <Gold.Protein.ActiveResidues>  (30) 
 LYS47   THR48   LEU49   GLY50   THR51   GLY52   SER53   PHE54   GLY55   ARG56  
 VAL57   MET58   LEU59   TYR69   ALA70   MET71   LYS72   ILE73   LEU74   GLU91  
 LEU95   VAL104  LYS105  MET118  VAL119  MET120  GLU121  TYR122  VAL123  PRO124 
 GLY125  GLY126  GLU127  MET128  PHE129  TYR164  ASP166  LEU167  LYS168  PRO169 
 GLU170  ASN171  LEU172  LEU173  ILE174  GLN181  VAL182  THR183  ASP184  PHE185 
 GLY186  PHE187  GLY200  THR201  ASN326  PHE327  TYR330  ARG18   ARG19   ASN20  
 ALA21   ILE22   HIS23  

>  <Gold.Protein.RotatedAtoms>  (30) 
   10.0681   19.0015    7.3442 H   0  0  0  0  0  0  0  0  0  0  0  0  # atno 641  bound_to 637 
   16.9921   12.9822    6.1020 H   0  0  0  0  0  0  0  0  0  0  0  0  # atno 681  bound_to 677 
   20.1295   11.7053   -0.2447 H   0  0  0  0  0  0  0  0  0  0  0  0  # atno 702  bound_to 698 
   -6.9597   15.4476   -0.4716 H   0  0  0  0  0  0  0  0  0  0  0  0  # atno 965  bound_to 957 
    2.0901   10.9470   10.3160 H   0  0  0  0  0  0  0  0  0  0  0  0  # atno 1886 bound_to 1878
   10.9825    2.3425   -2.6371 H   0  0  0  0  0  0  0  0  0  0  0  0  # atno 2577 bound_to 2569
    7.8438    5.2293    0.5866 H   0  0  0  0  0  0  0  0  0  0  0  0  # atno 2891 bound_to 2887
   18.6817    2.3949   -1.4066 H   0  0  0  0  0  0  0  0  0  0  0  0  # atno 3175 bound_to 3171
   14.3889   10.0952    9.3680 H   0  0  0  0  0  0  0  0  0  0  0  0  # atno 5278 bound_to 5270
   15.5985   12.8518    6.8617 LP  0  0  0  0  0  0  0  0  0  0  0  0  # atno 5914 bound_to 677 
   16.6911   13.9816    7.3049 LP  0  0  0  0  0  0  0  0  0  0  0  0  # atno 5915 bound_to 677 
   21.0825   11.5439   -1.5109 LP  0  0  0  0  0  0  0  0  0  0  0  0  # atno 5920 bound_to 698 
   19.4857   11.8306   -1.6963 LP  0  0  0  0  0  0  0  0  0  0  0  0  # atno 5921 bound_to 698 
    9.3983    2.1831   -2.6222 LP  0  0  0  0  0  0  0  0  0  0  0  0  # atno 5950 bound_to 2569
   10.1085    3.4148   -3.4254 LP  0  0  0  0  0  0  0  0  0  0  0  0  # atno 5951 bound_to 2569
    7.1748    6.2323    1.6272 LP  0  0  0  0  0  0  0  0  0  0  0  0  # atno 5982 bound_to 2887
    8.2448    6.7691    0.5165 LP  0  0  0  0  0  0  0  0  0  0  0  0  # atno 5983 bound_to 2887
   19.2709    3.0283   -0.0696 LP  0  0  0  0  0  0  0  0  0  0  0  0  # atno 6000 bound_to 3171
   17.9565    2.0601   -0.0290 LP  0  0  0  0  0  0  0  0  0  0  0  0  # atno 6001 bound_to 3171
   12.8456   10.1578    8.9794 LP  0  0  0  0  0  0  0  0  0  0  0  0  # atno 6004 bound_to 5270
   13.3116    9.7876   10.5000 LP  0  0  0  0  0  0  0  0  0  0  0  0  # atno 6005 bound_to 5270
   11.4096   19.3461    8.1294 LP  0  0  0  0  0  0  0  0  0  0  0  0  # atno 6055 bound_to 637 
    9.9515   19.7435    8.7481 LP  0  0  0  0  0  0  0  0  0  0  0  0  # atno 6056 bound_to 637 
    0.6444   10.9998   10.9812 LP  0  0  0  0  0  0  0  0  0  0  0  0  # atno 6063 bound_to 1878
    1.5407   12.3549   10.8172 LP  0  0  0  0  0  0  0  0  0  0  0  0  # atno 6064 bound_to 1878
   -6.4314   16.3761   -1.6522 LP  0  0  0  0  0  0  0  0  0  0  0  0  # atno 6067 bound_to 957 
   -7.0467   17.0266   -0.2866 LP  0  0  0  0  0  0  0  0  0  0  0  0  # atno 6068 bound_to 957 

>  <STRIFE_LigEff_Score>  (30) 
2.800883333333333

$$$$
unknown|pharmsElabsTestMulti|sdf|5|dock6
     RDKit          3D

 18 18  0  0  0  0  0  0  0  0999 V2000
    3.7438    9.4288    2.2548 C   0  0  0  0  0  0  0  0  0  0  0  0
    2.7256    9.3924    3.3049 N   0  0  0  0  0  0  0  0  0  0  0  0
    3.1776   10.1035    4.5088 C   0  0  0  0  0  0  0  0  0  0  0  0
    4.2114    9.2886    5.2883 C   0  0  0  0  0  0  0  0  0  0  0  0
    5.5358   10.0475    5.3955 C   0  0  0  0  0  0  0  0  0  0  0  0
    6.1495   10.3528    4.0236 C   0  0  0  0  0  0  0  0  0  0  0  0
    7.5970   10.0872    4.0082 N   0  0  0  0  0  0  0  0  0  0  0  0
    8.1777    9.2167    3.0210 C   0  0  0  0  0  0  0  0  0  0  0  0
    7.4280    8.6340    2.2007 O   0  0  0  0  0  0  0  0  0  0  0  0
    9.6380    8.9120    2.8708 C   0  0  0  0  0  0  0  0  0  0  0  0
    9.9193    7.5751    2.2032 C   0  0  0  0  0  0  0  0  0  0  0  0
   11.3792    7.1385    2.2731 C   0  0  0  0  0  0  0  0  0  0  0  0
   12.3716    8.3102    2.3957 C   0  0  0  0  0  0  0  0  0  0  0  0
   13.8323    7.7507    2.3515 C   0  0  0  0  0  0  0  0  0  0  0  0
   14.0826    6.8046    3.5399 C   0  0  0  0  0  0  0  0  0  0  0  0
   14.1252    7.0403    1.0988 N   0  0  0  0  0  0  0  0  0  0  0  0
   12.0673    9.0960    3.6964 C   0  0  0  0  0  0  0  0  0  0  0  0
   10.5892    9.4948    3.8978 C   0  0  0  0  0  0  0  0  0  0  0  0
  1  2  1  0
  2  3  1  0
  3  4  1  0
  4  5  1  0
  5  6  1  0
  6  7  1  0
  7  8  1  0
  8  9  2  0
  8 10  1  0
 10 11  1  0
 11 12  1  0
 12 13  1  0
 13 14  1  0
 14 15  1  0
 14 16  1  0
 13 17  1  0
 17 18  1  0
 18 10  1  0
M  CHG  1  16   1
M  END
>  <EmbedRMS>  (31) 
0.18077726466616018

>  <Gold.Version>  (31) 
2020.3.0

>  <Gold.Id.Protein>  (31) 
unknown|1q8t_protein|pdb

>  <Gold.PLP.Fitness>  (31) 
60.2812

>  <Gold.PLP.PLP>  (31) 
-46.7107

>  <Gold.PLP.part.hbond>  (31) 
-5.0000

>  <Gold.PLP.part.metal>  (31) 
0.0000

>  <Gold.PLP.part.buried>  (31) 
-1.9191

>  <Gold.PLP.part.nonpolar>  (31) 
-40.5836

>  <Gold.PLP.part.repulsive>  (31) 
0.0681

>  <Gold.PLP.ligand.clash>  (31) 
0.0000

>  <Gold.PLP.ligand.torsion>  (31) 
1.1285

>  <Gold.PLP.Chemscore.Hbond>  (31) 
5.0000

>  <Gold.PLP.Chemscore.CHOScore>  (31) 
0.0000

>  <Gold.PLP.Chemscore.Metal>  (31) 
0.0000

>  <Gold.Chemscore.Hbonds>  (31) 
donor molecule, donor type, donor heavy atom, donor atom, acceptor molecule, acceptor atom, score
      L1  H     2    22       P1  1855  1.00
      L1  H    16    42       P1  2691  1.00
      L1  H    16    43       P1  2902  2.00
      P1  H  2887  2891       L1     9  1.00

>  <Gold.PLP.Chemscore.Internal.Correction>  (31) 
0.8275

>  <Gold.PLP.Constraint>  (31) 
-0.0000

>  <Gold.Protein.RotatedTorsions>  (31) 
[  681  677  676  673 ] final   22.11 input -179.99 | X-H torsion
[  702  698  697  694 ] final -143.63 input  179.99 | X-H torsion
[ 2577 2569 2568 2566 ] final   69.42 input   -0.13 | X-H torsion
[ 2891 2887 2886 2883 ] final  156.63 input  179.98 | X-H torsion
[ 3175 3171 3170 3167 ] final   52.24 input -179.99 | X-H torsion
[ 5278 5270 5269 5267 ] final  128.71 input    0.55 | X-H torsion
[  641  637  636  633 ] final -175.10 input  179.99 | X-H torsion
[ 1886 1878 1877 1875 ] final   52.78 input    1.60 | X-H torsion
[  965  957  956  954 ] final  -40.80 input    0.45 | X-H torsion

>  <Gold.Protein.ActiveResidues>  (31) 
 LYS47   THR48   LEU49   GLY50   THR51   GLY52   SER53   PHE54   GLY55   ARG56  
 VAL57   MET58   LEU59   TYR69   ALA70   MET71   LYS72   ILE73   LEU74   GLU91  
 LEU95   VAL104  LYS105  MET118  VAL119  MET120  GLU121  TYR122  VAL123  PRO124 
 GLY125  GLY126  GLU127  MET128  PHE129  TYR164  ASP166  LEU167  LYS168  PRO169 
 GLU170  ASN171  LEU172  LEU173  ILE174  GLN181  VAL182  THR183  ASP184  PHE185 
 GLY186  PHE187  GLY200  THR201  ASN326  PHE327  TYR330  ARG18   ARG19   ASN20  
 ALA21   ILE22   HIS23  

>  <Gold.Protein.RotatedAtoms>  (31) 
   11.3602   19.3400    8.1484 H   0  0  0  0  0  0  0  0  0  0  0  0  # atno 641  bound_to 637 
   16.1359   12.5890    6.2426 H   0  0  0  0  0  0  0  0  0  0  0  0  # atno 681  bound_to 677 
   21.1140   11.5471   -1.0905 H   0  0  0  0  0  0  0  0  0  0  0  0  # atno 702  bound_to 698 
   -6.5038   15.7618   -1.4668 H   0  0  0  0  0  0  0  0  0  0  0  0  # atno 965  bound_to 957 
    2.0459   12.0586   10.5250 H   0  0  0  0  0  0  0  0  0  0  0  0  # atno 1886 bound_to 1878
    9.2914    2.5116   -2.8785 H   0  0  0  0  0  0  0  0  0  0  0  0  # atno 2577 bound_to 2569
    7.6353    6.8898    1.2260 H   0  0  0  0  0  0  0  0  0  0  0  0  # atno 2891 bound_to 2887
   18.5222    2.2803   -1.3798 H   0  0  0  0  0  0  0  0  0  0  0  0  # atno 3175 bound_to 3171
   13.8925   10.2254    8.8194 H   0  0  0  0  0  0  0  0  0  0  0  0  # atno 5278 bound_to 5270
   15.8986   13.6176    7.4350 LP  0  0  0  0  0  0  0  0  0  0  0  0  # atno 5914 bound_to 677 
   17.2921   13.6297    6.5837 LP  0  0  0  0  0  0  0  0  0  0  0  0  # atno 5915 bound_to 677 
   19.8089   11.7786   -1.9741 LP  0  0  0  0  0  0  0  0  0  0  0  0  # atno 5920 bound_to 698 
   19.7237   11.7623   -0.3434 LP  0  0  0  0  0  0  0  0  0  0  0  0  # atno 5921 bound_to 698 
   10.5404    3.3716   -3.3638 LP  0  0  0  0  0  0  0  0  0  0  0  0  # atno 5950 bound_to 2569
   10.7471    2.0482   -2.4297 LP  0  0  0  0  0  0  0  0  0  0  0  0  # atno 5951 bound_to 2569
    8.3518    5.9170    0.1884 LP  0  0  0  0  0  0  0  0  0  0  0  0  # atno 5982 bound_to 2887
    7.2873    5.3367    1.2823 LP  0  0  0  0  0  0  0  0  0  0  0  0  # atno 5983 bound_to 2887
   19.3463    3.0590   -0.2618 LP  0  0  0  0  0  0  0  0  0  0  0  0  # atno 6000 bound_to 3171
   18.0490    2.1500    0.1350 LP  0  0  0  0  0  0  0  0  0  0  0  0  # atno 6001 bound_to 3171
   12.5930    9.9760    9.7059 LP  0  0  0  0  0  0  0  0  0  0  0  0  # atno 6004 bound_to 5270
   14.0865    9.8325   10.3507 LP  0  0  0  0  0  0  0  0  0  0  0  0  # atno 6005 bound_to 5270
    9.9366   19.7396    8.7388 LP  0  0  0  0  0  0  0  0  0  0  0  0  # atno 6055 bound_to 637 
   10.0637   18.9936    7.2918 LP  0  0  0  0  0  0  0  0  0  0  0  0  # atno 6056 bound_to 637 
    1.6133   10.5271   10.4735 LP  0  0  0  0  0  0  0  0  0  0  0  0  # atno 6063 bound_to 1878
    0.6183   11.6575   11.1049 LP  0  0  0  0  0  0  0  0  0  0  0  0  # atno 6064 bound_to 1878
   -6.7823   17.2088   -0.8638 LP  0  0  0  0  0  0  0  0  0  0  0  0  # atno 6067 bound_to 957 
   -7.1760   15.8629   -0.0270 LP  0  0  0  0  0  0  0  0  0  0  0  0  # atno 6068 bound_to 957 

>  <STRIFE_LigEff_Score>  (31) 
3.3489555555555555

$$$$
unknown|pharmsElabsTestMulti|sdf|6|dock9
     RDKit          3D

 18 19  0  0  0  0  0  0  0  0999 V2000
   15.1018    8.4612    2.4207 C   0  0  0  0  0  0  0  0  0  0  0  0
   13.9483    7.5323    2.0828 C   0  0  0  0  0  0  0  0  0  0  0  0
   14.0656    6.8352    0.8082 N   0  0  0  0  0  0  0  0  0  0  0  0
   12.5263    7.9970    2.5131 C   0  0  0  0  0  0  0  0  0  0  0  0
   11.4066    6.9451    2.6096 C   0  0  0  0  0  0  0  0  0  0  0  0
   10.0568    7.6815    2.5680 C   0  0  0  0  0  0  0  0  0  0  0  0
    9.9505    8.6942    3.7242 C   0  0  0  0  0  0  0  0  0  0  0  0
    8.6611    9.4616    3.6464 C   0  0  0  0  0  0  0  0  0  0  0  0
    8.3515   10.0959    2.5977 O   0  0  0  0  0  0  0  0  0  0  0  0
    7.8030    9.4921    4.7913 N   0  0  0  0  0  0  0  0  0  0  0  0
    6.5071   10.1541    4.7791 C   0  0  0  0  0  0  0  0  0  0  0  0
    5.7302    9.7588    3.5243 C   0  0  0  0  0  0  0  0  0  0  0  0
    4.2604    9.4870    3.8598 C   0  0  0  0  0  0  0  0  0  0  0  0
    3.3427    8.8214    2.8319 C   0  0  0  0  0  0  0  0  0  0  0  0
    3.9637    9.1847    5.3075 C   0  0  0  0  0  0  0  0  0  0  0  0
    3.6008   10.4020    4.8789 C   0  0  0  0  0  0  0  0  0  0  0  0
   11.1471    9.6629    3.7850 C   0  0  0  0  0  0  0  0  0  0  0  0
   12.4848    8.9107    3.7504 C   0  0  0  0  0  0  0  0  0  0  0  0
  1  2  1  0
  2  3  1  0
  2  4  1  0
  4  5  1  0
  5  6  1  0
  6  7  1  0
  7  8  1  0
  8  9  2  0
  8 10  1  0
 10 11  1  0
 11 12  1  0
 12 13  1  0
 13 14  1  0
 13 15  1  0
 15 16  1  0
  7 17  1  0
 17 18  1  0
 18  4  1  0
 16 13  1  0
M  CHG  1   3   1
M  END
>  <EmbedRMS>  (32) 
0.5113108624362681

>  <Gold.Version>  (32) 
2020.3.0

>  <Gold.Id.Protein>  (32) 
unknown|1q8t_protein|pdb

>  <Gold.PLP.Fitness>  (32) 
53.1372

>  <Gold.PLP.PLP>  (32) 
-45.4276

>  <Gold.PLP.part.hbond>  (32) 
-2.0000

>  <Gold.PLP.part.metal>  (32) 
0.0000

>  <Gold.PLP.part.buried>  (32) 
-1.1775

>  <Gold.PLP.part.nonpolar>  (32) 
-43.7310

>  <Gold.PLP.part.repulsive>  (32) 
0.0921

>  <Gold.PLP.ligand.clash>  (32) 
0.0000

>  <Gold.PLP.ligand.torsion>  (32) 
1.2501

>  <Gold.PLP.Chemscore.Hbond>  (32) 
3.0000

>  <Gold.PLP.Chemscore.CHOScore>  (32) 
0.0000

>  <Gold.PLP.Chemscore.Metal>  (32) 
0.0000

>  <Gold.Chemscore.Hbonds>  (32) 
donor molecule, donor type, donor heavy atom, donor atom, acceptor molecule, acceptor atom, score
      L1  H     3    23       P1  2902  2.00
      L1  H     3    24       P1  2691  1.00

>  <Gold.PLP.Chemscore.Internal.Correction>  (32) 
1.2097

>  <Gold.PLP.Constraint>  (32) 
-0.0000

>  <Gold.Protein.RotatedTorsions>  (32) 
[  681  677  676  673 ] final  -33.15 input -179.99 | X-H torsion
[  702  698  697  694 ] final   26.27 input  179.99 | X-H torsion
[ 2577 2569 2568 2566 ] final  -50.94 input   -0.13 | X-H torsion
[ 2891 2887 2886 2883 ] final  170.26 input  179.98 | X-H torsion
[ 3175 3171 3170 3167 ] final  -29.17 input -179.99 | X-H torsion
[ 5278 5270 5269 5267 ] final  171.43 input    0.55 | X-H torsion
[  641  637  636  633 ] final -118.31 input  179.99 | X-H torsion
[ 1886 1878 1877 1875 ] final  179.80 input    1.60 | X-H torsion
[  965  957  956  954 ] final   95.75 input    0.45 | X-H torsion

>  <Gold.Protein.ActiveResidues>  (32) 
 LYS47   THR48   LEU49   GLY50   THR51   GLY52   SER53   PHE54   GLY55   ARG56  
 VAL57   MET58   LEU59   TYR69   ALA70   MET71   LYS72   ILE73   LEU74   GLU91  
 LEU95   VAL104  LYS105  MET118  VAL119  MET120  GLU121  TYR122  VAL123  PRO124 
 GLY125  GLY126  GLU127  MET128  PHE129  TYR164  ASP166  LEU167  LYS168  PRO169 
 GLU170  ASN171  LEU172  LEU173  ILE174  GLN181  VAL182  THR183  ASP184  PHE185 
 GLY186  PHE187  GLY200  THR201  ASN326  PHE327  TYR330  ARG18   ARG19   ASN20  
 ALA21   ILE22   HIS23  

>  <Gold.Protein.RotatedAtoms>  (32) 
   11.0152   19.0013    7.4473 H   0  0  0  0  0  0  0  0  0  0  0  0  # atno 641  bound_to 637 
   15.6353   12.8781    6.8393 H   0  0  0  0  0  0  0  0  0  0  0  0  # atno 681  bound_to 677 
   19.3569   11.8572   -1.0218 H   0  0  0  0  0  0  0  0  0  0  0  0  # atno 702  bound_to 698 
   -7.1729   16.1293    0.0112 H   0  0  0  0  0  0  0  0  0  0  0  0  # atno 965  bound_to 957 
    0.6268   11.5420   11.0625 H   0  0  0  0  0  0  0  0  0  0  0  0  # atno 1886 bound_to 1878
   10.5283    3.3240   -3.3519 H   0  0  0  0  0  0  0  0  0  0  0  0  # atno 2577 bound_to 2569
    7.5008    6.7916    1.3582 H   0  0  0  0  0  0  0  0  0  0  0  0  # atno 2891 bound_to 2887
   19.3293    2.9462   -0.8603 H   0  0  0  0  0  0  0  0  0  0  0  0  # atno 3175 bound_to 3171
   14.3524   10.1189    9.2704 H   0  0  0  0  0  0  0  0  0  0  0  0  # atno 5278 bound_to 5270
   16.6839   13.9810    7.3088 LP  0  0  0  0  0  0  0  0  0  0  0  0  # atno 5914 bound_to 677 
   17.0336   12.9619    6.0818 LP  0  0  0  0  0  0  0  0  0  0  0  0  # atno 5915 bound_to 677 
   20.7894   11.5741   -0.3851 LP  0  0  0  0  0  0  0  0  0  0  0  0  # atno 5920 bound_to 698 
   20.5916   11.6405   -2.0047 LP  0  0  0  0  0  0  0  0  0  0  0  0  # atno 5921 bound_to 698 
   10.7423    2.0451   -2.4279 LP  0  0  0  0  0  0  0  0  0  0  0  0  # atno 5950 bound_to 2569
    9.2427    2.5193   -2.8671 LP  0  0  0  0  0  0  0  0  0  0  0  0  # atno 5951 bound_to 2569
    8.3834    6.1379    0.2048 LP  0  0  0  0  0  0  0  0  0  0  0  0  # atno 5982 bound_to 2887
    7.3972    5.2192    1.1269 LP  0  0  0  0  0  0  0  0  0  0  0  0  # atno 5983 bound_to 2887
   18.4796    2.5052    0.4122 LP  0  0  0  0  0  0  0  0  0  0  0  0  # atno 6000 bound_to 3171
   18.0663    2.0030   -1.0857 LP  0  0  0  0  0  0  0  0  0  0  0  0  # atno 6001 bound_to 3171
   12.7733   10.1365    9.0628 LP  0  0  0  0  0  0  0  0  0  0  0  0  # atno 6004 bound_to 5270
   13.4224    9.7840   10.5192 LP  0  0  0  0  0  0  0  0  0  0  0  0  # atno 6005 bound_to 5270
   10.8273   19.7432    8.8435 LP  0  0  0  0  0  0  0  0  0  0  0  0  # atno 6055 bound_to 637 
    9.5363   19.3466    7.9255 LP  0  0  0  0  0  0  0  0  0  0  0  0  # atno 6056 bound_to 637 
    2.0100   12.1641   10.5778 LP  0  0  0  0  0  0  0  0  0  0  0  0  # atno 6063 bound_to 1878
    1.7155   10.5643   10.4347 LP  0  0  0  0  0  0  0  0  0  0  0  0  # atno 6064 bound_to 1878
   -6.5805   15.5358   -1.3423 LP  0  0  0  0  0  0  0  0  0  0  0  0  # atno 6067 bound_to 957 
   -6.6731   17.1488   -1.1050 LP  0  0  0  0  0  0  0  0  0  0  0  0  # atno 6068 bound_to 957 

>  <STRIFE_LigEff_Score>  (32) 
2.9520666666666666

$$$$
unknown|pharmsElabsTestMulti|sdf|7|dock8
     RDKit          3D

 13 13  0  0  0  0  0  0  0  0999 V2000
    4.7978    8.9126    2.8859 C   0  0  0  0  0  0  0  0  0  0  0  0
    6.1929    8.9333    2.4393 N   0  0  0  0  0  0  0  0  0  0  0  0
    7.2507    8.9993    3.4066 C   0  0  0  0  0  0  0  0  0  0  0  0
    6.9593    9.1214    4.6222 O   0  0  0  0  0  0  0  0  0  0  0  0
    8.7163    8.9084    3.1012 C   0  0  0  0  0  0  0  0  0  0  0  0
    9.2922    7.4902    3.1271 C   0  0  0  0  0  0  0  0  0  0  0  0
   10.8285    7.4240    3.0018 C   0  0  0  0  0  0  0  0  0  0  0  0
   11.3807    8.6639    2.2808 C   0  0  0  0  0  0  0  0  0  0  0  0
   12.8432    8.6017    1.7420 C   0  0  0  0  0  0  0  0  0  0  0  0
   13.4355    9.8946    1.2071 C   0  0  0  0  0  0  0  0  0  0  0  0
   13.2401    7.4001    1.0156 N   0  0  0  0  0  0  0  0  0  0  0  0
   11.0795    9.9249    3.1160 C   0  0  0  0  0  0  0  0  0  0  0  0
    9.5876   10.0986    3.4715 C   0  0  0  0  0  0  0  0  0  0  0  0
  1  2  1  0
  2  3  1  0
  3  4  2  0
  3  5  1  0
  5  6  1  0
  6  7  1  0
  7  8  1  0
  8  9  1  0
  9 10  1  0
  9 11  1  0
  8 12  1  0
 12 13  1  0
 13  5  1  0
M  CHG  1  11   1
M  END
>  <EmbedRMS>  (33) 
0.29639754771625826

>  <Gold.Version>  (33) 
2020.3.0

>  <Gold.Id.Protein>  (33) 
unknown|1q8t_protein|pdb

>  <Gold.PLP.Fitness>  (33) 
34.1230

>  <Gold.PLP.PLP>  (33) 
-25.9909

>  <Gold.PLP.part.hbond>  (33) 
-2.0000

>  <Gold.PLP.part.metal>  (33) 
0.0000

>  <Gold.PLP.part.buried>  (33) 
-3.2384

>  <Gold.PLP.part.nonpolar>  (33) 
-20.5216

>  <Gold.PLP.part.repulsive>  (33) 
0.0474

>  <Gold.PLP.ligand.clash>  (33) 
0.0000

>  <Gold.PLP.ligand.torsion>  (33) 
0.5285

>  <Gold.PLP.Chemscore.Hbond>  (33) 
2.7200

>  <Gold.PLP.Chemscore.CHOScore>  (33) 
0.0000

>  <Gold.PLP.Chemscore.Metal>  (33) 
0.0000

>  <Gold.Chemscore.Hbonds>  (33) 
donor molecule, donor type, donor heavy atom, donor atom, acceptor molecule, acceptor atom, score
      L1  H    11    28       P1  2691  0.72
      L1  H    11    29       P1  2902  2.00

>  <Gold.PLP.Chemscore.Internal.Correction>  (33) 
1.0290

>  <Gold.PLP.Constraint>  (33) 
-0.0000

>  <Gold.Protein.RotatedTorsions>  (33) 
[  681  677  676  673 ] final  -27.98 input -179.99 | X-H torsion
[  702  698  697  694 ] final  -48.40 input  179.99 | X-H torsion
[ 2577 2569 2568 2566 ] final -113.61 input   -0.13 | X-H torsion
[ 2891 2887 2886 2883 ] final -169.21 input  179.98 | X-H torsion
[ 3175 3171 3170 3167 ] final  -15.86 input -179.99 | X-H torsion
[ 5278 5270 5269 5267 ] final   12.98 input    0.55 | X-H torsion
[  641  637  636  633 ] final   74.13 input  179.99 | X-H torsion
[ 1886 1878 1877 1875 ] final   31.23 input    1.60 | X-H torsion
[  965  957  956  954 ] final -107.81 input    0.45 | X-H torsion

>  <Gold.Protein.ActiveResidues>  (33) 
 LYS47   THR48   LEU49   GLY50   THR51   GLY52   SER53   PHE54   GLY55   ARG56  
 VAL57   MET58   LEU59   TYR69   ALA70   MET71   LYS72   ILE73   LEU74   GLU91  
 LEU95   VAL104  LYS105  MET118  VAL119  MET120  GLU121  TYR122  VAL123  PRO124 
 GLY125  GLY126  GLU127  MET128  PHE129  TYR164  ASP166  LEU167  LYS168  PRO169 
 GLU170  ASN171  LEU172  LEU173  ILE174  GLN181  VAL182  THR183  ASP184  PHE185 
 GLY186  PHE187  GLY200  THR201  ASN326  PHE327  TYR330  ARG18   ARG19   ASN20  
 ALA21   ILE22   HIS23  

>  <Gold.Protein.RotatedAtoms>  (33) 
   10.0875   19.7329    8.7788 H   0  0  0  0  0  0  0  0  0  0  0  0  # atno 641  bound_to 637 
   15.6559   12.8294    6.7782 H   0  0  0  0  0  0  0  0  0  0  0  0  # atno 681  bound_to 677 
   20.1058   11.7095   -0.2478 H   0  0  0  0  0  0  0  0  0  0  0  0  # atno 702  bound_to 698 
   -6.4889   16.7500   -1.4787 H   0  0  0  0  0  0  0  0  0  0  0  0  # atno 965  bound_to 957 
    2.2034   11.7867   10.4092 H   0  0  0  0  0  0  0  0  0  0  0  0  # atno 1886 bound_to 1878
   11.0693    2.7204   -2.8932 H   0  0  0  0  0  0  0  0  0  0  0  0  # atno 2577 bound_to 2569
    7.3268    6.5686    1.5063 H   0  0  0  0  0  0  0  0  0  0  0  0  # atno 2891 bound_to 2887
   19.2587    2.8703   -1.0402 H   0  0  0  0  0  0  0  0  0  0  0  0  # atno 3175 bound_to 3171
   12.6347   10.0097    9.6405 H   0  0  0  0  0  0  0  0  0  0  0  0  # atno 5278 bound_to 5270
   16.6083   13.9721    7.3468 LP  0  0  0  0  0  0  0  0  0  0  0  0  # atno 5914 bound_to 677 
   17.0876   13.0221    6.1080 LP  0  0  0  0  0  0  0  0  0  0  0  0  # atno 5915 bound_to 677 
   21.0922   11.5417   -1.4873 LP  0  0  0  0  0  0  0  0  0  0  0  0  # atno 5920 bound_to 698 
   19.5010   11.8282   -1.7167 LP  0  0  0  0  0  0  0  0  0  0  0  0  # atno 5921 bound_to 698 
    9.7682    1.9332   -2.4216 LP  0  0  0  0  0  0  0  0  0  0  0  0  # atno 5950 bound_to 2569
    9.6472    3.2667   -3.3564 LP  0  0  0  0  0  0  0  0  0  0  0  0  # atno 5951 bound_to 2569
    8.3646    6.4586    0.3033 LP  0  0  0  0  0  0  0  0  0  0  0  0  # atno 5982 bound_to 2887
    7.5991    5.1332    0.8724 LP  0  0  0  0  0  0  0  0  0  0  0  0  # atno 5983 bound_to 2887
   18.6550    2.6355    0.4145 LP  0  0  0  0  0  0  0  0  0  0  0  0  # atno 6000 bound_to 3171
   17.9652    1.9525   -0.8987 LP  0  0  0  0  0  0  0  0  0  0  0  0  # atno 6001 bound_to 3171
   14.0282    9.8225   10.3887 LP  0  0  0  0  0  0  0  0  0  0  0  0  # atno 6004 bound_to 5270
   13.9748   10.2128    8.8040 LP  0  0  0  0  0  0  0  0  0  0  0  0  # atno 6005 bound_to 5270
    9.9327   19.0340    7.3566 LP  0  0  0  0  0  0  0  0  0  0  0  0  # atno 6055 bound_to 637 
   11.4080   19.2853    8.0101 LP  0  0  0  0  0  0  0  0  0  0  0  0  # atno 6056 bound_to 637 
    1.2900   10.4982   10.6111 LP  0  0  0  0  0  0  0  0  0  0  0  0  # atno 6063 bound_to 1878
    0.7757   11.9725   11.0892 LP  0  0  0  0  0  0  0  0  0  0  0  0  # atno 6064 bound_to 1878
   -7.1634   16.7039   -0.0371 LP  0  0  0  0  0  0  0  0  0  0  0  0  # atno 6067 bound_to 957 
   -6.8106   15.3270   -0.8411 LP  0  0  0  0  0  0  0  0  0  0  0  0  # atno 6068 bound_to 957 

>  <STRIFE_LigEff_Score>  (33) 
2.624846153846154

$$$$
unknown|pharmsElabsTestMulti|sdf|8|dock1
     RDKit          3D

 18 19  0  0  0  0  0  0  0  0999 V2000
   14.6876    7.4294    2.9727 C   0  0  0  0  0  0  0  0  0  0  0  0
   13.3501    7.4306    2.2342 C   0  0  0  0  0  0  0  0  0  0  0  0
   13.3417    8.3655    1.1072 N   0  0  0  0  0  0  0  0  0  0  0  0
   12.0470    7.4961    3.0686 C   0  0  0  0  0  0  0  0  0  0  0  0
   10.7860    7.1277    2.2733 C   0  0  0  0  0  0  0  0  0  0  0  0
    9.4602    7.5928    2.8527 C   0  0  0  0  0  0  0  0  0  0  0  0
    9.5291    8.9901    3.4145 C   0  0  0  0  0  0  0  0  0  0  0  0
    8.1877    9.5992    3.6997 C   0  0  0  0  0  0  0  0  0  0  0  0
    7.6136   10.1002    2.7036 O   0  0  0  0  0  0  0  0  0  0  0  0
    7.5399    9.6567    4.9822 N   0  0  0  0  0  0  0  0  0  0  0  0
    6.2578   10.3602    5.1361 C   0  0  0  0  0  0  0  0  0  0  0  0
    5.2006    9.7292    4.2759 C   0  0  0  0  0  0  0  0  0  0  0  0
    5.4920    8.8933    3.2582 N   0  0  0  0  0  0  0  0  0  0  0  0
    4.2928    8.6034    2.7162 C   0  0  0  0  0  0  0  0  0  0  0  0
    3.3041    9.2696    3.4051 C   0  0  0  0  0  0  0  0  0  0  0  0
    3.8799    9.9793    4.3884 N   0  0  0  0  0  0  0  0  0  0  0  0
   10.6302    9.2606    4.4020 C   0  0  0  0  0  0  0  0  0  0  0  0
   11.9956    8.8170    3.8812 C   0  0  0  0  0  0  0  0  0  0  0  0
  1  2  1  0
  2  3  1  0
  2  4  1  0
  4  5  1  0
  5  6  1  0
  6  7  1  0
  7  8  1  0
  8  9  2  0
  8 10  1  0
 10 11  1  0
 11 12  1  0
 12 13  2  0
 13 14  1  0
 14 15  2  0
 15 16  1  0
  7 17  1  0
 17 18  1  0
 18  4  1  0
 16 12  1  0
M  CHG  1   3   1
M  END
>  <EmbedRMS>  (34) 
0.29341778330362633

>  <Gold.Version>  (34) 
2020.3.0

>  <Gold.Id.Protein>  (34) 
unknown|1q8t_protein|pdb

>  <Gold.PLP.Fitness>  (34) 
48.8489

>  <Gold.PLP.PLP>  (34) 
-40.9196

>  <Gold.PLP.part.hbond>  (34) 
-1.0000

>  <Gold.PLP.part.metal>  (34) 
0.0000

>  <Gold.PLP.part.buried>  (34) 
-5.1539

>  <Gold.PLP.part.nonpolar>  (34) 
-34.1758

>  <Gold.PLP.part.repulsive>  (34) 
0.0711

>  <Gold.PLP.ligand.clash>  (34) 
0.0000

>  <Gold.PLP.ligand.torsion>  (34) 
0.8228

>  <Gold.PLP.Chemscore.Hbond>  (34) 
1.9840

>  <Gold.PLP.Chemscore.CHOScore>  (34) 
0.9988

>  <Gold.PLP.Chemscore.Metal>  (34) 
0.0000

>  <Gold.Chemscore.Hbonds>  (34) 
donor molecule, donor type, donor heavy atom, donor atom, acceptor molecule, acceptor atom, score
      L1  H     3    24       P1  2902  1.98
      L1  C    15    36       P1  1855  1.00

>  <Gold.PLP.Chemscore.Internal.Correction>  (34) 
0.6264

>  <Gold.PLP.Constraint>  (34) 
-0.0000

>  <Gold.Protein.RotatedTorsions>  (34) 
[  681  677  676  673 ] final    2.17 input -179.99 | X-H torsion
[  702  698  697  694 ] final  -84.41 input  179.99 | X-H torsion
[ 2577 2569 2568 2566 ] final  -75.59 input   -0.13 | X-H torsion
[ 2891 2887 2886 2883 ] final  111.79 input  179.98 | X-H torsion
[ 3175 3171 3170 3167 ] final -158.02 input -179.99 | X-H torsion
[ 5278 5270 5269 5267 ] final   51.16 input    0.55 | X-H torsion
[  641  637  636  633 ] final   93.19 input  179.99 | X-H torsion
[ 1886 1878 1877 1875 ] final -166.56 input    1.60 | X-H torsion
[  965  957  956  954 ] final  101.97 input    0.45 | X-H torsion

>  <Gold.Protein.ActiveResidues>  (34) 
 LYS47   THR48   LEU49   GLY50   THR51   GLY52   SER53   PHE54   GLY55   ARG56  
 VAL57   MET58   LEU59   TYR69   ALA70   MET71   LYS72   ILE73   LEU74   GLU91  
 LEU95   VAL104  LYS105  MET118  VAL119  MET120  GLU121  TYR122  VAL123  PRO124 
 GLY125  GLY126  GLU127  MET128  PHE129  TYR164  ASP166  LEU167  LYS168  PRO169 
 GLU170  ASN171  LEU172  LEU173  ILE174  GLN181  VAL182  THR183  ASP184  PHE185 
 GLY186  PHE187  GLY200  THR201  ASN326  PHE327  TYR330  ARG18   ARG19   ASN20  
 ALA21   ILE22   HIS23  

>  <Gold.Protein.RotatedAtoms>  (34) 
   10.3726   19.7568    8.8567 H   0  0  0  0  0  0  0  0  0  0  0  0  # atno 641  bound_to 637 
   15.8930   12.6278    6.4315 H   0  0  0  0  0  0  0  0  0  0  0  0  # atno 681  bound_to 677 
   20.6435   11.6160   -0.3434 H   0  0  0  0  0  0  0  0  0  0  0  0  # atno 702  bound_to 698 
   -7.1762   16.2260    0.0205 H   0  0  0  0  0  0  0  0  0  0  0  0  # atno 965  bound_to 957 
    0.6114   11.3319   11.0335 H   0  0  0  0  0  0  0  0  0  0  0  0  # atno 1886 bound_to 1878
   10.8394    3.1527   -3.2102 H   0  0  0  0  0  0  0  0  0  0  0  0  # atno 2577 bound_to 2569
    8.0799    6.8741    0.7073 H   0  0  0  0  0  0  0  0  0  0  0  0  # atno 2891 bound_to 2887
   18.3904    2.4079    0.3396 H   0  0  0  0  0  0  0  0  0  0  0  0  # atno 3175 bound_to 3171
   12.8082   10.1455    9.0973 H   0  0  0  0  0  0  0  0  0  0  0  0  # atno 5278 bound_to 5270
   16.1604   13.8104    7.4640 LP  0  0  0  0  0  0  0  0  0  0  0  0  # atno 5914 bound_to 677 
   17.2859   13.3959    6.3558 LP  0  0  0  0  0  0  0  0  0  0  0  0  # atno 5915 bound_to 677 
   20.7253   11.6154   -1.9342 LP  0  0  0  0  0  0  0  0  0  0  0  0  # atno 5920 bound_to 698 
   19.3022   11.8529   -1.1693 LP  0  0  0  0  0  0  0  0  0  0  0  0  # atno 5921 bound_to 698 
   10.3769    1.8949   -2.3504 LP  0  0  0  0  0  0  0  0  0  0  0  0  # atno 5950 bound_to 2569
    9.2806    2.8499   -3.0938 LP  0  0  0  0  0  0  0  0  0  0  0  0  # atno 5951 bound_to 2569
    8.0354    5.3102    0.4094 LP  0  0  0  0  0  0  0  0  0  0  0  0  # atno 5982 bound_to 2887
    7.1358    5.9602    1.6072 LP  0  0  0  0  0  0  0  0  0  0  0  0  # atno 5983 bound_to 2887
   18.1508    2.0514   -1.1937 LP  0  0  0  0  0  0  0  0  0  0  0  0  # atno 6000 bound_to 3171
   19.3832    3.0233   -0.7427 LP  0  0  0  0  0  0  0  0  0  0  0  0  # atno 6001 bound_to 3171
   13.4268    9.7839   10.5197 LP  0  0  0  0  0  0  0  0  0  0  0  0  # atno 6004 bound_to 5270
   14.3937   10.1086    9.2445 LP  0  0  0  0  0  0  0  0  0  0  0  0  # atno 6005 bound_to 5270
    9.7094   19.1431    7.5458 LP  0  0  0  0  0  0  0  0  0  0  0  0  # atno 6055 bound_to 637 
   11.3309   19.1511    7.7389 LP  0  0  0  0  0  0  0  0  0  0  0  0  # atno 6056 bound_to 637 
    1.8408   12.2768   10.6716 LP  0  0  0  0  0  0  0  0  0  0  0  0  # atno 6063 bound_to 1878
    1.9008   10.6727   10.3715 LP  0  0  0  0  0  0  0  0  0  0  0  0  # atno 6064 bound_to 1878
   -6.6153   15.4759   -1.2670 LP  0  0  0  0  0  0  0  0  0  0  0  0  # atno 6067 bound_to 957 
   -6.6348   17.1069   -1.1902 LP  0  0  0  0  0  0  0  0  0  0  0  0  # atno 6068 bound_to 957 

>  <STRIFE_LigEff_Score>  (34) 
2.713827777777778

$$$$
unknown|pharmsElabsTestMulti|sdf|9|dock2
     RDKit          3D

 17 17  0  0  0  0  0  0  0  0999 V2000
   14.6352    7.7122    3.5073 C   0  0  0  0  0  0  0  0  0  0  0  0
   13.4310    7.5931    2.5745 C   0  0  0  0  0  0  0  0  0  0  0  0
   13.5834    8.4090    1.3681 N   0  0  0  0  0  0  0  0  0  0  0  0
   12.0119    7.6975    3.1855 C   0  0  0  0  0  0  0  0  0  0  0  0
   10.9104    7.1142    2.2886 C   0  0  0  0  0  0  0  0  0  0  0  0
    9.4900    7.5687    2.5796 C   0  0  0  0  0  0  0  0  0  0  0  0
    9.4038    9.0398    2.8974 C   0  0  0  0  0  0  0  0  0  0  0  0
    8.0073    9.5850    2.8772 C   0  0  0  0  0  0  0  0  0  0  0  0
    7.5972   10.0283    3.9770 O   0  0  0  0  0  0  0  0  0  0  0  0
    7.1311    9.6199    1.7373 N   0  0  0  0  0  0  0  0  0  0  0  0
    5.7301   10.0391    1.8916 C   0  0  0  0  0  0  0  0  0  0  0  0
    4.9722    9.0636    2.8051 C   0  0  0  0  0  0  0  0  0  0  0  0
    5.0417    9.4846    4.2035 N   0  0  0  0  0  0  0  0  0  0  0  0
    3.8659    9.8347    4.9398 C   0  0  0  0  0  0  0  0  0  0  0  0
    2.7291    9.7996    4.3973 O   0  0  0  0  0  0  0  0  0  0  0  0
   10.3219    9.5465    3.9748 C   0  0  0  0  0  0  0  0  0  0  0  0
   11.7714    9.1253    3.7437 C   0  0  0  0  0  0  0  0  0  0  0  0
  1  2  1  0
  2  3  1  0
  2  4  1  0
  4  5  1  0
  5  6  1  0
  6  7  1  0
  7  8  1  0
  8  9  2  0
  8 10  1  0
 10 11  1  0
 11 12  1  0
 12 13  1  0
 13 14  1  0
 14 15  2  0
  7 16  1  0
 16 17  1  0
 17  4  1  0
M  CHG  1   3   1
M  END
>  <EmbedRMS>  (35) 
0.30207850723488733

>  <Gold.Version>  (35) 
2020.3.0

>  <Gold.Id.Protein>  (35) 
unknown|1q8t_protein|pdb

>  <Gold.PLP.Fitness>  (35) 
44.3995

>  <Gold.PLP.PLP>  (35) 
-36.2422

>  <Gold.PLP.part.hbond>  (35) 
-1.9636

>  <Gold.PLP.part.metal>  (35) 
0.0000

>  <Gold.PLP.part.buried>  (35) 
-4.8261

>  <Gold.PLP.part.nonpolar>  (35) 
-29.6191

>  <Gold.PLP.part.repulsive>  (35) 
0.1813

>  <Gold.PLP.ligand.clash>  (35) 
0.0000

>  <Gold.PLP.ligand.torsion>  (35) 
0.6585

>  <Gold.PLP.Chemscore.Hbond>  (35) 
2.9520

>  <Gold.PLP.Chemscore.CHOScore>  (35) 
0.0000

>  <Gold.PLP.Chemscore.Metal>  (35) 
0.0000

>  <Gold.Chemscore.Hbonds>  (35) 
donor molecule, donor type, donor heavy atom, donor atom, acceptor molecule, acceptor atom, score
      L1  H     3    23       P1  2902  1.95
      P1  H  1888  1903       L1    15  1.00

>  <Gold.PLP.Chemscore.Internal.Correction>  (35) 
0.6184

>  <Gold.PLP.Constraint>  (35) 
-0.0000

>  <Gold.Protein.RotatedTorsions>  (35) 
[  681  677  676  673 ] final  -51.99 input -179.99 | X-H torsion
[  702  698  697  694 ] final -138.96 input  179.99 | X-H torsion
[ 2577 2569 2568 2566 ] final  -28.25 input   -0.13 | X-H torsion
[ 2891 2887 2886 2883 ] final  164.20 input  179.98 | X-H torsion
[ 3175 3171 3170 3167 ] final   15.02 input -179.99 | X-H torsion
[ 5278 5270 5269 5267 ] final    5.47 input    0.55 | X-H torsion
[  641  637  636  633 ] final -173.05 input  179.99 | X-H torsion
[ 1886 1878 1877 1875 ] final  -35.62 input    1.60 | X-H torsion
[  965  957  956  954 ] final  -32.30 input    0.45 | X-H torsion

>  <Gold.Protein.ActiveResidues>  (35) 
 LYS47   THR48   LEU49   GLY50   THR51   GLY52   SER53   PHE54   GLY55   ARG56  
 VAL57   MET58   LEU59   TYR69   ALA70   MET71   LYS72   ILE73   LEU74   GLU91  
 LEU95   VAL104  LYS105  MET118  VAL119  MET120  GLU121  TYR122  VAL123  PRO124 
 GLY125  GLY126  GLU127  MET128  PHE129  TYR164  ASP166  LEU167  LYS168  PRO169 
 GLU170  ASN171  LEU172  LEU173  ILE174  GLN181  VAL182  THR183  ASP184  PHE185 
 GLY186  PHE187  GLY200  THR201  ASN326  PHE327  TYR330  ARG18   ARG19   ASN20  
 ALA21   ILE22   HIS23  

>  <Gold.Protein.RotatedAtoms>  (35) 
   11.3622   19.3253    8.1199 H   0  0  0  0  0  0  0  0  0  0  0  0  # atno 641  bound_to 637 
   15.6161   13.0799    7.0513 H   0  0  0  0  0  0  0  0  0  0  0  0  # atno 681  bound_to 677 
   21.1072   11.5469   -1.0177 H   0  0  0  0  0  0  0  0  0  0  0  0  # atno 702  bound_to 698 
   -6.5390   15.6582   -1.3915 H   0  0  0  0  0  0  0  0  0  0  0  0  # atno 965  bound_to 957 
    1.9947   10.8252   10.3372 H   0  0  0  0  0  0  0  0  0  0  0  0  # atno 1886 bound_to 1878
   10.1841    3.3710   -3.4098 H   0  0  0  0  0  0  0  0  0  0  0  0  # atno 2577 bound_to 2569
    7.5593    6.8407    1.3022 H   0  0  0  0  0  0  0  0  0  0  0  0  # atno 2891 bound_to 2887
   18.9774    2.6233   -1.3356 H   0  0  0  0  0  0  0  0  0  0  0  0  # atno 3175 bound_to 3171
   12.6462    9.9819    9.7539 H   0  0  0  0  0  0  0  0  0  0  0  0  # atno 5278 bound_to 5270
   16.9381   13.9640    7.1345 LP  0  0  0  0  0  0  0  0  0  0  0  0  # atno 5914 bound_to 677 
   16.7997   12.7665    6.0330 LP  0  0  0  0  0  0  0  0  0  0  0  0  # atno 5915 bound_to 677 
   19.8778   11.7670   -2.0063 LP  0  0  0  0  0  0  0  0  0  0  0  0  # atno 5920 bound_to 698 
   19.6620   11.7741   -0.3877 LP  0  0  0  0  0  0  0  0  0  0  0  0  # atno 5921 bound_to 698 
   10.9887    2.2808   -2.5735 LP  0  0  0  0  0  0  0  0  0  0  0  0  # atno 5950 bound_to 2569
    9.3587    2.2341   -2.6605 LP  0  0  0  0  0  0  0  0  0  0  0  0  # atno 5951 bound_to 2569
    8.3736    6.0395    0.1925 LP  0  0  0  0  0  0  0  0  0  0  0  0  # atno 5982 bound_to 2887
    7.3454    5.2660    1.1981 LP  0  0  0  0  0  0  0  0  0  0  0  0  # atno 5983 bound_to 2887
   19.0418    2.8980    0.2316 LP  0  0  0  0  0  0  0  0  0  0  0  0  # atno 6000 bound_to 3171
   17.8745    1.9500   -0.4050 LP  0  0  0  0  0  0  0  0  0  0  0  0  # atno 6001 bound_to 3171
   14.1286    9.8407   10.3191 LP  0  0  0  0  0  0  0  0  0  0  0  0  # atno 6004 bound_to 5270
   13.8623   10.2239    8.7542 LP  0  0  0  0  0  0  0  0  0  0  0  0  # atno 6005 bound_to 5270
    9.9648   19.7468    8.7561 LP  0  0  0  0  0  0  0  0  0  0  0  0  # atno 6055 bound_to 637 
   10.0334   19.0018    7.3045 LP  0  0  0  0  0  0  0  0  0  0  0  0  # atno 6056 bound_to 637 
    0.5972   11.1502   11.0277 LP  0  0  0  0  0  0  0  0  0  0  0  0  # atno 6063 bound_to 1878
    1.6883   12.3327   10.7484 LP  0  0  0  0  0  0  0  0  0  0  0  0  # atno 6064 bound_to 1878
   -6.7253   17.1876   -0.9896 LP  0  0  0  0  0  0  0  0  0  0  0  0  # atno 6067 bound_to 957 
   -7.1960   15.9932    0.0196 LP  0  0  0  0  0  0  0  0  0  0  0  0  # atno 6068 bound_to 957 

>  <STRIFE_LigEff_Score>  (35) 
2.611735294117647

$$$$
unknown|pharmsElabsTestMulti|sdf|36|dock9
     RDKit          3D

 17 17  0  0  0  0  0  0  0  0999 V2000
    3.3512    8.9633    3.1250 C   0  0  0  0  0  0  0  0  0  0  0  0
    4.4215    9.4130    4.0933 C   0  0  0  0  0  0  0  0  0  0  0  0
    4.0252    9.8102    5.4917 C   0  0  0  0  0  0  0  0  0  0  0  0
    5.5971   10.0934    3.3923 C   0  0  0  0  0  0  0  0  0  0  0  0
    5.4255   10.5706    1.9974 C   0  0  0  0  0  0  0  0  0  0  0  0
    6.9748    9.8493    3.8520 N   0  0  0  0  0  0  0  0  0  0  0  0
    7.7940    9.0011    3.0191 C   0  0  0  0  0  0  0  0  0  0  0  0
    7.3535    8.6096    1.9006 O   0  0  0  0  0  0  0  0  0  0  0  0
    9.1772    8.5838    3.3967 C   0  0  0  0  0  0  0  0  0  0  0  0
    9.7166    7.6282    2.3219 C   0  0  0  0  0  0  0  0  0  0  0  0
   11.0980    7.1048    2.6663 C   0  0  0  0  0  0  0  0  0  0  0  0
   12.1013    8.1674    3.1838 C   0  0  0  0  0  0  0  0  0  0  0  0
   13.4421    8.3739    2.4544 C   0  0  0  0  0  0  0  0  0  0  0  0
   13.5260    9.4751    1.3975 C   0  0  0  0  0  0  0  0  0  0  0  0
   13.9950    7.1121    1.9434 N   0  0  0  0  0  0  0  0  0  0  0  0
   11.5136    9.4746    3.7968 C   0  0  0  0  0  0  0  0  0  0  0  0
   10.0714    9.8190    3.4431 C   0  0  0  0  0  0  0  0  0  0  0  0
  1  2  1  0
  2  3  1  0
  2  4  1  0
  4  5  1  0
  4  6  1  0
  6  7  1  0
  7  8  2  0
  7  9  1  0
  9 10  1  0
 10 11  1  0
 11 12  1  0
 12 13  1  0
 13 14  1  0
 13 15  1  0
 12 16  1  0
 16 17  1  0
 17  9  1  0
M  CHG  1  15   1
M  END
>  <EmbedRMS>  (36) 
0.3579708207248589

>  <Gold.Version>  (36) 
2020.3.0

>  <Gold.Id.Protein>  (36) 
unknown|1q8t_protein|pdb

>  <Gold.PLP.Fitness>  (36) 
47.1147

>  <Gold.PLP.PLP>  (36) 
-42.5558

>  <Gold.PLP.part.hbond>  (36) 
-2.0000

>  <Gold.PLP.part.metal>  (36) 
0.0000

>  <Gold.PLP.part.buried>  (36) 
-1.4780

>  <Gold.PLP.part.nonpolar>  (36) 
-39.0085

>  <Gold.PLP.part.repulsive>  (36) 
0.0262

>  <Gold.PLP.ligand.clash>  (36) 
0.0000

>  <Gold.PLP.ligand.torsion>  (36) 
1.4860

>  <Gold.PLP.Chemscore.Hbond>  (36) 
1.9920

>  <Gold.PLP.Chemscore.CHOScore>  (36) 
0.0000

>  <Gold.PLP.Chemscore.Metal>  (36) 
0.0000

>  <Gold.Chemscore.Hbonds>  (36) 
donor molecule, donor type, donor heavy atom, donor atom, acceptor molecule, acceptor atom, score
      L1  H    15    42       P1  2691  0.99
      P1  H  2887  2891       L1     8  1.00

>  <Gold.PLP.Chemscore.Internal.Correction>  (36) 
1.5548

>  <Gold.PLP.Constraint>  (36) 
-0.0000

>  <Gold.Protein.RotatedTorsions>  (36) 
[  681  677  676  673 ] final -134.27 input -179.99 | X-H torsion
[  702  698  697  694 ] final   -3.63 input  179.99 | X-H torsion
[ 2577 2569 2568 2566 ] final  -17.28 input   -0.13 | X-H torsion
[ 2891 2887 2886 2883 ] final  159.48 input  179.98 | X-H torsion
[ 3175 3171 3170 3167 ] final  160.09 input -179.99 | X-H torsion
[ 5278 5270 5269 5267 ] final  -14.73 input    0.55 | X-H torsion
[  641  637  636  633 ] final   86.71 input  179.99 | X-H torsion
[ 1886 1878 1877 1875 ] final -129.63 input    1.60 | X-H torsion
[  965  957  956  954 ] final   87.29 input    0.45 | X-H torsion

>  <Gold.Protein.ActiveResidues>  (36) 
 LYS47   THR48   LEU49   GLY50   THR51   GLY52   SER53   PHE54   GLY55   ARG56  
 VAL57   MET58   LEU59   TYR69   ALA70   MET71   LYS72   ILE73   LEU74   GLU91  
 LEU95   VAL104  LYS105  MET118  VAL119  MET120  GLU121  TYR122  VAL123  PRO124 
 GLY125  GLY126  GLU127  MET128  PHE129  TYR164  ASP166  LEU167  LYS168  PRO169 
 GLU170  ASN171  LEU172  LEU173  ILE174  GLN181  VAL182  THR183  ASP184  PHE185 
 GLY186  PHE187  GLY200  THR201  ASN326  PHE327  TYR330  ARG18   ARG19   ASN20  
 ALA21   ILE22   HIS23  

>  <Gold.Protein.RotatedAtoms>  (36) 
   10.2729   19.7537    8.8397 H   0  0  0  0  0  0  0  0  0  0  0  0  # atno 641  bound_to 637 
   16.3981   13.8988    7.3787 H   0  0  0  0  0  0  0  0  0  0  0  0  # atno 681  bound_to 677 
   19.5276   11.8187   -0.5938 H   0  0  0  0  0  0  0  0  0  0  0  0  # atno 702  bound_to 698 
   -7.1614   16.0008   -0.0167 H   0  0  0  0  0  0  0  0  0  0  0  0  # atno 965  bound_to 957 
    0.7959   10.8224   10.8653 H   0  0  0  0  0  0  0  0  0  0  0  0  # atno 1886 bound_to 1878
   10.0139    3.3527   -3.4095 H   0  0  0  0  0  0  0  0  0  0  0  0  # atno 2577 bound_to 2569
    7.6064    6.8730    1.2554 H   0  0  0  0  0  0  0  0  0  0  0  0  # atno 2891 bound_to 2887
   18.0039    2.0713   -0.0442 H   0  0  0  0  0  0  0  0  0  0  0  0  # atno 3175 bound_to 3171
   12.7510    9.9120   10.0418 H   0  0  0  0  0  0  0  0  0  0  0  0  # atno 5278 bound_to 5270
   17.2041   13.1900    6.2023 LP  0  0  0  0  0  0  0  0  0  0  0  0  # atno 5914 bound_to 677 
   15.7107   12.6787    6.6206 LP  0  0  0  0  0  0  0  0  0  0  0  0  # atno 5915 bound_to 677 
   21.0841   11.5293   -0.7694 LP  0  0  0  0  0  0  0  0  0  0  0  0  # atno 5920 bound_to 698 
   20.1172   11.7258   -2.0706 LP  0  0  0  0  0  0  0  0  0  0  0  0  # atno 5921 bound_to 698 
   11.0645    2.4177   -2.6630 LP  0  0  0  0  0  0  0  0  0  0  0  0  # atno 5950 bound_to 2569
    9.4622    2.1165   -2.5713 LP  0  0  0  0  0  0  0  0  0  0  0  0  # atno 5951 bound_to 2569
    8.3612    5.9629    0.1885 LP  0  0  0  0  0  0  0  0  0  0  0  0  # atno 5982 bound_to 2887
    7.3083    5.3085    1.2513 LP  0  0  0  0  0  0  0  0  0  0  0  0  # atno 5983 bound_to 2887
   18.6660    2.3988   -1.4549 LP  0  0  0  0  0  0  0  0  0  0  0  0  # atno 6000 bound_to 3171
   19.2748    3.0301   -0.0775 LP  0  0  0  0  0  0  0  0  0  0  0  0  # atno 6001 bound_to 3171
   14.3434    9.9030   10.0756 LP  0  0  0  0  0  0  0  0  0  0  0  0  # atno 6004 bound_to 5270
   13.5372   10.2352    8.6948 LP  0  0  0  0  0  0  0  0  0  0  0  0  # atno 6005 bound_to 5270
    9.7770   19.1026    7.4740 LP  0  0  0  0  0  0  0  0  0  0  0  0  # atno 6055 bound_to 637 
   11.3684   19.1948    7.8285 LP  0  0  0  0  0  0  0  0  0  0  0  0  # atno 6056 bound_to 637 
    1.3002   12.3318   10.9193 LP  0  0  0  0  0  0  0  0  0  0  0  0  # atno 6063 bound_to 1878
    2.2473   11.1541   10.3009 LP  0  0  0  0  0  0  0  0  0  0  0  0  # atno 6064 bound_to 1878
   -6.5378   15.6310   -1.4342 LP  0  0  0  0  0  0  0  0  0  0  0  0  # atno 6067 bound_to 957 
   -6.7279   17.1890   -0.9838 LP  0  0  0  0  0  0  0  0  0  0  0  0  # atno 6068 bound_to 957 

>  <STRIFE_LigEff_Score>  (36) 
2.7714529411764706

$$$$
unknown|pharmsElabsTestMulti|sdf|37|dock10
     RDKit          3D

 17 17  0  0  0  0  0  0  0  0999 V2000
   13.7714    7.7669    3.7163 C   0  0  0  0  0  0  0  0  0  0  0  0
   13.0183    8.1127    2.4230 C   0  0  0  0  0  0  0  0  0  0  0  0
   13.3672    7.1571    1.3655 N   0  0  0  0  0  0  0  0  0  0  0  0
   11.4679    8.3134    2.5561 C   0  0  0  0  0  0  0  0  0  0  0  0
   10.6151    7.7124    1.4228 C   0  0  0  0  0  0  0  0  0  0  0  0
    9.2927    8.4129    1.1772 C   0  0  0  0  0  0  0  0  0  0  0  0
    8.6099    8.8351    2.4714 C   0  0  0  0  0  0  0  0  0  0  0  0
    7.2574    9.4112    2.1544 C   0  0  0  0  0  0  0  0  0  0  0  0
    6.9018    9.5814    0.9527 O   0  0  0  0  0  0  0  0  0  0  0  0
    6.3896    9.7899    3.2234 N   0  0  0  0  0  0  0  0  0  0  0  0
    5.0601   10.3247    2.9805 C   0  0  0  0  0  0  0  0  0  0  0  0
    3.8992    9.3946    3.4549 C   0  0  0  0  0  0  0  0  0  0  0  0
    3.4794    8.4774    2.3264 C   0  0  0  0  0  0  0  0  0  0  0  0
    3.8632    9.3008    4.9665 C   0  0  0  0  0  0  0  0  0  0  0  0
    2.7122    9.7978    3.4879 O   0  0  0  0  0  0  0  0  0  0  0  0
    9.4512    9.8727    3.2215 C   0  0  0  0  0  0  0  0  0  0  0  0
   10.9479    9.5321    3.3469 C   0  0  0  0  0  0  0  0  0  0  0  0
  1  2  1  0
  2  3  1  0
  2  4  1  0
  4  5  1  0
  5  6  1  0
  6  7  1  0
  7  8  1  0
  8  9  2  0
  8 10  1  0
 10 11  1  0
 11 12  1  0
 12 13  1  0
 12 14  1  0
 12 15  1  0
  7 16  1  0
 16 17  1  0
 17  4  1  0
M  CHG  1   3   1
M  END
>  <EmbedRMS>  (37) 
0.6861464654853324

>  <Gold.Version>  (37) 
2020.3.0

>  <Gold.Id.Protein>  (37) 
unknown|1q8t_protein|pdb

>  <Gold.PLP.Fitness>  (37) 
55.3776

>  <Gold.PLP.PLP>  (37) 
-43.2560

>  <Gold.PLP.part.hbond>  (37) 
-4.0000

>  <Gold.PLP.part.metal>  (37) 
0.0000

>  <Gold.PLP.part.buried>  (37) 
-4.3862

>  <Gold.PLP.part.nonpolar>  (37) 
-36.2537

>  <Gold.PLP.part.repulsive>  (37) 
0.0318

>  <Gold.PLP.ligand.clash>  (37) 
0.0000

>  <Gold.PLP.ligand.torsion>  (37) 
1.0135

>  <Gold.PLP.Chemscore.Hbond>  (37) 
4.3979

>  <Gold.PLP.Chemscore.CHOScore>  (37) 
0.0000

>  <Gold.PLP.Chemscore.Metal>  (37) 
0.0000

>  <Gold.Chemscore.Hbonds>  (37) 
donor molecule, donor type, donor heavy atom, donor atom, acceptor molecule, acceptor atom, score
      L1  H     3    22       P1  2691  0.91
      L1  H     3    24       P1  2902  2.00
      L1  H    15    40       P1  1855  0.62
      P1  H  1888  1903       L1    15  0.86

>  <Gold.PLP.Chemscore.Internal.Correction>  (37) 
0.9549

>  <Gold.PLP.Constraint>  (37) 
-0.0000

>  <Gold.Protein.RotatedTorsions>  (37) 
[  681  677  676  673 ] final  148.36 input -179.99 | X-H torsion
[  702  698  697  694 ] final  -74.72 input  179.99 | X-H torsion
[ 2577 2569 2568 2566 ] final  -12.77 input   -0.13 | X-H torsion
[ 2891 2887 2886 2883 ] final -175.42 input  179.98 | X-H torsion
[ 3175 3171 3170 3167 ] final  163.27 input -179.99 | X-H torsion
[ 5278 5270 5269 5267 ] final -113.34 input    0.55 | X-H torsion
[  641  637  636  633 ] final -178.97 input  179.99 | X-H torsion
[ 1886 1878 1877 1875 ] final   60.70 input    1.60 | X-H torsion
[  965  957  956  954 ] final   78.51 input    0.45 | X-H torsion

>  <Gold.Protein.ActiveResidues>  (37) 
 LYS47   THR48   LEU49   GLY50   THR51   GLY52   SER53   PHE54   GLY55   ARG56  
 VAL57   MET58   LEU59   TYR69   ALA70   MET71   LYS72   ILE73   LEU74   GLU91  
 LEU95   VAL104  LYS105  MET118  VAL119  MET120  GLU121  TYR122  VAL123  PRO124 
 GLY125  GLY126  GLU127  MET128  PHE129  TYR164  ASP166  LEU167  LYS168  PRO169 
 GLU170  ASN171  LEU172  LEU173  ILE174  GLN181  VAL182  THR183  ASP184  PHE185 
 GLY186  PHE187  GLY200  THR201  ASN326  PHE327  TYR330  ARG18   ARG19   ASN20  
 ALA21   ILE22   HIS23  

>  <Gold.Protein.RotatedAtoms>  (37) 
   11.3535   19.3676    8.2017 H   0  0  0  0  0  0  0  0  0  0  0  0  # atno 641  bound_to 637 
   17.2244   13.6843    6.6541 H   0  0  0  0  0  0  0  0  0  0  0  0  # atno 681  bound_to 677 
   20.5061   11.6393   -0.2840 H   0  0  0  0  0  0  0  0  0  0  0  0  # atno 702  bound_to 698 
   -7.1414   15.8736   -0.0635 H   0  0  0  0  0  0  0  0  0  0  0  0  # atno 965  bound_to 957 
    1.9649   12.1380   10.5743 H   0  0  0  0  0  0  0  0  0  0  0  0  # atno 1886 bound_to 1878
    9.9452    3.3374   -3.4040 H   0  0  0  0  0  0  0  0  0  0  0  0  # atno 2577 bound_to 2569
    7.3747    6.6443    1.4690 H   0  0  0  0  0  0  0  0  0  0  0  0  # atno 2891 bound_to 2887
   18.0234    2.0912   -0.0030 H   0  0  0  0  0  0  0  0  0  0  0  0  # atno 3175 bound_to 3171
   14.0842    9.8624   10.2993 H   0  0  0  0  0  0  0  0  0  0  0  0  # atno 5278 bound_to 5270
   16.2164   12.5473    6.1770 LP  0  0  0  0  0  0  0  0  0  0  0  0  # atno 5914 bound_to 677 
   15.8286   13.5471    7.4085 LP  0  0  0  0  0  0  0  0  0  0  0  0  # atno 5915 bound_to 677 
   20.8504   11.5914   -1.8385 LP  0  0  0  0  0  0  0  0  0  0  0  0  # atno 5920 bound_to 698 
   19.3216   11.8525   -1.3274 LP  0  0  0  0  0  0  0  0  0  0  0  0  # atno 5921 bound_to 698 
   11.0864    2.4768   -2.7024 LP  0  0  0  0  0  0  0  0  0  0  0  0  # atno 5950 bound_to 2569
    9.5126    2.0735   -2.5377 LP  0  0  0  0  0  0  0  0  0  0  0  0  # atno 5951 bound_to 2569
    8.3787    6.3652    0.2646 LP  0  0  0  0  0  0  0  0  0  0  0  0  # atno 5982 bound_to 2887
    7.5347    5.1470    0.9504 LP  0  0  0  0  0  0  0  0  0  0  0  0  # atno 5983 bound_to 2887
   18.6238    2.3679   -1.4517 LP  0  0  0  0  0  0  0  0  0  0  0  0  # atno 6000 bound_to 3171
   19.2965    3.0400   -0.1241 LP  0  0  0  0  0  0  0  0  0  0  0  0  # atno 6001 bound_to 3171
   13.8806   10.2224    8.7612 LP  0  0  0  0  0  0  0  0  0  0  0  0  # atno 6004 bound_to 5270
   12.5972    9.9680    9.7383 LP  0  0  0  0  0  0  0  0  0  0  0  0  # atno 6005 bound_to 5270
    9.8855   19.7247    8.7041 LP  0  0  0  0  0  0  0  0  0  0  0  0  # atno 6055 bound_to 637 
   10.1218   18.9794    7.2704 LP  0  0  0  0  0  0  0  0  0  0  0  0  # atno 6056 bound_to 637 
    1.7283   10.5700   10.4301 LP  0  0  0  0  0  0  0  0  0  0  0  0  # atno 6063 bound_to 1878
    0.5886   11.5310   11.0965 LP  0  0  0  0  0  0  0  0  0  0  0  0  # atno 6064 bound_to 1878
   -6.4999   15.7444   -1.5150 LP  0  0  0  0  0  0  0  0  0  0  0  0  # atno 6067 bound_to 957 
   -6.7869   17.2096   -0.8537 LP  0  0  0  0  0  0  0  0  0  0  0  0  # atno 6068 bound_to 957 

>  <STRIFE_LigEff_Score>  (37) 
3.257505882352941

$$$$
unknown|pharmsElabsTestMulti|sdf|38|dock5
     RDKit          3D

 17 17  0  0  0  0  0  0  0  0999 V2000
   14.7071    7.7180    3.3438 C   0  0  0  0  0  0  0  0  0  0  0  0
   13.4226    7.6280    2.5216 C   0  0  0  0  0  0  0  0  0  0  0  0
   13.4529    8.5062    1.3503 N   0  0  0  0  0  0  0  0  0  0  0  0
   12.0657    7.6797    3.2660 C   0  0  0  0  0  0  0  0  0  0  0  0
   10.9008    7.0789    2.4660 C   0  0  0  0  0  0  0  0  0  0  0  0
    9.5027    7.4867    2.8982 C   0  0  0  0  0  0  0  0  0  0  0  0
    9.4073    8.9493    3.2494 C   0  0  0  0  0  0  0  0  0  0  0  0
    8.0012    9.4516    3.3733 C   0  0  0  0  0  0  0  0  0  0  0  0
    7.3901    9.5903    2.2863 O   0  0  0  0  0  0  0  0  0  0  0  0
    7.3347    9.7884    4.6009 N   0  0  0  0  0  0  0  0  0  0  0  0
    6.0065   10.4147    4.5780 C   0  0  0  0  0  0  0  0  0  0  0  0
    4.9665    9.4991    5.2487 C   0  0  0  0  0  0  0  0  0  0  0  0
    3.6048    9.5422    4.5422 C   0  0  0  0  0  0  0  0  0  0  0  0
    3.5895    8.7430    3.2384 C   0  0  0  0  0  0  0  0  0  0  0  0
    3.1144    9.5433    2.1922 O   0  0  0  0  0  0  0  0  0  0  0  0
   10.4077    9.4643    4.2467 C   0  0  0  0  0  0  0  0  0  0  0  0
   11.8397    9.0900    3.8727 C   0  0  0  0  0  0  0  0  0  0  0  0
  1  2  1  0
  2  3  1  0
  2  4  1  0
  4  5  1  0
  5  6  1  0
  6  7  1  0
  7  8  1  0
  8  9  2  0
  8 10  1  0
 10 11  1  0
 11 12  1  0
 12 13  1  0
 13 14  1  0
 14 15  1  0
  7 16  1  0
 16 17  1  0
 17  4  1  0
M  CHG  1   3   1
M  END
>  <EmbedRMS>  (38) 
0.3028787039700591

>  <Gold.Version>  (38) 
2020.3.0

>  <Gold.Id.Protein>  (38) 
unknown|1q8t_protein|pdb

>  <Gold.PLP.Fitness>  (38) 
50.5919

>  <Gold.PLP.PLP>  (38) 
-43.6304

>  <Gold.PLP.part.hbond>  (38) 
-2.0000

>  <Gold.PLP.part.metal>  (38) 
0.0000

>  <Gold.PLP.part.buried>  (38) 
-4.7232

>  <Gold.PLP.part.nonpolar>  (38) 
-36.7388

>  <Gold.PLP.part.repulsive>  (38) 
0.0000

>  <Gold.PLP.ligand.clash>  (38) 
0.0000

>  <Gold.PLP.ligand.torsion>  (38) 
1.3448

>  <Gold.PLP.Chemscore.Hbond>  (38) 
2.9920

>  <Gold.PLP.Chemscore.CHOScore>  (38) 
0.0000

>  <Gold.PLP.Chemscore.Metal>  (38) 
0.0000

>  <Gold.Chemscore.Hbonds>  (38) 
donor molecule, donor type, donor heavy atom, donor atom, acceptor molecule, acceptor atom, score
      L1  H     3    24       P1  2902  2.00
      L1  H    15    40       P1  1855  0.99

>  <Gold.PLP.Chemscore.Internal.Correction>  (38) 
0.6751

>  <Gold.PLP.Constraint>  (38) 
-0.0000

>  <Gold.Protein.RotatedTorsions>  (38) 
[  681  677  676  673 ] final   82.69 input -179.99 | X-H torsion
[  702  698  697  694 ] final -153.81 input  179.99 | X-H torsion
[ 2577 2569 2568 2566 ] final  162.22 input   -0.13 | X-H torsion
[ 2891 2887 2886 2883 ] final -131.59 input  179.98 | X-H torsion
[ 3175 3171 3170 3167 ] final -168.92 input -179.99 | X-H torsion
[ 5278 5270 5269 5267 ] final  -17.18 input    0.55 | X-H torsion
[  641  637  636  633 ] final   93.32 input  179.99 | X-H torsion
[ 1886 1878 1877 1875 ] final   76.09 input    1.60 | X-H torsion
[  965  957  956  954 ] final  -41.79 input    0.45 | X-H torsion

>  <Gold.Protein.ActiveResidues>  (38) 
 LYS47   THR48   LEU49   GLY50   THR51   GLY52   SER53   PHE54   GLY55   ARG56  
 VAL57   MET58   LEU59   TYR69   ALA70   MET71   LYS72   ILE73   LEU74   GLU91  
 LEU95   VAL104  LYS105  MET118  VAL119  MET120  GLU121  TYR122  VAL123  PRO124 
 GLY125  GLY126  GLU127  MET128  PHE129  TYR164  ASP166  LEU167  LYS168  PRO169 
 GLU170  ASN171  LEU172  LEU173  ILE174  GLN181  VAL182  THR183  ASP184  PHE185 
 GLY186  PHE187  GLY200  THR201  ASN326  PHE327  TYR330  ARG18   ARG19   ASN20  
 ALA21   ILE22   HIS23  

>  <Gold.Protein.RotatedAtoms>  (38) 
   10.3745   19.7568    8.8569 H   0  0  0  0  0  0  0  0  0  0  0  0  # atno 641  bound_to 637 
   16.9527   12.9433    6.0878 H   0  0  0  0  0  0  0  0  0  0  0  0  # atno 681  bound_to 677 
   21.1084   11.5511   -1.2494 H   0  0  0  0  0  0  0  0  0  0  0  0  # atno 702  bound_to 698 
   -6.5001   15.7745   -1.4745 H   0  0  0  0  0  0  0  0  0  0  0  0  # atno 965  bound_to 957 
    1.7798   12.2524   10.6754 H   0  0  0  0  0  0  0  0  0  0  0  0  # atno 1886 bound_to 1878
   10.3345    1.9165   -2.3888 H   0  0  0  0  0  0  0  0  0  0  0  0  # atno 2577 bound_to 2569
    7.1580    6.0198    1.5703 H   0  0  0  0  0  0  0  0  0  0  0  0  # atno 2891 bound_to 2887
   18.2672    2.3085    0.2774 H   0  0  0  0  0  0  0  0  0  0  0  0  # atno 3175 bound_to 3171
   12.7707    9.9043   10.0738 H   0  0  0  0  0  0  0  0  0  0  0  0  # atno 5278 bound_to 5270
   15.5878   12.8904    6.9066 LP  0  0  0  0  0  0  0  0  0  0  0  0  # atno 5914 bound_to 677 
   16.7432   13.9839    7.2749 LP  0  0  0  0  0  0  0  0  0  0  0  0  # atno 5915 bound_to 677 
   19.6693   11.8016   -1.8848 LP  0  0  0  0  0  0  0  0  0  0  0  0  # atno 5920 bound_to 698 
   19.8692   11.7349   -0.2655 LP  0  0  0  0  0  0  0  0  0  0  0  0  # atno 5921 bound_to 698 
    9.2922    2.8782   -3.1126 LP  0  0  0  0  0  0  0  0  0  0  0  0  # atno 5950 bound_to 2569
   10.8970    3.1682   -3.1964 LP  0  0  0  0  0  0  0  0  0  0  0  0  # atno 5951 bound_to 2569
    8.1395    6.8904    0.6675 LP  0  0  0  0  0  0  0  0  0  0  0  0  # atno 5982 bound_to 2887
    8.0019    5.2791    0.4409 LP  0  0  0  0  0  0  0  0  0  0  0  0  # atno 5983 bound_to 2887
   18.2704    2.1255   -1.3044 LP  0  0  0  0  0  0  0  0  0  0  0  0  # atno 6000 bound_to 3171
   19.3932    3.0538   -0.5665 LP  0  0  0  0  0  0  0  0  0  0  0  0  # atno 6001 bound_to 3171
   14.3631    9.9117   10.0414 LP  0  0  0  0  0  0  0  0  0  0  0  0  # atno 6004 bound_to 5270
   13.4969   10.2347    8.6953 LP  0  0  0  0  0  0  0  0  0  0  0  0  # atno 6005 bound_to 5270
    9.7082   19.1439    7.5472 LP  0  0  0  0  0  0  0  0  0  0  0  0  # atno 6055 bound_to 637 
   11.3301   19.1502    7.7372 LP  0  0  0  0  0  0  0  0  0  0  0  0  # atno 6056 bound_to 637 
    1.9342   10.6990   10.3613 LP  0  0  0  0  0  0  0  0  0  0  0  0  # atno 6063 bound_to 1878
    0.5775   11.2815   11.0588 LP  0  0  0  0  0  0  0  0  0  0  0  0  # atno 6064 bound_to 1878
   -6.7890   17.2099   -0.8491 LP  0  0  0  0  0  0  0  0  0  0  0  0  # atno 6067 bound_to 957 
   -7.1732   15.8484   -0.0335 LP  0  0  0  0  0  0  0  0  0  0  0  0  # atno 6068 bound_to 957 

>  <STRIFE_LigEff_Score>  (38) 
2.975994117647059

$$$$
unknown|pharmsElabsTestMulti|sdf|39|dock9
     RDKit          3D

 20 21  0  0  0  0  0  0  0  0999 V2000
   15.2346    7.9234    2.8123 C   0  0  0  0  0  0  0  0  0  0  0  0
   14.2076    7.9502    1.6677 C   0  0  0  0  0  0  0  0  0  0  0  0
   14.4510    6.8361    0.7464 N   0  0  0  0  0  0  0  0  0  0  0  0
   12.6983    8.0655    2.0879 C   0  0  0  0  0  0  0  0  0  0  0  0
   11.7190    7.5353    1.0416 C   0  0  0  0  0  0  0  0  0  0  0  0
   10.2527    7.5923    1.4411 C   0  0  0  0  0  0  0  0  0  0  0  0
    9.8824    8.8716    2.1520 C   0  0  0  0  0  0  0  0  0  0  0  0
    8.4032    9.0766    2.3005 C   0  0  0  0  0  0  0  0  0  0  0  0
    7.8339    8.2641    3.0681 O   0  0  0  0  0  0  0  0  0  0  0  0
    7.6181   10.0921    1.6538 N   0  0  0  0  0  0  0  0  0  0  0  0
    6.1516   10.0755    1.7664 C   0  0  0  0  0  0  0  0  0  0  0  0
    5.7367   10.1038    3.2164 C   0  0  0  0  0  0  0  0  0  0  0  0
    6.6204   10.5346    4.2230 C   0  0  0  0  0  0  0  0  0  0  0  0
    6.2288   10.4997    5.5663 C   0  0  0  0  0  0  0  0  0  0  0  0
    4.9554   10.0392    5.9131 C   0  0  0  0  0  0  0  0  0  0  0  0
    4.0702    9.6104    4.9182 C   0  0  0  0  0  0  0  0  0  0  0  0
    2.8031    9.1540    5.2712 O   0  0  0  0  0  0  0  0  0  0  0  0
    4.4635    9.6392    3.5748 C   0  0  0  0  0  0  0  0  0  0  0  0
   10.7766    9.3187    3.2866 C   0  0  0  0  0  0  0  0  0  0  0  0
   12.2583    9.3139    2.8779 C   0  0  0  0  0  0  0  0  0  0  0  0
  1  2  1  0
  2  3  1  0
  2  4  1  0
  4  5  1  0
  5  6  1  0
  6  7  1  0
  7  8  1  0
  8  9  2  0
  8 10  1  0
 10 11  1  0
 11 12  1  0
 12 13  2  0
 13 14  1  0
 14 15  2  0
 15 16  1  0
 16 17  1  0
 16 18  2  0
  7 19  1  0
 19 20  1  0
 20  4  1  0
 18 12  1  0
M  CHG  1   3   1
M  END
>  <EmbedRMS>  (39) 
0.24874902131530774

>  <Gold.Version>  (39) 
2020.3.0

>  <Gold.Id.Protein>  (39) 
unknown|1q8t_protein|pdb

>  <Gold.PLP.Fitness>  (39) 
47.7903

>  <Gold.PLP.PLP>  (39) 
-36.5707

>  <Gold.PLP.part.hbond>  (39) 
-4.1704

>  <Gold.PLP.part.metal>  (39) 
0.0000

>  <Gold.PLP.part.buried>  (39) 
5.6970

>  <Gold.PLP.part.nonpolar>  (39) 
-39.3730

>  <Gold.PLP.part.repulsive>  (39) 
0.1009

>  <Gold.PLP.ligand.clash>  (39) 
0.0000

>  <Gold.PLP.ligand.torsion>  (39) 
0.9052

>  <Gold.PLP.Chemscore.Hbond>  (39) 
4.0744

>  <Gold.PLP.Chemscore.CHOScore>  (39) 
0.0000

>  <Gold.PLP.Chemscore.Metal>  (39) 
0.0000

>  <Gold.Chemscore.Hbonds>  (39) 
donor molecule, donor type, donor heavy atom, donor atom, acceptor molecule, acceptor atom, score
      L1  H     3    26       P1  2902  1.79
      L1  H     3    27       P1  2691  1.00
      L1  H    17    40       P1  1891  0.82
      P1  H  1888  1903       L1    17  0.47

>  <Gold.PLP.Chemscore.Internal.Correction>  (39) 
0.8069

>  <Gold.PLP.Constraint>  (39) 
-0.0000

>  <Gold.Protein.RotatedTorsions>  (39) 
[  681  677  676  673 ] final -133.34 input -179.99 | X-H torsion
[  702  698  697  694 ] final -130.16 input  179.99 | X-H torsion
[ 2577 2569 2568 2566 ] final  -32.67 input   -0.13 | X-H torsion
[ 2891 2887 2886 2883 ] final -125.43 input  179.98 | X-H torsion
[ 3175 3171 3170 3167 ] final  -60.21 input -179.99 | X-H torsion
[ 5278 5270 5269 5267 ] final  -90.25 input    0.55 | X-H torsion
[  641  637  636  633 ] final  -60.62 input  179.99 | X-H torsion
[ 1886 1878 1877 1875 ] final   44.84 input    1.60 | X-H torsion
[  965  957  956  954 ] final  121.18 input    0.45 | X-H torsion

>  <Gold.Protein.ActiveResidues>  (39) 
 LYS47   THR48   LEU49   GLY50   THR51   GLY52   SER53   PHE54   GLY55   ARG56  
 VAL57   MET58   LEU59   TYR69   ALA70   MET71   LYS72   ILE73   LEU74   GLU91  
 LEU95   VAL104  LYS105  MET118  VAL119  MET120  GLU121  TYR122  VAL123  PRO124 
 GLY125  GLY126  GLU127  MET128  PHE129  TYR164  ASP166  LEU167  LYS168  PRO169 
 GLU170  ASN171  LEU172  LEU173  ILE174  GLN181  VAL182  THR183  ASP184  PHE185 
 GLY186  PHE187  GLY200  THR201  ASN326  PHE327  TYR330  ARG18   ARG19   ASN20  
 ALA21   ILE22   HIS23  

>  <Gold.Protein.RotatedAtoms>  (39) 
   10.1627   18.9787    7.3100 H   0  0  0  0  0  0  0  0  0  0  0  0  # atno 641  bound_to 637 
   16.3847   13.8942    7.3824 H   0  0  0  0  0  0  0  0  0  0  0  0  # atno 681  bound_to 677 
   21.0788   11.5493   -0.8833 H   0  0  0  0  0  0  0  0  0  0  0  0  # atno 702  bound_to 698 
   -7.1591   16.5227   -0.0109 H   0  0  0  0  0  0  0  0  0  0  0  0  # atno 965  bound_to 957 
    2.1153   11.9670   10.4788 H   0  0  0  0  0  0  0  0  0  0  0  0  # atno 1886 bound_to 1878
   10.2529    3.3708   -3.4046 H   0  0  0  0  0  0  0  0  0  0  0  0  # atno 2577 bound_to 2569
    7.1533    5.9251    1.5531 H   0  0  0  0  0  0  0  0  0  0  0  0  # atno 2891 bound_to 2887
   19.3481    3.0220   -0.3873 H   0  0  0  0  0  0  0  0  0  0  0  0  # atno 3175 bound_to 3171
   13.7637    9.8207   10.4546 H   0  0  0  0  0  0  0  0  0  0  0  0  # atno 5278 bound_to 5270
   17.2105   13.2017    6.2099 LP  0  0  0  0  0  0  0  0  0  0  0  0  # atno 5914 bound_to 677 
   15.7183   12.6719    6.6091 LP  0  0  0  0  0  0  0  0  0  0  0  0  # atno 5915 bound_to 677 
   20.0132   11.7439   -2.0512 LP  0  0  0  0  0  0  0  0  0  0  0  0  # atno 5920 bound_to 698 
   19.5564   11.7946   -0.4843 LP  0  0  0  0  0  0  0  0  0  0  0  0  # atno 5921 bound_to 698 
   10.9497    2.2292   -2.5405 LP  0  0  0  0  0  0  0  0  0  0  0  0  # atno 5950 bound_to 2569
    9.3254    2.2859   -2.6989 LP  0  0  0  0  0  0  0  0  0  0  0  0  # atno 5951 bound_to 2569
    8.0839    6.9312    0.7417 LP  0  0  0  0  0  0  0  0  0  0  0  0  # atno 5982 bound_to 2887
    8.0625    5.3379    0.3848 LP  0  0  0  0  0  0  0  0  0  0  0  0  # atno 5983 bound_to 2887
   18.1179    2.2119    0.2178 LP  0  0  0  0  0  0  0  0  0  0  0  0  # atno 6000 bound_to 3171
   18.4083    2.2165   -1.3891 LP  0  0  0  0  0  0  0  0  0  0  0  0  # atno 6001 bound_to 3171
   14.1958   10.1758    8.9634 LP  0  0  0  0  0  0  0  0  0  0  0  0  # atno 6004 bound_to 5270
   12.6193   10.0584    9.3726 LP  0  0  0  0  0  0  0  0  0  0  0  0  # atno 6005 bound_to 5270
   11.3969   19.3957    8.2253 LP  0  0  0  0  0  0  0  0  0  0  0  0  # atno 6055 bound_to 637 
    9.8645   19.7178    8.6883 LP  0  0  0  0  0  0  0  0  0  0  0  0  # atno 6056 bound_to 637 
    1.4947   10.5013   10.5213 LP  0  0  0  0  0  0  0  0  0  0  0  0  # atno 6063 bound_to 1878
    0.6637   11.7797   11.1057 LP  0  0  0  0  0  0  0  0  0  0  0  0  # atno 6064 bound_to 1878
   -6.7362   15.3522   -1.0040 LP  0  0  0  0  0  0  0  0  0  0  0  0  # atno 6067 bound_to 957 
   -6.5320   16.9181   -1.4200 LP  0  0  0  0  0  0  0  0  0  0  0  0  # atno 6068 bound_to 957 

>  <STRIFE_LigEff_Score>  (39) 
2.3895150000000003

$$$$
unknown|pharmsElabsTestMulti|sdf|40|dock4
     RDKit          3D

 17 17  0  0  0  0  0  0  0  0999 V2000
    3.6080    8.4346    2.7528 C   0  0  0  0  0  0  0  0  0  0  0  0
    3.3081    9.7090    3.5250 C   0  0  0  0  0  0  0  0  0  0  0  0
    3.6494    9.5386    4.9416 N   0  0  0  0  0  0  0  0  0  0  0  0
    5.0764    9.2232    5.0512 C   0  0  0  0  0  0  0  0  0  0  0  0
    5.9225   10.2388    4.2763 C   0  0  0  0  0  0  0  0  0  0  0  0
    7.3263    9.8043    4.2295 N   0  0  0  0  0  0  0  0  0  0  0  0
    7.9602    9.5385    2.9666 C   0  0  0  0  0  0  0  0  0  0  0  0
    7.2855    9.6326    1.9113 O   0  0  0  0  0  0  0  0  0  0  0  0
    9.4012    9.1742    2.7717 C   0  0  0  0  0  0  0  0  0  0  0  0
    9.6974    7.6728    2.8052 C   0  0  0  0  0  0  0  0  0  0  0  0
   11.1994    7.3208    2.7850 C   0  0  0  0  0  0  0  0  0  0  0  0
   12.0240    8.4417    2.1319 C   0  0  0  0  0  0  0  0  0  0  0  0
   13.4847    8.1118    1.6955 C   0  0  0  0  0  0  0  0  0  0  0  0
   14.3876    9.2887    1.3674 C   0  0  0  0  0  0  0  0  0  0  0  0
   13.6845    6.9345    0.8570 N   0  0  0  0  0  0  0  0  0  0  0  0
   11.9031    9.7299    2.9714 C   0  0  0  0  0  0  0  0  0  0  0  0
   10.4484   10.1769    3.2274 C   0  0  0  0  0  0  0  0  0  0  0  0
  1  2  1  0
  2  3  1  0
  3  4  1  0
  4  5  1  0
  5  6  1  0
  6  7  1  0
  7  8  2  0
  7  9  1  0
  9 10  1  0
 10 11  1  0
 11 12  1  0
 12 13  1  0
 13 14  1  0
 13 15  1  0
 12 16  1  0
 16 17  1  0
 17  9  1  0
M  CHG  1  15   1
M  END
>  <EmbedRMS>  (40) 
0.25842907567579826

>  <Gold.Version>  (40) 
2020.3.0

>  <Gold.Id.Protein>  (40) 
unknown|1q8t_protein|pdb

>  <Gold.PLP.Fitness>  (40) 
47.8696

>  <Gold.PLP.PLP>  (40) 
-39.3143

>  <Gold.PLP.part.hbond>  (40) 
-1.9644

>  <Gold.PLP.part.metal>  (40) 
0.0000

>  <Gold.PLP.part.buried>  (40) 
-5.8465

>  <Gold.PLP.part.nonpolar>  (40) 
-32.0739

>  <Gold.PLP.part.repulsive>  (40) 
0.0726

>  <Gold.PLP.ligand.clash>  (40) 
0.0000

>  <Gold.PLP.ligand.torsion>  (40) 
0.6162

>  <Gold.PLP.Chemscore.Hbond>  (40) 
2.9120

>  <Gold.PLP.Chemscore.CHOScore>  (40) 
0.0000

>  <Gold.PLP.Chemscore.Metal>  (40) 
0.0000

>  <Gold.Chemscore.Hbonds>  (40) 
donor molecule, donor type, donor heavy atom, donor atom, acceptor molecule, acceptor atom, score
      L1  H    15    39       P1  2691  0.91
      L1  H    15    40       P1  2902  2.00

>  <Gold.PLP.Chemscore.Internal.Correction>  (40) 
1.0519

>  <Gold.PLP.Constraint>  (40) 
-0.0000

>  <Gold.Protein.RotatedTorsions>  (40) 
[  681  677  676  673 ] final -173.74 input -179.99 | X-H torsion
[  702  698  697  694 ] final   73.65 input  179.99 | X-H torsion
[ 2577 2569 2568 2566 ] final   77.89 input   -0.13 | X-H torsion
[ 2891 2887 2886 2883 ] final  110.67 input  179.98 | X-H torsion
[ 3175 3171 3170 3167 ] final  171.36 input -179.99 | X-H torsion
[ 5278 5270 5269 5267 ] final  -55.37 input    0.55 | X-H torsion
[  641  637  636  633 ] final   16.03 input  179.99 | X-H torsion
[ 1886 1878 1877 1875 ] final  -47.20 input    1.60 | X-H torsion
[  965  957  956  954 ] final   70.73 input    0.45 | X-H torsion

>  <Gold.Protein.ActiveResidues>  (40) 
 LYS47   THR48   LEU49   GLY50   THR51   GLY52   SER53   PHE54   GLY55   ARG56  
 VAL57   MET58   LEU59   TYR69   ALA70   MET71   LYS72   ILE73   LEU74   GLU91  
 LEU95   VAL104  LYS105  MET118  VAL119  MET120  GLU121  TYR122  VAL123  PRO124 
 GLY125  GLY126  GLU127  MET128  PHE129  TYR164  ASP166  LEU167  LYS168  PRO169 
 GLU170  ASN171  LEU172  LEU173  ILE174  GLN181  VAL182  THR183  ASP184  PHE185 
 GLY186  PHE187  GLY200  THR201  ASN326  PHE327  TYR330  ARG18   ARG19   ASN20  
 ALA21   ILE22   HIS23  

>  <Gold.Protein.RotatedAtoms>  (40) 
    9.5806   19.4344    8.1386 H   0  0  0  0  0  0  0  0  0  0  0  0  # atno 641  bound_to 637 
   16.9266   13.9346    7.0868 H   0  0  0  0  0  0  0  0  0  0  0  0  # atno 681  bound_to 677 
   19.5598   11.8346   -1.7125 H   0  0  0  0  0  0  0  0  0  0  0  0  # atno 702  bound_to 698 
   -7.1169   15.7684   -0.1193 H   0  0  0  0  0  0  0  0  0  0  0  0  # atno 965  bound_to 957 
    1.8631   10.7073   10.3751 H   0  0  0  0  0  0  0  0  0  0  0  0  # atno 1886 bound_to 1878
    9.3177    2.4061   -2.8033 H   0  0  0  0  0  0  0  0  0  0  0  0  # atno 2577 bound_to 2569
    8.0894    6.8670    0.6945 H   0  0  0  0  0  0  0  0  0  0  0  0  # atno 2891 bound_to 2887
   18.0815    2.1470    0.0944 H   0  0  0  0  0  0  0  0  0  0  0  0  # atno 3175 bound_to 3171
   13.2271    9.8207   10.4321 H   0  0  0  0  0  0  0  0  0  0  0  0  # atno 5278 bound_to 5270
   16.7756   12.7508    6.0323 LP  0  0  0  0  0  0  0  0  0  0  0  0  # atno 5914 bound_to 677 
   15.5828   13.0801    7.0978 LP  0  0  0  0  0  0  0  0  0  0  0  0  # atno 5915 bound_to 677 
   20.0635   11.6994   -0.2074 LP  0  0  0  0  0  0  0  0  0  0  0  0  # atno 5920 bound_to 698 
   21.1039   11.5391   -1.4558 LP  0  0  0  0  0  0  0  0  0  0  0  0  # atno 5921 bound_to 698 
   10.4087    3.4033   -3.3954 LP  0  0  0  0  0  0  0  0  0  0  0  0  # atno 5950 bound_to 2569
   10.8511    2.1275   -2.4771 LP  0  0  0  0  0  0  0  0  0  0  0  0  # atno 5951 bound_to 2569
    8.0244    5.2996    0.4197 LP  0  0  0  0  0  0  0  0  0  0  0  0  # atno 5982 bound_to 2887
    7.1367    5.9783    1.6105 LP  0  0  0  0  0  0  0  0  0  0  0  0  # atno 5983 bound_to 2887
   18.5169    2.2916   -1.4305 LP  0  0  0  0  0  0  0  0  0  0  0  0  # atno 6000 bound_to 3171
   19.3421    3.0577   -0.2478 LP  0  0  0  0  0  0  0  0  0  0  0  0  # atno 6001 bound_to 3171
   14.4582   10.0586    9.4499 LP  0  0  0  0  0  0  0  0  0  0  0  0  # atno 6004 bound_to 5270
   12.9215   10.1757    8.9098 LP  0  0  0  0  0  0  0  0  0  0  0  0  # atno 6005 bound_to 5270
   10.8426   18.9522    7.2961 LP  0  0  0  0  0  0  0  0  0  0  0  0  # atno 6055 bound_to 637 
   11.0319   19.6815    8.7449 LP  0  0  0  0  0  0  0  0  0  0  0  0  # atno 6056 bound_to 637 
    0.5746   11.3345   11.0691 LP  0  0  0  0  0  0  0  0  0  0  0  0  # atno 6063 bound_to 1878
    1.8494   12.2725   10.6671 LP  0  0  0  0  0  0  0  0  0  0  0  0  # atno 6064 bound_to 1878
   -6.4726   15.8554   -1.5727 LP  0  0  0  0  0  0  0  0  0  0  0  0  # atno 6067 bound_to 957 
   -6.8400   17.2094   -0.7372 LP  0  0  0  0  0  0  0  0  0  0  0  0  # atno 6068 bound_to 957 

>  <STRIFE_LigEff_Score>  (40) 
2.8158588235294117

$$$$
unknown|pharmsElabsTestMulti|sdf|41|dock4
     RDKit          3D

 16 16  0  0  0  0  0  0  0  0999 V2000
   14.2843    7.7974    3.6521 C   0  0  0  0  0  0  0  0  0  0  0  0
   13.3380    8.1210    2.4836 C   0  0  0  0  0  0  0  0  0  0  0  0
   13.6035    7.2222    1.3564 N   0  0  0  0  0  0  0  0  0  0  0  0
   11.8089    8.2162    2.8309 C   0  0  0  0  0  0  0  0  0  0  0  0
   10.8871    7.6922    1.7307 C   0  0  0  0  0  0  0  0  0  0  0  0
    9.4023    7.7300    2.0583 C   0  0  0  0  0  0  0  0  0  0  0  0
    8.9849    8.9959    2.7673 C   0  0  0  0  0  0  0  0  0  0  0  0
    7.4978    9.1844    2.8478 C   0  0  0  0  0  0  0  0  0  0  0  0
    6.8425    8.5983    1.9526 O   0  0  0  0  0  0  0  0  0  0  0  0
    6.7937    9.9583    3.8333 N   0  0  0  0  0  0  0  0  0  0  0  0
    5.3473   10.1858    3.6986 C   0  0  0  0  0  0  0  0  0  0  0  0
    4.6510    9.8841    4.9966 C   0  0  0  0  0  0  0  0  0  0  0  0
    5.0693   10.4175    6.1019 N   0  0  0  0  0  0  0  0  0  0  0  0
    3.5888    8.9294    5.0185 N   0  0  0  0  0  0  0  0  0  0  0  0
    9.8185    9.4346    3.9506 C   0  0  0  0  0  0  0  0  0  0  0  0
   11.3184    9.4492    3.6151 C   0  0  0  0  0  0  0  0  0  0  0  0
  1  2  1  0
  2  3  1  0
  2  4  1  0
  4  5  1  0
  5  6  1  0
  6  7  1  0
  7  8  1  0
  8  9  2  0
  8 10  1  0
 10 11  1  0
 11 12  1  0
 12 13  2  0
 12 14  1  0
  7 15  1  0
 15 16  1  0
 16  4  1  0
M  CHG  1   3   1
M  END
>  <EmbedRMS>  (41) 
0.27853286693257856

>  <Gold.Version>  (41) 
2020.3.0

>  <Gold.Id.Protein>  (41) 
unknown|1q8t_protein|pdb

>  <Gold.PLP.Fitness>  (41) 
39.9976

>  <Gold.PLP.PLP>  (41) 
-26.8272

>  <Gold.PLP.part.hbond>  (41) 
-3.9967

>  <Gold.PLP.part.metal>  (41) 
0.0000

>  <Gold.PLP.part.buried>  (41) 
0.8433

>  <Gold.PLP.part.nonpolar>  (41) 
-24.3022

>  <Gold.PLP.part.repulsive>  (41) 
0.1282

>  <Gold.PLP.ligand.clash>  (41) 
0.0000

>  <Gold.PLP.ligand.torsion>  (41) 
1.2847

>  <Gold.PLP.Chemscore.Hbond>  (41) 
4.9833

>  <Gold.PLP.Chemscore.CHOScore>  (41) 
0.0000

>  <Gold.PLP.Chemscore.Metal>  (41) 
0.0000

>  <Gold.Chemscore.Hbonds>  (41) 
donor molecule, donor type, donor heavy atom, donor atom, acceptor molecule, acceptor atom, score
      L1  H     3    21       P1  2902  2.00
      L1  H     3    22       P1  2691  1.00
      L1  H    14    35       P1  1891  0.99
      P1  H  2887  2891       L1     9  0.99

>  <Gold.PLP.Chemscore.Internal.Correction>  (41) 
0.7900

>  <Gold.PLP.Constraint>  (41) 
-0.0000

>  <Gold.Protein.RotatedTorsions>  (41) 
[  681  677  676  673 ] final  -68.04 input -179.99 | X-H torsion
[  702  698  697  694 ] final -162.32 input  179.99 | X-H torsion
[ 2577 2569 2568 2566 ] final   14.62 input   -0.13 | X-H torsion
[ 2891 2887 2886 2883 ] final  163.66 input  179.98 | X-H torsion
[ 3175 3171 3170 3167 ] final -123.47 input -179.99 | X-H torsion
[ 5278 5270 5269 5267 ] final  -84.70 input    0.55 | X-H torsion
[  641  637  636  633 ] final  -48.43 input  179.99 | X-H torsion
[ 1886 1878 1877 1875 ] final -129.08 input    1.60 | X-H torsion
[  965  957  956  954 ] final   23.25 input    0.45 | X-H torsion

>  <Gold.Protein.ActiveResidues>  (41) 
 LYS47   THR48   LEU49   GLY50   THR51   GLY52   SER53   PHE54   GLY55   ARG56  
 VAL57   MET58   LEU59   TYR69   ALA70   MET71   LYS72   ILE73   LEU74   GLU91  
 LEU95   VAL104  LYS105  MET118  VAL119  MET120  GLU121  TYR122  VAL123  PRO124 
 GLY125  GLY126  GLU127  MET128  PHE129  TYR164  ASP166  LEU167  LYS168  PRO169 
 GLU170  ASN171  LEU172  LEU173  ILE174  GLN181  VAL182  THR183  ASP184  PHE185 
 GLY186  PHE187  GLY200  THR201  ASN326  PHE327  TYR330  ARG18   ARG19   ASN20  
 ALA21   ILE22   HIS23  

>  <Gold.Protein.RotatedAtoms>  (41) 
    9.9922   19.0243    7.3806 H   0  0  0  0  0  0  0  0  0  0  0  0  # atno 641  bound_to 637 
   15.6689   13.2691    7.2061 H   0  0  0  0  0  0  0  0  0  0  0  0  # atno 681  bound_to 677 
   21.0825   11.5582   -1.3797 H   0  0  0  0  0  0  0  0  0  0  0  0  # atno 702  bound_to 698 
   -6.8676   15.3834   -0.6754 H   0  0  0  0  0  0  0  0  0  0  0  0  # atno 965  bound_to 957 
    0.8009   10.8163   10.8620 H   0  0  0  0  0  0  0  0  0  0  0  0  # atno 1886 bound_to 1878
    9.5743    3.1570   -3.3059 H   0  0  0  0  0  0  0  0  0  0  0  0  # atno 2577 bound_to 2569
    7.5647    6.8447    1.2970 H   0  0  0  0  0  0  0  0  0  0  0  0  # atno 2891 bound_to 2887
   18.8185    2.7236    0.3290 H   0  0  0  0  0  0  0  0  0  0  0  0  # atno 3175 bound_to 3171
   13.6789    9.8154   10.4724 H   0  0  0  0  0  0  0  0  0  0  0  0  # atno 5278 bound_to 5270
   17.1133   13.8900    6.9526 LP  0  0  0  0  0  0  0  0  0  0  0  0  # atno 5914 bound_to 677 
   16.5689   12.6414    6.0519 LP  0  0  0  0  0  0  0  0  0  0  0  0  # atno 5915 bound_to 677 
   19.5660   11.8182   -1.7920 LP  0  0  0  0  0  0  0  0  0  0  0  0  # atno 5920 bound_to 698 
   19.9998   11.7110   -0.2213 LP  0  0  0  0  0  0  0  0  0  0  0  0  # atno 5921 bound_to 698 
   11.0958    2.8437   -2.9565 LP  0  0  0  0  0  0  0  0  0  0  0  0  # atno 5950 bound_to 2569
    9.8937    1.8965   -2.3869 LP  0  0  0  0  0  0  0  0  0  0  0  0  # atno 5951 bound_to 2569
    8.3724    6.0307    0.1918 LP  0  0  0  0  0  0  0  0  0  0  0  0  # atno 5982 bound_to 2887
    7.3410    5.2706    1.2043 LP  0  0  0  0  0  0  0  0  0  0  0  0  # atno 5983 bound_to 2887
   17.9032    1.9319   -0.7059 LP  0  0  0  0  0  0  0  0  0  0  0  0  # atno 6000 bound_to 3171
   19.1803    2.8106   -1.2193 LP  0  0  0  0  0  0  0  0  0  0  0  0  # atno 6001 bound_to 3171
   14.2573   10.1603    9.0290 LP  0  0  0  0  0  0  0  0  0  0  0  0  # atno 6004 bound_to 5270
   12.6470   10.0795    9.2883 LP  0  0  0  0  0  0  0  0  0  0  0  0  # atno 6005 bound_to 5270
   11.4105   19.3043    8.0477 LP  0  0  0  0  0  0  0  0  0  0  0  0  # atno 6055 bound_to 637 
   10.0305   19.7612    8.7915 LP  0  0  0  0  0  0  0  0  0  0  0  0  # atno 6056 bound_to 637 
    1.2920   12.3297   10.9226 LP  0  0  0  0  0  0  0  0  0  0  0  0  # atno 6063 bound_to 1878
    2.2503   11.1626   10.3011 LP  0  0  0  0  0  0  0  0  0  0  0  0  # atno 6064 bound_to 1878
   -6.4541   16.6138   -1.5975 LP  0  0  0  0  0  0  0  0  0  0  0  0  # atno 6067 bound_to 957 
   -7.1211   16.8564   -0.1268 LP  0  0  0  0  0  0  0  0  0  0  0  0  # atno 6068 bound_to 957 

>  <STRIFE_LigEff_Score>  (41) 
2.49985

$$$$
unknown|pharmsElabsTestMulti|sdf|42|dock8
     RDKit          3D

 17 17  0  0  0  0  0  0  0  0999 V2000
    3.4080    8.6291    2.3572 C   0  0  0  0  0  0  0  0  0  0  0  0
    4.4752    9.3186    3.0691 N   0  0  0  0  0  0  0  0  0  0  0  0
    4.3583    9.6598    4.4547 C   0  0  0  0  0  0  0  0  0  0  0  0
    3.3159    9.3655    5.0999 O   0  0  0  0  0  0  0  0  0  0  0  0
    5.4708   10.3785    5.1437 C   0  0  0  0  0  0  0  0  0  0  0  0
    6.7517    9.6682    5.0099 N   0  0  0  0  0  0  0  0  0  0  0  0
    7.3899    9.6510    3.7216 C   0  0  0  0  0  0  0  0  0  0  0  0
    6.7995   10.1776    2.7452 O   0  0  0  0  0  0  0  0  0  0  0  0
    8.7414    9.0765    3.4140 C   0  0  0  0  0  0  0  0  0  0  0  0
    8.7203    7.7733    2.6105 C   0  0  0  0  0  0  0  0  0  0  0  0
   10.0987    7.0984    2.4552 C   0  0  0  0  0  0  0  0  0  0  0  0
   11.2360    8.1256    2.5699 C   0  0  0  0  0  0  0  0  0  0  0  0
   12.6541    7.6994    2.0786 C   0  0  0  0  0  0  0  0  0  0  0  0
   13.5682    7.0428    3.0993 C   0  0  0  0  0  0  0  0  0  0  0  0
   13.3282    8.5800    1.1306 N   0  0  0  0  0  0  0  0  0  0  0  0
   11.2290    8.7503    3.9802 C   0  0  0  0  0  0  0  0  0  0  0  0
    9.8723    9.3639    4.3883 C   0  0  0  0  0  0  0  0  0  0  0  0
  1  2  1  0
  2  3  1  0
  3  4  2  0
  3  5  1  0
  5  6  1  0
  6  7  1  0
  7  8  2  0
  7  9  1  0
  9 10  1  0
 10 11  1  0
 11 12  1  0
 12 13  1  0
 13 14  1  0
 13 15  1  0
 12 16  1  0
 16 17  1  0
 17  9  1  0
M  CHG  1  15   1
M  END
>  <EmbedRMS>  (42) 
0.2569057114362328

>  <Gold.Version>  (42) 
2020.3.0

>  <Gold.Id.Protein>  (42) 
unknown|1q8t_protein|pdb

>  <Gold.PLP.Fitness>  (42) 
44.5971

>  <Gold.PLP.PLP>  (42) 
-37.3497

>  <Gold.PLP.part.hbond>  (42) 
-2.0000

>  <Gold.PLP.part.metal>  (42) 
0.0000

>  <Gold.PLP.part.buried>  (42) 
-2.8463

>  <Gold.PLP.part.nonpolar>  (42) 
-33.6384

>  <Gold.PLP.part.repulsive>  (42) 
0.6560

>  <Gold.PLP.ligand.clash>  (42) 
0.0368

>  <Gold.PLP.ligand.torsion>  (42) 
1.3628

>  <Gold.PLP.Chemscore.Hbond>  (42) 
3.0000

>  <Gold.PLP.Chemscore.CHOScore>  (42) 
0.0000

>  <Gold.PLP.Chemscore.Metal>  (42) 
0.0000

>  <Gold.Chemscore.Hbonds>  (42) 
donor molecule, donor type, donor heavy atom, donor atom, acceptor molecule, acceptor atom, score
      L1  H    15    35       P1  2902  2.00
      P1  H  1888  1903       L1     4  1.00

>  <Gold.PLP.Chemscore.Internal.Correction>  (42) 
1.0098

>  <Gold.PLP.Constraint>  (42) 
-0.0000

>  <Gold.Protein.RotatedTorsions>  (42) 
[  681  677  676  673 ] final   88.45 input -179.99 | X-H torsion
[  702  698  697  694 ] final    7.03 input  179.99 | X-H torsion
[ 2577 2569 2568 2566 ] final -178.20 input   -0.13 | X-H torsion
[ 2891 2887 2886 2883 ] final  -68.40 input  179.98 | X-H torsion
[ 3175 3171 3170 3167 ] final   17.80 input -179.99 | X-H torsion
[ 5278 5270 5269 5267 ] final   72.69 input    0.55 | X-H torsion
[  641  637  636  633 ] final   63.46 input  179.99 | X-H torsion
[ 1886 1878 1877 1875 ] final  156.39 input    1.60 | X-H torsion
[  965  957  956  954 ] final  174.12 input    0.45 | X-H torsion

>  <Gold.Protein.ActiveResidues>  (42) 
 LYS47   THR48   LEU49   GLY50   THR51   GLY52   SER53   PHE54   GLY55   ARG56  
 VAL57   MET58   LEU59   TYR69   ALA70   MET71   LYS72   ILE73   LEU74   GLU91  
 LEU95   VAL104  LYS105  MET118  VAL119  MET120  GLU121  TYR122  VAL123  PRO124 
 GLY125  GLY126  GLU127  MET128  PHE129  TYR164  ASP166  LEU167  LYS168  PRO169 
 GLU170  ASN171  LEU172  LEU173  ILE174  GLN181  VAL182  THR183  ASP184  PHE185 
 GLY186  PHE187  GLY200  THR201  ASN326  PHE327  TYR330  ARG18   ARG19   ASN20  
 ALA21   ILE22   HIS23  

>  <Gold.Protein.RotatedAtoms>  (42) 
    9.9443   19.7008    8.7001 H   0  0  0  0  0  0  0  0  0  0  0  0  # atno 641  bound_to 637 
   17.0137   13.0052    6.1114 H   0  0  0  0  0  0  0  0  0  0  0  0  # atno 681  bound_to 677 
   19.4416   11.8367   -0.7352 H   0  0  0  0  0  0  0  0  0  0  0  0  # atno 702  bound_to 698 
   -6.9292   17.1069   -0.5038 H   0  0  0  0  0  0  0  0  0  0  0  0  # atno 965  bound_to 957 
    0.7572   11.8811   11.0629 H   0  0  0  0  0  0  0  0  0  0  0  0  # atno 1886 bound_to 1878
   10.6203    2.0113   -2.4337 H   0  0  0  0  0  0  0  0  0  0  0  0  # atno 2577 bound_to 2569
    7.4145    5.2551    1.0901 H   0  0  0  0  0  0  0  0  0  0  0  0  # atno 2891 bound_to 2887
   18.9460    2.5979   -1.3515 H   0  0  0  0  0  0  0  0  0  0  0  0  # atno 3175 bound_to 3171
   13.0532   10.2025    8.8766 H   0  0  0  0  0  0  0  0  0  0  0  0  # atno 5278 bound_to 5270
   15.6062   12.8303    6.8356 LP  0  0  0  0  0  0  0  0  0  0  0  0  # atno 5914 bound_to 677 
   16.6606   13.9789    7.3211 LP  0  0  0  0  0  0  0  0  0  0  0  0  # atno 5915 bound_to 677 
   21.0022   11.5409   -0.6150 LP  0  0  0  0  0  0  0  0  0  0  0  0  # atno 5920 bound_to 698 
   20.2896   11.6954   -2.0762 LP  0  0  0  0  0  0  0  0  0  0  0  0  # atno 5921 bound_to 698 
    9.2359    2.6171   -2.9354 LP  0  0  0  0  0  0  0  0  0  0  0  0  # atno 5950 bound_to 2569
   10.6524    3.3294   -3.3263 LP  0  0  0  0  0  0  0  0  0  0  0  0  # atno 5951 bound_to 2569
    7.4869    6.8145    1.4052 LP  0  0  0  0  0  0  0  0  0  0  0  0  # atno 5982 bound_to 2887
    8.3846    6.1597    0.2086 LP  0  0  0  0  0  0  0  0  0  0  0  0  # atno 5983 bound_to 2887
   19.0723    2.9170    0.2035 LP  0  0  0  0  0  0  0  0  0  0  0  0  # atno 6000 bound_to 3171
   17.8769    1.9577   -0.3601 LP  0  0  0  0  0  0  0  0  0  0  0  0  # atno 6001 bound_to 3171
   13.0902    9.8054   10.4186 LP  0  0  0  0  0  0  0  0  0  0  0  0  # atno 6004 bound_to 5270
   14.4725   10.0272    9.5778 LP  0  0  0  0  0  0  0  0  0  0  0  0  # atno 6005 bound_to 5270
   10.0852   18.9881    7.2834 LP  0  0  0  0  0  0  0  0  0  0  0  0  # atno 6055 bound_to 637 
   11.4062   19.3651    8.1662 LP  0  0  0  0  0  0  0  0  0  0  0  0  # atno 6056 bound_to 637 
    2.2209   11.8782   10.4360 LP  0  0  0  0  0  0  0  0  0  0  0  0  # atno 6063 bound_to 1878
    1.3673   10.4932   10.5761 LP  0  0  0  0  0  0  0  0  0  0  0  0  # atno 6064 bound_to 1878
   -7.0740   15.5405   -0.2578 LP  0  0  0  0  0  0  0  0  0  0  0  0  # atno 6067 bound_to 957 
   -6.4362   16.1146   -1.6472 LP  0  0  0  0  0  0  0  0  0  0  0  0  # atno 6068 bound_to 957 

>  <STRIFE_LigEff_Score>  (42) 
2.6233588235294114

$$$$
unknown|pharmsElabsTestMulti|sdf|43|dock5
     RDKit          3D

 16 16  0  0  0  0  0  0  0  0999 V2000
    4.1265    8.9688    2.1564 C   0  0  0  0  0  0  0  0  0  0  0  0
    4.8064    9.3152    3.4587 C   0  0  0  0  0  0  0  0  0  0  0  0
    3.9365    9.2008    4.7091 C   0  0  0  0  0  0  0  0  0  0  0  0
    2.7148    9.7959    4.3742 O   0  0  0  0  0  0  0  0  0  0  0  0
    6.2048    8.9188    3.5291 N   0  0  0  0  0  0  0  0  0  0  0  0
    7.2574    9.1896    2.6068 C   0  0  0  0  0  0  0  0  0  0  0  0
    7.0776   10.0127    1.6701 O   0  0  0  0  0  0  0  0  0  0  0  0
    8.6356    8.6618    2.9111 C   0  0  0  0  0  0  0  0  0  0  0  0
    9.1773    7.8485    1.7303 C   0  0  0  0  0  0  0  0  0  0  0  0
   10.5723    7.3203    2.0423 C   0  0  0  0  0  0  0  0  0  0  0  0
   11.5387    8.4913    2.3160 C   0  0  0  0  0  0  0  0  0  0  0  0
   12.9955    7.9587    2.4643 C   0  0  0  0  0  0  0  0  0  0  0  0
   13.1175    7.0940    3.7347 C   0  0  0  0  0  0  0  0  0  0  0  0
   13.4184    7.1671    1.3015 N   0  0  0  0  0  0  0  0  0  0  0  0
   11.0225    9.2900    3.5377 C   0  0  0  0  0  0  0  0  0  0  0  0
    9.5952    9.8079    3.2890 C   0  0  0  0  0  0  0  0  0  0  0  0
  1  2  1  0
  2  3  1  0
  3  4  1  0
  2  5  1  0
  5  6  1  0
  6  7  2  0
  6  8  1  0
  8  9  1  0
  9 10  1  0
 10 11  1  0
 11 12  1  0
 12 13  1  0
 12 14  1  0
 11 15  1  0
 15 16  1  0
 16  8  1  0
M  CHG  1  14   1
M  END
>  <EmbedRMS>  (43) 
0.20925142480886919

>  <Gold.Version>  (43) 
2020.3.0

>  <Gold.Id.Protein>  (43) 
unknown|1q8t_protein|pdb

>  <Gold.PLP.Fitness>  (43) 
49.7929

>  <Gold.PLP.PLP>  (43) 
-37.8789

>  <Gold.PLP.part.hbond>  (43) 
-2.9359

>  <Gold.PLP.part.metal>  (43) 
0.0000

>  <Gold.PLP.part.buried>  (43) 
-2.4916

>  <Gold.PLP.part.nonpolar>  (43) 
-32.5157

>  <Gold.PLP.part.repulsive>  (43) 
0.0329

>  <Gold.PLP.ligand.clash>  (43) 
0.0000

>  <Gold.PLP.ligand.torsion>  (43) 
0.2964

>  <Gold.PLP.Chemscore.Hbond>  (43) 
4.0000

>  <Gold.PLP.Chemscore.CHOScore>  (43) 
0.0000

>  <Gold.PLP.Chemscore.Metal>  (43) 
0.0000

>  <Gold.Chemscore.Hbonds>  (43) 
donor molecule, donor type, donor heavy atom, donor atom, acceptor molecule, acceptor atom, score
      L1  H    14    35       P1  2691  1.00
      L1  H    14    37       P1  2902  2.00
      P1  H  1888  1903       L1     4  1.00

>  <Gold.PLP.Chemscore.Internal.Correction>  (43) 
0.5068

>  <Gold.PLP.Constraint>  (43) 
-0.0000

>  <Gold.Protein.RotatedTorsions>  (43) 
[  681  677  676  673 ] final -179.32 input -179.99 | X-H torsion
[  702  698  697  694 ] final  -60.54 input  179.99 | X-H torsion
[ 2577 2569 2568 2566 ] final -100.50 input   -0.13 | X-H torsion
[ 2891 2887 2886 2883 ] final  -39.40 input  179.98 | X-H torsion
[ 3175 3171 3170 3167 ] final  -98.58 input -179.99 | X-H torsion
[ 5278 5270 5269 5267 ] final   87.13 input    0.55 | X-H torsion
[  641  637  636  633 ] final   58.02 input  179.99 | X-H torsion
[ 1886 1878 1877 1875 ] final  146.65 input    1.60 | X-H torsion
[  965  957  956  954 ] final -164.82 input    0.45 | X-H torsion

>  <Gold.Protein.ActiveResidues>  (43) 
 LYS47   THR48   LEU49   GLY50   THR51   GLY52   SER53   PHE54   GLY55   ARG56  
 VAL57   MET58   LEU59   TYR69   ALA70   MET71   LYS72   ILE73   LEU74   GLU91  
 LEU95   VAL104  LYS105  MET118  VAL119  MET120  GLU121  TYR122  VAL123  PRO124 
 GLY125  GLY126  GLU127  MET128  PHE129  TYR164  ASP166  LEU167  LYS168  PRO169 
 GLU170  ASN171  LEU172  LEU173  ILE174  GLN181  VAL182  THR183  ASP184  PHE185 
 GLY186  PHE187  GLY200  THR201  ASN326  PHE327  TYR330  ARG18   ARG19   ASN20  
 ALA21   ILE22   HIS23  

>  <Gold.Protein.RotatedAtoms>  (43) 
    9.8780   19.6796    8.6514 H   0  0  0  0  0  0  0  0  0  0  0  0  # atno 641  bound_to 637 
   16.9879   13.9139    7.0283 H   0  0  0  0  0  0  0  0  0  0  0  0  # atno 681  bound_to 677 
   20.2923   11.6763   -0.2412 H   0  0  0  0  0  0  0  0  0  0  0  0  # atno 702  bound_to 698 
   -6.7953   17.1640   -0.7969 H   0  0  0  0  0  0  0  0  0  0  0  0  # atno 965  bound_to 957 
    0.8462   12.0030   11.0445 H   0  0  0  0  0  0  0  0  0  0  0  0  # atno 1886 bound_to 1878
   11.0311    2.8840   -3.0096 H   0  0  0  0  0  0  0  0  0  0  0  0  # atno 2577 bound_to 2569
    7.6951    5.1823    0.7476 H   0  0  0  0  0  0  0  0  0  0  0  0  # atno 2891 bound_to 2887
   19.0971    2.9041    0.1320 H   0  0  0  0  0  0  0  0  0  0  0  0  # atno 3175 bound_to 3171
   13.2575   10.2273    8.7848 H   0  0  0  0  0  0  0  0  0  0  0  0  # atno 5278 bound_to 5270
   16.6968   12.7039    6.0347 LP  0  0  0  0  0  0  0  0  0  0  0  0  # atno 5914 bound_to 677 
   15.5972   13.1488    7.1570 LP  0  0  0  0  0  0  0  0  0  0  0  0  # atno 5915 bound_to 677 
   21.0006   11.5614   -1.6633 LP  0  0  0  0  0  0  0  0  0  0  0  0  # atno 5920 bound_to 698 
   19.3963   11.8435   -1.5476 LP  0  0  0  0  0  0  0  0  0  0  0  0  # atno 5921 bound_to 698 
    9.9710    1.8821   -2.3712 LP  0  0  0  0  0  0  0  0  0  0  0  0  # atno 5950 bound_to 2569
    9.4847    3.1456   -3.2842 LP  0  0  0  0  0  0  0  0  0  0  0  0  # atno 5951 bound_to 2569
    7.2482    6.4543    1.5955 LP  0  0  0  0  0  0  0  0  0  0  0  0  # atno 5982 bound_to 2887
    8.3280    6.5965    0.3788 LP  0  0  0  0  0  0  0  0  0  0  0  0  # atno 5983 bound_to 2887
   17.8829    1.9698   -0.3018 LP  0  0  0  0  0  0  0  0  0  0  0  0  # atno 6000 bound_to 3171
   18.9074    2.5827   -1.4160 LP  0  0  0  0  0  0  0  0  0  0  0  0  # atno 6001 bound_to 3171
   12.8962    9.8361   10.2859 LP  0  0  0  0  0  0  0  0  0  0  0  0  # atno 6004 bound_to 5270
   14.4516    9.9704    9.8071 LP  0  0  0  0  0  0  0  0  0  0  0  0  # atno 6005 bound_to 5270
   10.1684   18.9696    7.2562 LP  0  0  0  0  0  0  0  0  0  0  0  0  # atno 6055 bound_to 637 
   11.3928   19.4059    8.2447 LP  0  0  0  0  0  0  0  0  0  0  0  0  # atno 6056 bound_to 637 
    2.2720   11.7340   10.3889 LP  0  0  0  0  0  0  0  0  0  0  0  0  # atno 6063 bound_to 1878
    1.2225   10.5090   10.6427 LP  0  0  0  0  0  0  0  0  0  0  0  0  # atno 6064 bound_to 1878
   -7.1638   15.8043   -0.0550 LP  0  0  0  0  0  0  0  0  0  0  0  0  # atno 6067 bound_to 957 
   -6.4875   15.7906   -1.5413 LP  0  0  0  0  0  0  0  0  0  0  0  0  # atno 6068 bound_to 957 

>  <STRIFE_LigEff_Score>  (43) 
3.11205625

$$$$
unknown|pharmsElabsTestMulti|sdf|44|dock5
     RDKit          3D

 14 14  0  0  0  0  0  0  0  0999 V2000
    3.9000    9.9146    5.5951 C   0  0  0  0  0  0  0  0  0  0  0  0
    4.7189   10.0691    4.3194 C   0  0  0  0  0  0  0  0  0  0  0  0
    6.0512    9.5011    4.4962 N   0  0  0  0  0  0  0  0  0  0  0  0
    7.0368    9.5120    3.4563 C   0  0  0  0  0  0  0  0  0  0  0  0
    6.7978   10.0918    2.3599 O   0  0  0  0  0  0  0  0  0  0  0  0
    8.3700    8.8533    3.6887 C   0  0  0  0  0  0  0  0  0  0  0  0
    8.6441    7.8089    2.6082 C   0  0  0  0  0  0  0  0  0  0  0  0
    9.9159    7.0242    2.8977 C   0  0  0  0  0  0  0  0  0  0  0  0
   11.1377    7.8692    3.3478 C   0  0  0  0  0  0  0  0  0  0  0  0
   12.4531    7.7959    2.5470 C   0  0  0  0  0  0  0  0  0  0  0  0
   13.7710    7.8888    3.3157 C   0  0  0  0  0  0  0  0  0  0  0  0
   12.4528    8.7043    1.3921 N   0  0  0  0  0  0  0  0  0  0  0  0
   10.8530    9.2766    3.9561 C   0  0  0  0  0  0  0  0  0  0  0  0
    9.4852    9.8934    3.6693 C   0  0  0  0  0  0  0  0  0  0  0  0
  1  2  1  0
  2  3  1  0
  3  4  1  0
  4  5  2  0
  4  6  1  0
  6  7  1  0
  7  8  1  0
  8  9  1  0
  9 10  1  0
 10 11  1  0
 10 12  1  0
  9 13  1  0
 13 14  1  0
 14  6  1  0
M  CHG  1  12   1
M  END
>  <EmbedRMS>  (44) 
0.22880006867790334

>  <Gold.Version>  (44) 
2020.3.0

>  <Gold.Id.Protein>  (44) 
unknown|1q8t_protein|pdb

>  <Gold.PLP.Fitness>  (44) 
35.0800

>  <Gold.PLP.PLP>  (44) 
-29.5525

>  <Gold.PLP.part.hbond>  (44) 
-1.0000

>  <Gold.PLP.part.metal>  (44) 
0.0000

>  <Gold.PLP.part.buried>  (44) 
-0.0187

>  <Gold.PLP.part.nonpolar>  (44) 
-28.2818

>  <Gold.PLP.part.repulsive>  (44) 
0.0000

>  <Gold.PLP.ligand.clash>  (44) 
0.0000

>  <Gold.PLP.ligand.torsion>  (44) 
0.4288

>  <Gold.PLP.Chemscore.Hbond>  (44) 
2.0000

>  <Gold.PLP.Chemscore.CHOScore>  (44) 
0.0000

>  <Gold.PLP.Chemscore.Metal>  (44) 
0.0000

>  <Gold.Chemscore.Hbonds>  (44) 
donor molecule, donor type, donor heavy atom, donor atom, acceptor molecule, acceptor atom, score
      L1  H    12    32       P1  2902  2.00

>  <Gold.PLP.Chemscore.Internal.Correction>  (44) 
0.3850

>  <Gold.PLP.Constraint>  (44) 
-0.0000

>  <Gold.Protein.RotatedTorsions>  (44) 
[  681  677  676  673 ] final -122.56 input -179.99 | X-H torsion
[  702  698  697  694 ] final -106.32 input  179.99 | X-H torsion
[ 2577 2569 2568 2566 ] final  177.72 input   -0.13 | X-H torsion
[ 2891 2887 2886 2883 ] final   -2.56 input  179.98 | X-H torsion
[ 3175 3171 3170 3167 ] final   38.81 input -179.99 | X-H torsion
[ 5278 5270 5269 5267 ] final   -8.85 input    0.55 | X-H torsion
[  641  637  636  633 ] final   -0.89 input  179.99 | X-H torsion
[ 1886 1878 1877 1875 ] final   81.06 input    1.60 | X-H torsion
[  965  957  956  954 ] final  173.37 input    0.45 | X-H torsion

>  <Gold.Protein.ActiveResidues>  (44) 
 LYS47   THR48   LEU49   GLY50   THR51   GLY52   SER53   PHE54   GLY55   ARG56  
 VAL57   MET58   LEU59   TYR69   ALA70   MET71   LYS72   ILE73   LEU74   GLU91  
 LEU95   VAL104  LYS105  MET118  VAL119  MET120  GLU121  TYR122  VAL123  PRO124 
 GLY125  GLY126  GLU127  MET128  PHE129  TYR164  ASP166  LEU167  LYS168  PRO169 
 GLU170  ASN171  LEU172  LEU173  ILE174  GLN181  VAL182  THR183  ASP184  PHE185 
 GLY186  PHE187  GLY200  THR201  ASN326  PHE327  TYR330  ARG18   ARG19   ASN20  
 ALA21   ILE22   HIS23  

>  <Gold.Protein.RotatedAtoms>  (44) 
    9.5888   19.3143    7.9043 H   0  0  0  0  0  0  0  0  0  0  0  0  # atno 641  bound_to 637 
   16.2325   13.8289    7.4120 H   0  0  0  0  0  0  0  0  0  0  0  0  # atno 681  bound_to 677 
   20.9053   11.5738   -0.5571 H   0  0  0  0  0  0  0  0  0  0  0  0  # atno 702  bound_to 698 
   -6.9338   17.1027   -0.4938 H   0  0  0  0  0  0  0  0  0  0  0  0  # atno 965  bound_to 957 
    1.7140   12.2769   10.7086 H   0  0  0  0  0  0  0  0  0  0  0  0  # atno 1886 bound_to 1878
   10.5639    1.9851   -2.4196 H   0  0  0  0  0  0  0  0  0  0  0  0  # atno 2577 bound_to 2569
    8.0608    5.4051    0.3774 H   0  0  0  0  0  0  0  0  0  0  0  0  # atno 2891 bound_to 2887
   18.6908    2.4016   -1.4068 H   0  0  0  0  0  0  0  0  0  0  0  0  # atno 3175 bound_to 3171
   12.7098    9.9312    9.9619 H   0  0  0  0  0  0  0  0  0  0  0  0  # atno 5278 bound_to 5270
   17.2693   13.3371    6.3077 LP  0  0  0  0  0  0  0  0  0  0  0  0  # atno 5914 bound_to 677 
   15.8197   12.6052    6.4801 LP  0  0  0  0  0  0  0  0  0  0  0  0  # atno 5915 bound_to 677 
   20.3966   11.6762   -2.0632 LP  0  0  0  0  0  0  0  0  0  0  0  0  # atno 5920 bound_to 698 
   19.3555   11.8366   -0.8154 LP  0  0  0  0  0  0  0  0  0  0  0  0  # atno 5921 bound_to 698 
    9.2387    2.6723   -2.9736 LP  0  0  0  0  0  0  0  0  0  0  0  0  # atno 5950 bound_to 2569
   10.7090    3.3019   -3.3030 LP  0  0  0  0  0  0  0  0  0  0  0  0  # atno 5951 bound_to 2569
    7.1346    5.8696    1.5869 LP  0  0  0  0  0  0  0  0  0  0  0  0  # atno 5982 bound_to 2887
    8.0567    6.9468    0.7770 LP  0  0  0  0  0  0  0  0  0  0  0  0  # atno 5983 bound_to 2887
   19.2656    3.0257   -0.0593 LP  0  0  0  0  0  0  0  0  0  0  0  0  # atno 6000 bound_to 3171
   17.9523    2.0555   -0.0391 LP  0  0  0  0  0  0  0  0  0  0  0  0  # atno 6001 bound_to 3171
   14.2902    9.8832   10.1539 LP  0  0  0  0  0  0  0  0  0  0  0  0  # atno 6004 bound_to 5270
   13.6337   10.2348    8.7006 LP  0  0  0  0  0  0  0  0  0  0  0  0  # atno 6005 bound_to 5270
   11.0780   19.0083    7.4315 LP  0  0  0  0  0  0  0  0  0  0  0  0  # atno 6055 bound_to 637 
   10.7878   19.7519    8.8561 LP  0  0  0  0  0  0  0  0  0  0  0  0  # atno 6056 bound_to 637 
    1.9938   10.7524   10.3441 LP  0  0  0  0  0  0  0  0  0  0  0  0  # atno 6063 bound_to 1878
    0.5872   11.2023   11.0410 LP  0  0  0  0  0  0  0  0  0  0  0  0  # atno 6064 bound_to 1878
   -7.0701   15.5327   -0.2666 LP  0  0  0  0  0  0  0  0  0  0  0  0  # atno 6067 bound_to 957 
   -6.4353   16.1268   -1.6489 LP  0  0  0  0  0  0  0  0  0  0  0  0  # atno 6068 bound_to 957 

>  <STRIFE_LigEff_Score>  (44) 
2.505714285714286

$$$$
unknown|pharmsElabsTestMulti|sdf|45|dock10
     RDKit          3D

 15 15  0  0  0  0  0  0  0  0999 V2000
   13.5574    7.4424    3.5645 C   0  0  0  0  0  0  0  0  0  0  0  0
   13.2539    8.1381    2.2228 C   0  0  0  0  0  0  0  0  0  0  0  0
   13.5356    7.2064    1.1230 N   0  0  0  0  0  0  0  0  0  0  0  0
   11.7808    8.6438    2.2025 C   0  0  0  0  0  0  0  0  0  0  0  0
   10.8118    7.4438    2.2309 C   0  0  0  0  0  0  0  0  0  0  0  0
    9.3773    7.9213    2.0518 C   0  0  0  0  0  0  0  0  0  0  0  0
    8.9960    8.8874    3.1783 C   0  0  0  0  0  0  0  0  0  0  0  0
    7.5748    9.3433    3.0127 C   0  0  0  0  0  0  0  0  0  0  0  0
    7.2409   10.0472    2.0179 O   0  0  0  0  0  0  0  0  0  0  0  0
    6.6015    8.9661    3.9927 N   0  0  0  0  0  0  0  0  0  0  0  0
    5.2054    9.3713    3.9044 C   0  0  0  0  0  0  0  0  0  0  0  0
    4.6403    9.6198    5.2996 C   0  0  0  0  0  0  0  0  0  0  0  0
    3.3026    9.2119    5.3497 O   0  0  0  0  0  0  0  0  0  0  0  0
    9.9616   10.0832    3.2435 C   0  0  0  0  0  0  0  0  0  0  0  0
   11.4211    9.6104    3.3584 C   0  0  0  0  0  0  0  0  0  0  0  0
  1  2  1  0
  2  3  1  0
  2  4  1  0
  4  5  1  0
  5  6  1  0
  6  7  1  0
  7  8  1  0
  8  9  2  0
  8 10  1  0
 10 11  1  0
 11 12  1  0
 12 13  1  0
  7 14  1  0
 14 15  1  0
 15  4  1  0
M  CHG  1   3   1
M  END
>  <EmbedRMS>  (45) 
0.031392693704421666

>  <Gold.Version>  (45) 
2020.3.0

>  <Gold.Id.Protein>  (45) 
unknown|1q8t_protein|pdb

>  <Gold.PLP.Fitness>  (45) 
46.2190

>  <Gold.PLP.PLP>  (45) 
-33.1548

>  <Gold.PLP.part.hbond>  (45) 
-4.0000

>  <Gold.PLP.part.metal>  (45) 
0.0000

>  <Gold.PLP.part.buried>  (45) 
-4.2043

>  <Gold.PLP.part.nonpolar>  (45) 
-25.1027

>  <Gold.PLP.part.repulsive>  (45) 
0.0377

>  <Gold.PLP.ligand.clash>  (45) 
0.0000

>  <Gold.PLP.ligand.torsion>  (45) 
0.4674

>  <Gold.PLP.Chemscore.Hbond>  (45) 
4.6528

>  <Gold.PLP.Chemscore.CHOScore>  (45) 
0.0000

>  <Gold.PLP.Chemscore.Metal>  (45) 
0.0000

>  <Gold.Chemscore.Hbonds>  (45) 
donor molecule, donor type, donor heavy atom, donor atom, acceptor molecule, acceptor atom, score
      L1  H     3    20       P1  2902  2.00
      L1  H     3    22       P1  2691  1.00
      L1  H    13    34       P1  1891  0.86
      P1  H  1888  1903       L1    13  0.79

>  <Gold.PLP.Chemscore.Internal.Correction>  (45) 
0.0406

>  <Gold.PLP.Constraint>  (45) 
-0.0000

>  <Gold.Protein.RotatedTorsions>  (45) 
[  681  677  676  673 ] final -172.33 input -179.99 | X-H torsion
[  702  698  697  694 ] final   76.17 input  179.99 | X-H torsion
[ 2577 2569 2568 2566 ] final   73.24 input   -0.13 | X-H torsion
[ 2891 2887 2886 2883 ] final -161.42 input  179.98 | X-H torsion
[ 3175 3171 3170 3167 ] final   14.53 input -179.99 | X-H torsion
[ 5278 5270 5269 5267 ] final   -8.78 input    0.55 | X-H torsion
[  641  637  636  633 ] final  135.00 input  179.99 | X-H torsion
[ 1886 1878 1877 1875 ] final   -7.41 input    1.60 | X-H torsion
[  965  957  956  954 ] final  159.13 input    0.45 | X-H torsion

>  <Gold.Protein.ActiveResidues>  (45) 
 LYS47   THR48   LEU49   GLY50   THR51   GLY52   SER53   PHE54   GLY55   ARG56  
 VAL57   MET58   LEU59   TYR69   ALA70   MET71   LYS72   ILE73   LEU74   GLU91  
 LEU95   VAL104  LYS105  MET118  VAL119  MET120  GLU121  TYR122  VAL123  PRO124 
 GLY125  GLY126  GLU127  MET128  PHE129  TYR164  ASP166  LEU167  LYS168  PRO169 
 GLU170  ASN171  LEU172  LEU173  ILE174  GLN181  VAL182  THR183  ASP184  PHE185 
 GLY186  PHE187  GLY200  THR201  ASN326  PHE327  TYR330  ARG18   ARG19   ASN20  
 ALA21   ILE22   HIS23  

>  <Gold.Protein.RotatedAtoms>  (45) 
   10.9897   19.6556    8.7260 H   0  0  0  0  0  0  0  0  0  0  0  0  # atno 641  bound_to 637 
   16.9104   13.9389    7.1010 H   0  0  0  0  0  0  0  0  0  0  0  0  # atno 681  bound_to 677 
   19.5856   11.8306   -1.7421 H   0  0  0  0  0  0  0  0  0  0  0  0  # atno 702  bound_to 698 
   -7.0155   16.9969   -0.3166 H   0  0  0  0  0  0  0  0  0  0  0  0  # atno 965  bound_to 957 
    2.2107   11.2033   10.3065 H   0  0  0  0  0  0  0  0  0  0  0  0  # atno 1886 bound_to 1878
    9.3009    2.4635   -2.8444 H   0  0  0  0  0  0  0  0  0  0  0  0  # atno 2577 bound_to 2569
    7.2737    6.4653    1.5431 H   0  0  0  0  0  0  0  0  0  0  0  0  # atno 2891 bound_to 2887
   18.9828    2.6277   -1.3325 H   0  0  0  0  0  0  0  0  0  0  0  0  # atno 3175 bound_to 3171
   12.7094    9.9315    9.9610 H   0  0  0  0  0  0  0  0  0  0  0  0  # atno 5278 bound_to 5270
   16.7950   12.7634    6.0328 LP  0  0  0  0  0  0  0  0  0  0  0  0  # atno 5914 bound_to 677 
   15.5804   13.0631    7.0824 LP  0  0  0  0  0  0  0  0  0  0  0  0  # atno 5915 bound_to 677 
   20.0236   11.7066   -0.2156 LP  0  0  0  0  0  0  0  0  0  0  0  0  # atno 5920 bound_to 698 
   21.1168   11.5360   -1.4166 LP  0  0  0  0  0  0  0  0  0  0  0  0  # atno 5921 bound_to 698 
   10.4818    3.3879   -3.3794 LP  0  0  0  0  0  0  0  0  0  0  0  0  # atno 5950 bound_to 2569
   10.7956    2.0824   -2.4499 LP  0  0  0  0  0  0  0  0  0  0  0  0  # atno 5951 bound_to 2569
    8.3370    6.5692    0.3619 LP  0  0  0  0  0  0  0  0  0  0  0  0  # atno 5982 bound_to 2887
    7.6827    5.1313    0.7752 LP  0  0  0  0  0  0  0  0  0  0  0  0  # atno 5983 bound_to 2887
   19.0363    2.8946    0.2364 LP  0  0  0  0  0  0  0  0  0  0  0  0  # atno 6000 bound_to 3171
   17.8742    1.9488   -0.4130 LP  0  0  0  0  0  0  0  0  0  0  0  0  # atno 6001 bound_to 3171
   14.2895    9.8830   10.1548 LP  0  0  0  0  0  0  0  0  0  0  0  0  # atno 6004 bound_to 5270
   13.6349   10.2348    8.7007 LP  0  0  0  0  0  0  0  0  0  0  0  0  # atno 6005 bound_to 5270
    9.5324   19.4461    8.1198 LP  0  0  0  0  0  0  0  0  0  0  0  0  # atno 6055 bound_to 637 
   10.8580   18.9547    7.3025 LP  0  0  0  0  0  0  0  0  0  0  0  0  # atno 6056 bound_to 637 
    0.7908   10.7620   10.8761 LP  0  0  0  0  0  0  0  0  0  0  0  0  # atno 6063 bound_to 1878
    1.2673   12.3229   10.9323 LP  0  0  0  0  0  0  0  0  0  0  0  0  # atno 6064 bound_to 1878
   -6.9885   15.4104   -0.4483 LP  0  0  0  0  0  0  0  0  0  0  0  0  # atno 6067 bound_to 957 
   -6.4309   16.3604   -1.6538 LP  0  0  0  0  0  0  0  0  0  0  0  0  # atno 6068 bound_to 957 

>  <STRIFE_LigEff_Score>  (45) 
3.0812666666666666

$$$$
unknown|pharmsElabsTestMulti|sdf|46|dock6
     RDKit          3D

 13 13  0  0  0  0  0  0  0  0999 V2000
    5.1091    9.0293    2.6882 C   0  0  0  0  0  0  0  0  0  0  0  0
    6.5133    9.0500    2.2714 N   0  0  0  0  0  0  0  0  0  0  0  0
    7.5518    9.0215    3.2613 C   0  0  0  0  0  0  0  0  0  0  0  0
    7.2377    9.0622    4.4767 O   0  0  0  0  0  0  0  0  0  0  0  0
    9.0212    8.9191    2.9785 C   0  0  0  0  0  0  0  0  0  0  0  0
    9.5682    7.4902    2.9259 C   0  0  0  0  0  0  0  0  0  0  0  0
   11.1051    7.3997    2.8257 C   0  0  0  0  0  0  0  0  0  0  0  0
   11.6962    8.6703    2.1949 C   0  0  0  0  0  0  0  0  0  0  0  0
   13.1678    8.6112    1.6809 C   0  0  0  0  0  0  0  0  0  0  0  0
   13.7471    9.8912    1.1025 C   0  0  0  0  0  0  0  0  0  0  0  0
   13.5956    7.3881    1.0103 N   0  0  0  0  0  0  0  0  0  0  0  0
   11.4033    9.8827    3.1020 C   0  0  0  0  0  0  0  0  0  0  0  0
    9.9082   10.0651    3.4395 C   0  0  0  0  0  0  0  0  0  0  0  0
  1  2  1  0
  2  3  1  0
  3  4  2  0
  3  5  1  0
  5  6  1  0
  6  7  1  0
  7  8  1  0
  8  9  1  0
  9 10  1  0
  9 11  1  0
  8 12  1  0
 12 13  1  0
 13  5  1  0
M  CHG  1  11   1
M  END
>  <EmbedRMS>  (46) 
0.29639754771625826

>  <Gold.Version>  (46) 
2020.3.0

>  <Gold.Id.Protein>  (46) 
unknown|1q8t_protein|pdb

>  <Gold.PLP.Fitness>  (46) 
34.3150

>  <Gold.PLP.PLP>  (46) 
-25.7260

>  <Gold.PLP.part.hbond>  (46) 
-2.0000

>  <Gold.PLP.part.metal>  (46) 
0.0000

>  <Gold.PLP.part.buried>  (46) 
-3.3485

>  <Gold.PLP.part.nonpolar>  (46) 
-20.1423

>  <Gold.PLP.part.repulsive>  (46) 
0.0531

>  <Gold.PLP.ligand.clash>  (46) 
0.0000

>  <Gold.PLP.ligand.torsion>  (46) 
0.5400

>  <Gold.PLP.Chemscore.Hbond>  (46) 
2.8800

>  <Gold.PLP.Chemscore.CHOScore>  (46) 
0.0000

>  <Gold.PLP.Chemscore.Metal>  (46) 
0.0000

>  <Gold.Chemscore.Hbonds>  (46) 
donor molecule, donor type, donor heavy atom, donor atom, acceptor molecule, acceptor atom, score
      L1  H    11    29       P1  2691  0.88
      L1  H    11    30       P1  2902  2.00

>  <Gold.PLP.Chemscore.Internal.Correction>  (46) 
1.0290

>  <Gold.PLP.Constraint>  (46) 
-0.0000

>  <Gold.Protein.RotatedTorsions>  (46) 
[  681  677  676  673 ] final -179.56 input -179.99 | X-H torsion
[  702  698  697  694 ] final  -98.46 input  179.99 | X-H torsion
[ 2577 2569 2568 2566 ] final -156.67 input   -0.13 | X-H torsion
[ 2891 2887 2886 2883 ] final  161.69 input  179.98 | X-H torsion
[ 3175 3171 3170 3167 ] final  163.43 input -179.99 | X-H torsion
[ 5278 5270 5269 5267 ] final  174.97 input    0.55 | X-H torsion
[  641  637  636  633 ] final -115.11 input  179.99 | X-H torsion
[ 1886 1878 1877 1875 ] final   77.93 input    1.60 | X-H torsion
[  965  957  956  954 ] final   -5.23 input    0.45 | X-H torsion

>  <Gold.Protein.ActiveResidues>  (46) 
 LYS47   THR48   LEU49   GLY50   THR51   GLY52   SER53   PHE54   GLY55   ARG56  
 VAL57   MET58   LEU59   TYR69   ALA70   MET71   LYS72   ILE73   LEU74   GLU91  
 LEU95   VAL104  LYS105  MET118  VAL119  MET120  GLU121  TYR122  VAL123  PRO124 
 GLY125  GLY126  GLU127  MET128  PHE129  TYR164  ASP166  LEU167  LYS168  PRO169 
 GLU170  ASN171  LEU172  LEU173  ILE174  GLN181  VAL182  THR183  ASP184  PHE185 
 GLY186  PHE187  GLY200  THR201  ASN326  PHE327  TYR330  ARG18   ARG19   ASN20  
 ALA21   ILE22   HIS23  

>  <Gold.Protein.RotatedAtoms>  (46) 
   10.9749   18.9897    7.4203 H   0  0  0  0  0  0  0  0  0  0  0  0  # atno 641  bound_to 637 
   16.9905   13.9129    7.0257 H   0  0  0  0  0  0  0  0  0  0  0  0  # atno 681  bound_to 677 
   20.8208   11.5870   -0.4689 H   0  0  0  0  0  0  0  0  0  0  0  0  # atno 702  bound_to 698 
   -6.6857   15.4271   -1.0741 H   0  0  0  0  0  0  0  0  0  0  0  0  # atno 965  bound_to 957 
    1.7558   12.2622   10.6876 H   0  0  0  0  0  0  0  0  0  0  0  0  # atno 1886 bound_to 1878
   10.8745    2.1982   -2.5449 H   0  0  0  0  0  0  0  0  0  0  0  0  # atno 2577 bound_to 2569
    7.5842    6.8586    1.2776 H   0  0  0  0  0  0  0  0  0  0  0  0  # atno 2891 bound_to 2887
   18.0245    2.0922   -0.0009 H   0  0  0  0  0  0  0  0  0  0  0  0  # atno 3175 bound_to 3171
   14.3728   10.1068    9.3204 H   0  0  0  0  0  0  0  0  0  0  0  0  # atno 5278 bound_to 5270
   16.6932   12.7020    6.0349 LP  0  0  0  0  0  0  0  0  0  0  0  0  # atno 5914 bound_to 677 
   15.5980   13.1519    7.1595 LP  0  0  0  0  0  0  0  0  0  0  0  0  # atno 5915 bound_to 677 
   20.5199   11.6537   -2.0317 LP  0  0  0  0  0  0  0  0  0  0  0  0  # atno 5920 bound_to 698 
   19.3211   11.8451   -0.9396 LP  0  0  0  0  0  0  0  0  0  0  0  0  # atno 5921 bound_to 698 
    9.2995    2.3348   -2.7347 LP  0  0  0  0  0  0  0  0  0  0  0  0  # atno 5950 bound_to 2569
   10.3211    3.4150   -3.4100 LP  0  0  0  0  0  0  0  0  0  0  0  0  # atno 5951 bound_to 2569
    8.3675    5.9987    0.1897 LP  0  0  0  0  0  0  0  0  0  0  0  0  # atno 5982 bound_to 2887
    7.3253    5.2879    1.2267 LP  0  0  0  0  0  0  0  0  0  0  0  0  # atno 5983 bound_to 2887
   18.6216    2.3663   -1.4514 LP  0  0  0  0  0  0  0  0  0  0  0  0  # atno 6000 bound_to 3171
   19.2975    3.0405   -0.1266 LP  0  0  0  0  0  0  0  0  0  0  0  0  # atno 6001 bound_to 3171
   12.8095   10.1477    9.0186 LP  0  0  0  0  0  0  0  0  0  0  0  0  # atno 6004 bound_to 5270
   13.3647    9.7855   10.5109 LP  0  0  0  0  0  0  0  0  0  0  0  0  # atno 6005 bound_to 5270
   10.8753   19.7314    8.8256 LP  0  0  0  0  0  0  0  0  0  0  0  0  # atno 6055 bound_to 637 
    9.5308   19.3706    7.9719 LP  0  0  0  0  0  0  0  0  0  0  0  0  # atno 6056 bound_to 637 
    1.9567   10.7181   10.3547 LP  0  0  0  0  0  0  0  0  0  0  0  0  # atno 6063 bound_to 1878
    0.5803   11.2521   11.0526 LP  0  0  0  0  0  0  0  0  0  0  0  0  # atno 6064 bound_to 1878
   -6.5632   16.9905   -1.3498 LP  0  0  0  0  0  0  0  0  0  0  0  0  # atno 6067 bound_to 957 
   -7.2035   16.4338    0.0455 LP  0  0  0  0  0  0  0  0  0  0  0  0  # atno 6068 bound_to 957 

>  <STRIFE_LigEff_Score>  (46) 
2.6396153846153845

$$$$
unknown|pharmsElabsTestMulti|sdf|47|dock9
     RDKit          3D

 20 21  0  0  0  0  0  0  0  0999 V2000
   15.7994    6.3121    4.1007 C   0  0  0  0  0  0  0  0  0  0  0  0
   15.2240    7.7293    4.2627 C   0  0  0  0  0  0  0  0  0  0  0  0
   15.8542    8.6414    3.3037 N   0  0  0  0  0  0  0  0  0  0  0  0
   13.6576    7.8492    4.2682 C   0  0  0  0  0  0  0  0  0  0  0  0
   12.9686    7.0478    3.1647 C   0  0  0  0  0  0  0  0  0  0  0  0
   11.4490    7.1087    3.1742 C   0  0  0  0  0  0  0  0  0  0  0  0
   10.9141    8.4902    3.4650 C   0  0  0  0  0  0  0  0  0  0  0  0
    9.4443    8.6393    3.2010 C   0  0  0  0  0  0  0  0  0  0  0  0
    8.7062    7.9141    3.9100 O   0  0  0  0  0  0  0  0  0  0  0  0
    8.8404    9.5142    2.2337 N   0  0  0  0  0  0  0  0  0  0  0  0
    7.3949    9.4399    1.9713 C   0  0  0  0  0  0  0  0  0  0  0  0
    6.6188    9.6516    3.2474 C   0  0  0  0  0  0  0  0  0  0  0  0
    7.2074   10.2624    4.3700 C   0  0  0  0  0  0  0  0  0  0  0  0
    6.4821   10.3979    5.5594 C   0  0  0  0  0  0  0  0  0  0  0  0
    5.1674    9.9290    5.6354 C   0  0  0  0  0  0  0  0  0  0  0  0
    4.5744    9.3217    4.5234 C   0  0  0  0  0  0  0  0  0  0  0  0
    3.2642    8.8582    4.6064 O   0  0  0  0  0  0  0  0  0  0  0  0
    5.3015    9.1804    3.3352 C   0  0  0  0  0  0  0  0  0  0  0  0
   11.4987    9.2253    4.6501 C   0  0  0  0  0  0  0  0  0  0  0  0
   13.0355    9.2140    4.6238 C   0  0  0  0  0  0  0  0  0  0  0  0
  1  2  1  0
  2  3  1  0
  2  4  1  0
  4  5  1  0
  5  6  1  0
  6  7  1  0
  7  8  1  0
  8  9  2  0
  8 10  1  0
 10 11  1  0
 11 12  1  0
 12 13  2  0
 13 14  1  0
 14 15  2  0
 15 16  1  0
 16 17  1  0
 16 18  2  0
  7 19  1  0
 19 20  1  0
 20  4  1  0
 18 12  1  0
M  CHG  1   3   1
M  END
>  <EmbedRMS>  (47) 
0.24874902131530774

>  <Gold.Version>  (47) 
2020.3.0

>  <Gold.Id.Protein>  (47) 
unknown|1q8t_protein|pdb

>  <Gold.PLP.Fitness>  (47) 
52.2141

>  <Gold.PLP.PLP>  (47) 
-47.8758

>  <Gold.PLP.part.hbond>  (47) 
-2.5655

>  <Gold.PLP.part.metal>  (47) 
0.0000

>  <Gold.PLP.part.buried>  (47) 
-1.2305

>  <Gold.PLP.part.nonpolar>  (47) 
-45.7214

>  <Gold.PLP.part.repulsive>  (47) 
0.1231

>  <Gold.PLP.ligand.clash>  (47) 
0.0000

>  <Gold.PLP.ligand.torsion>  (47) 
0.7761

>  <Gold.PLP.Chemscore.Hbond>  (47) 
1.6988

>  <Gold.PLP.Chemscore.CHOScore>  (47) 
0.0000

>  <Gold.PLP.Chemscore.Metal>  (47) 
0.0000

>  <Gold.Chemscore.Hbonds>  (47) 
donor molecule, donor type, donor heavy atom, donor atom, acceptor molecule, acceptor atom, score
      L1  H     3    25       P1   675  1.00
      L1  H    17    40       P1  1891  0.70

>  <Gold.PLP.Chemscore.Internal.Correction>  (47) 
0.7942

>  <Gold.PLP.Constraint>  (47) 
-0.0000

>  <Gold.Protein.RotatedTorsions>  (47) 
[  681  677  676  673 ] final  -18.96 input -179.99 | X-H torsion
[  702  698  697  694 ] final   59.13 input  179.99 | X-H torsion
[ 2577 2569 2568 2566 ] final   47.32 input   -0.13 | X-H torsion
[ 2891 2887 2886 2883 ] final -175.87 input  179.98 | X-H torsion
[ 3175 3171 3170 3167 ] final   33.33 input -179.99 | X-H torsion
[ 5278 5270 5269 5267 ] final  -42.27 input    0.55 | X-H torsion
[  641  637  636  633 ] final -173.66 input  179.99 | X-H torsion
[ 1886 1878 1877 1875 ] final -136.24 input    1.60 | X-H torsion
[  965  957  956  954 ] final  -13.46 input    0.45 | X-H torsion

>  <Gold.Protein.ActiveResidues>  (47) 
 LYS47   THR48   LEU49   GLY50   THR51   GLY52   SER53   PHE54   GLY55   ARG56  
 VAL57   MET58   LEU59   TYR69   ALA70   MET71   LYS72   ILE73   LEU74   GLU91  
 LEU95   VAL104  LYS105  MET118  VAL119  MET120  GLU121  TYR122  VAL123  PRO124 
 GLY125  GLY126  GLU127  MET128  PHE129  TYR164  ASP166  LEU167  LYS168  PRO169 
 GLU170  ASN171  LEU172  LEU173  ILE174  GLN181  VAL182  THR183  ASP184  PHE185 
 GLY186  PHE187  GLY200  THR201  ASN326  PHE327  TYR330  ARG18   ARG19   ASN20  
 ALA21   ILE22   HIS23  

>  <Gold.Protein.RotatedAtoms>  (47) 
   11.3617   19.3297    8.1284 H   0  0  0  0  0  0  0  0  0  0  0  0  # atno 641  bound_to 637 
   15.7067   12.7532    6.6712 H   0  0  0  0  0  0  0  0  0  0  0  0  # atno 681  bound_to 677 
   19.4382   11.8525   -1.5223 H   0  0  0  0  0  0  0  0  0  0  0  0  # atno 702  bound_to 698 
   -6.6366   15.4794   -1.1807 H   0  0  0  0  0  0  0  0  0  0  0  0  # atno 965  bound_to 957 
    0.7403   10.9009   10.9032 H   0  0  0  0  0  0  0  0  0  0  0  0  # atno 1886 bound_to 1878
    9.3139    2.7937   -3.0728 H   0  0  0  0  0  0  0  0  0  0  0  0  # atno 2577 bound_to 2569
    7.3783    6.6495    1.4660 H   0  0  0  0  0  0  0  0  0  0  0  0  # atno 2891 bound_to 2887
   18.7594    2.4528   -1.4038 H   0  0  0  0  0  0  0  0  0  0  0  0  # atno 3175 bound_to 3171
   13.0438    9.8406   10.3436 H   0  0  0  0  0  0  0  0  0  0  0  0  # atno 5278 bound_to 5270
   16.4735   13.9428    7.4012 LP  0  0  0  0  0  0  0  0  0  0  0  0  # atno 5914 bound_to 677 
   17.1689   13.1317    6.1663 LP  0  0  0  0  0  0  0  0  0  0  0  0  # atno 5915 bound_to 677 
   20.2978   11.6576   -0.1955 LP  0  0  0  0  0  0  0  0  0  0  0  0  # atno 5920 bound_to 698 
   20.9976   11.5620   -1.6678 LP  0  0  0  0  0  0  0  0  0  0  0  0  # atno 5921 bound_to 698 
   10.8404    3.2168   -3.2343 LP  0  0  0  0  0  0  0  0  0  0  0  0  # atno 5950 bound_to 2569
   10.4234    1.9058   -2.3545 LP  0  0  0  0  0  0  0  0  0  0  0  0  # atno 5951 bound_to 2569
    8.3794    6.3582    0.2621 LP  0  0  0  0  0  0  0  0  0  0  0  0  # atno 5982 bound_to 2887
    7.5301    5.1484    0.9560 LP  0  0  0  0  0  0  0  0  0  0  0  0  # atno 5983 bound_to 2887
   19.2225    3.0037    0.0167 LP  0  0  0  0  0  0  0  0  0  0  0  0  # atno 6000 bound_to 3171
   17.9232    2.0237   -0.1183 LP  0  0  0  0  0  0  0  0  0  0  0  0  # atno 6001 bound_to 3171
   14.4719   10.0073    9.6584 LP  0  0  0  0  0  0  0  0  0  0  0  0  # atno 6004 bound_to 5270
   13.1006   10.2061    8.7944 LP  0  0  0  0  0  0  0  0  0  0  0  0  # atno 6005 bound_to 5270
    9.9564   19.7447    8.7510 LP  0  0  0  0  0  0  0  0  0  0  0  0  # atno 6055 bound_to 637 
   10.0424   18.9993    7.3006 LP  0  0  0  0  0  0  0  0  0  0  0  0  # atno 6056 bound_to 637 
    1.3994   12.3501   10.8787 LP  0  0  0  0  0  0  0  0  0  0  0  0  # atno 6063 bound_to 1878
    2.2066   11.0532   10.3016 LP  0  0  0  0  0  0  0  0  0  0  0  0  # atno 6064 bound_to 1878
   -6.6080   17.0699   -1.2498 LP  0  0  0  0  0  0  0  0  0  0  0  0  # atno 6067 bound_to 957 
   -7.2104   16.2992    0.0578 LP  0  0  0  0  0  0  0  0  0  0  0  0  # atno 6068 bound_to 957 

>  <STRIFE_LigEff_Score>  (47) 
2.6107050000000003

$$$$
unknown|pharmsElabsTestMulti|sdf|48|dock8
     RDKit          3D

 14 14  0  0  0  0  0  0  0  0999 V2000
    4.0582    9.6224    5.3000 C   0  0  0  0  0  0  0  0  0  0  0  0
    4.9299    9.9640    4.0979 C   0  0  0  0  0  0  0  0  0  0  0  0
    6.2596    9.3828    4.2500 N   0  0  0  0  0  0  0  0  0  0  0  0
    7.2552    9.4594    3.2225 C   0  0  0  0  0  0  0  0  0  0  0  0
    7.0277   10.1098    2.1639 O   0  0  0  0  0  0  0  0  0  0  0  0
    8.5851    8.7841    3.4242 C   0  0  0  0  0  0  0  0  0  0  0  0
    8.9234    7.9035    2.2228 C   0  0  0  0  0  0  0  0  0  0  0  0
   10.1912    7.0950    2.4605 C   0  0  0  0  0  0  0  0  0  0  0  0
   11.3790    7.8772    3.0822 C   0  0  0  0  0  0  0  0  0  0  0  0
   12.7310    7.9263    2.3431 C   0  0  0  0  0  0  0  0  0  0  0  0
   13.9788    8.2927    3.1464 C   0  0  0  0  0  0  0  0  0  0  0  0
   12.6577    8.7068    1.1003 N   0  0  0  0  0  0  0  0  0  0  0  0
   11.0470    9.1834    3.8669 C   0  0  0  0  0  0  0  0  0  0  0  0
    9.6856    9.8245    3.6038 C   0  0  0  0  0  0  0  0  0  0  0  0
  1  2  1  0
  2  3  1  0
  3  4  1  0
  4  5  2  0
  4  6  1  0
  6  7  1  0
  7  8  1  0
  8  9  1  0
  9 10  1  0
 10 11  1  0
 10 12  1  0
  9 13  1  0
 13 14  1  0
 14  6  1  0
M  CHG  1  12   1
M  END
>  <EmbedRMS>  (48) 
0.22880006867790334

>  <Gold.Version>  (48) 
2020.3.0

>  <Gold.Id.Protein>  (48) 
unknown|1q8t_protein|pdb

>  <Gold.PLP.Fitness>  (48) 
33.9824

>  <Gold.PLP.PLP>  (48) 
-28.3027

>  <Gold.PLP.part.hbond>  (48) 
-1.0000

>  <Gold.PLP.part.metal>  (48) 
0.0000

>  <Gold.PLP.part.buried>  (48) 
-0.5518

>  <Gold.PLP.part.nonpolar>  (48) 
-26.6537

>  <Gold.PLP.part.repulsive>  (48) 
0.0000

>  <Gold.PLP.ligand.clash>  (48) 
0.0000

>  <Gold.PLP.ligand.torsion>  (48) 
0.3541

>  <Gold.PLP.Chemscore.Hbond>  (48) 
2.0000

>  <Gold.PLP.Chemscore.CHOScore>  (48) 
0.0000

>  <Gold.PLP.Chemscore.Metal>  (48) 
0.0000

>  <Gold.Chemscore.Hbonds>  (48) 
donor molecule, donor type, donor heavy atom, donor atom, acceptor molecule, acceptor atom, score
      L1  H    12    32       P1  2902  2.00

>  <Gold.PLP.Chemscore.Internal.Correction>  (48) 
0.3878

>  <Gold.PLP.Constraint>  (48) 
-0.0000

>  <Gold.Protein.RotatedTorsions>  (48) 
[  681  677  676  673 ] final  -92.69 input -179.99 | X-H torsion
[  702  698  697  694 ] final  125.72 input  179.99 | X-H torsion
[ 2577 2569 2568 2566 ] final   29.81 input   -0.13 | X-H torsion
[ 2891 2887 2886 2883 ] final  -57.46 input  179.98 | X-H torsion
[ 3175 3171 3170 3167 ] final  144.47 input -179.99 | X-H torsion
[ 5278 5270 5269 5267 ] final  151.87 input    0.55 | X-H torsion
[  641  637  636  633 ] final -155.09 input  179.99 | X-H torsion
[ 1886 1878 1877 1875 ] final  -73.35 input    1.60 | X-H torsion
[  965  957  956  954 ] final -120.54 input    0.45 | X-H torsion

>  <Gold.Protein.ActiveResidues>  (48) 
 LYS47   THR48   LEU49   GLY50   THR51   GLY52   SER53   PHE54   GLY55   ARG56  
 VAL57   MET58   LEU59   TYR69   ALA70   MET71   LYS72   ILE73   LEU74   GLU91  
 LEU95   VAL104  LYS105  MET118  VAL119  MET120  GLU121  TYR122  VAL123  PRO124 
 GLY125  GLY126  GLU127  MET128  PHE129  TYR164  ASP166  LEU167  LYS168  PRO169 
 GLU170  ASN171  LEU172  LEU173  ILE174  GLN181  VAL182  THR183  ASP184  PHE185 
 GLY186  PHE187  GLY200  THR201  ASN326  PHE327  TYR330  ARG18   ARG19   ASN20  
 ALA21   ILE22   HIS23  

>  <Gold.Protein.RotatedAtoms>  (48) 
   11.3302   19.2004    7.8719 H   0  0  0  0  0  0  0  0  0  0  0  0  # atno 641  bound_to 637 
   15.8631   13.5552    7.3695 H   0  0  0  0  0  0  0  0  0  0  0  0  # atno 681  bound_to 677 
   20.2696   11.7149   -2.0304 H   0  0  0  0  0  0  0  0  0  0  0  0  # atno 702  bound_to 698 
   -6.5393   16.9045   -1.3647 H   0  0  0  0  0  0  0  0  0  0  0  0  # atno 965  bound_to 957 
    1.5109   10.5543   10.5043 H   0  0  0  0  0  0  0  0  0  0  0  0  # atno 1886 bound_to 1878
    9.4227    3.0027   -3.2099 H   0  0  0  0  0  0  0  0  0  0  0  0  # atno 2577 bound_to 2569
    7.5140    5.2016    0.9620 H   0  0  0  0  0  0  0  0  0  0  0  0  # atno 2891 bound_to 2887
   17.9376    1.9933   -0.2651 H   0  0  0  0  0  0  0  0  0  0  0  0  # atno 3175 bound_to 3171
   14.1857   10.1783    9.0227 H   0  0  0  0  0  0  0  0  0  0  0  0  # atno 5278 bound_to 5270
   17.2766   13.6844    6.6475 LP  0  0  0  0  0  0  0  0  0  0  0  0  # atno 5914 bound_to 677 
   16.2012   12.5459    6.1850 LP  0  0  0  0  0  0  0  0  0  0  0  0  # atno 5915 bound_to 677 
   19.4072   11.8252   -0.6957 LP  0  0  0  0  0  0  0  0  0  0  0  0  # atno 5920 bound_to 698 
   21.0137   11.5392   -0.6330 LP  0  0  0  0  0  0  0  0  0  0  0  0  # atno 5921 bound_to 698 
   11.0105    3.0330   -3.0942 LP  0  0  0  0  0  0  0  0  0  0  0  0  # atno 5950 bound_to 2569
   10.1387    1.8697   -2.3503 LP  0  0  0  0  0  0  0  0  0  0  0  0  # atno 5951 bound_to 2569
    7.3850    6.6968    1.4951 LP  0  0  0  0  0  0  0  0  0  0  0  0  # atno 5982 bound_to 2887
    8.3817    6.3337    0.2536 LP  0  0  0  0  0  0  0  0  0  0  0  0  # atno 5983 bound_to 2887
   18.8692    2.5527   -1.4291 LP  0  0  0  0  0  0  0  0  0  0  0  0  # atno 6000 bound_to 3171
   19.1413    2.9583    0.1291 LP  0  0  0  0  0  0  0  0  0  0  0  0  # atno 6001 bound_to 3171
   12.6289   10.0666    9.3401 LP  0  0  0  0  0  0  0  0  0  0  0  0  # atno 6004 bound_to 5270
   13.7421    9.7914   10.5027 LP  0  0  0  0  0  0  0  0  0  0  0  0  # atno 6005 bound_to 5270
   10.2345   19.7881    8.8664 LP  0  0  0  0  0  0  0  0  0  0  0  0  # atno 6055 bound_to 637 
    9.7973   19.0920    7.4554 LP  0  0  0  0  0  0  0  0  0  0  0  0  # atno 6056 bound_to 637 
    0.6520   11.7524   11.1062 LP  0  0  0  0  0  0  0  0  0  0  0  0  # atno 6063 bound_to 1878
    2.1428   12.0158   10.4939 LP  0  0  0  0  0  0  0  0  0  0  0  0  # atno 6064 bound_to 1878
   -7.1961   16.5089    0.0307 LP  0  0  0  0  0  0  0  0  0  0  0  0  # atno 6067 bound_to 957 
   -6.7248   15.3593   -1.0289 LP  0  0  0  0  0  0  0  0  0  0  0  0  # atno 6068 bound_to 957 

>  <STRIFE_LigEff_Score>  (48) 
2.4273142857142855

$$$$
unknown|pharmsElabsTestMulti|sdf|49|dock6
     RDKit          3D

 20 21  0  0  0  0  0  0  0  0999 V2000
   15.4341    7.3315    2.9071 C   0  0  0  0  0  0  0  0  0  0  0  0
   14.4645    7.7105    1.7749 C   0  0  0  0  0  0  0  0  0  0  0  0
   14.6699    6.8310    0.6202 N   0  0  0  0  0  0  0  0  0  0  0  0
   12.9496    7.8426    2.1695 C   0  0  0  0  0  0  0  0  0  0  0  0
   11.9833    7.2986    1.1184 C   0  0  0  0  0  0  0  0  0  0  0  0
   10.5114    7.3716    1.4939 C   0  0  0  0  0  0  0  0  0  0  0  0
   10.1381    8.6663    2.1749 C   0  0  0  0  0  0  0  0  0  0  0  0
    8.6581    8.8826    2.2967 C   0  0  0  0  0  0  0  0  0  0  0  0
    8.0747    8.0988    3.0832 O   0  0  0  0  0  0  0  0  0  0  0  0
    7.8866    9.8795    1.6061 N   0  0  0  0  0  0  0  0  0  0  0  0
    6.4186    9.8732    1.6995 C   0  0  0  0  0  0  0  0  0  0  0  0
    5.9845    9.9775    3.1404 C   0  0  0  0  0  0  0  0  0  0  0  0
    6.8658   10.4285    4.1402 C   0  0  0  0  0  0  0  0  0  0  0  0
    6.4546   10.4644    5.4776 C   0  0  0  0  0  0  0  0  0  0  0  0
    5.1641   10.0547    5.8250 C   0  0  0  0  0  0  0  0  0  0  0  0
    4.2813    9.6062    4.8368 C   0  0  0  0  0  0  0  0  0  0  0  0
    2.9971    9.2008    5.1903 O   0  0  0  0  0  0  0  0  0  0  0  0
    4.6940    9.5643    3.4995 C   0  0  0  0  0  0  0  0  0  0  0  0
   11.0175    9.1293    3.3147 C   0  0  0  0  0  0  0  0  0  0  0  0
   12.5052    9.1082    2.9291 C   0  0  0  0  0  0  0  0  0  0  0  0
  1  2  1  0
  2  3  1  0
  2  4  1  0
  4  5  1  0
  5  6  1  0
  6  7  1  0
  7  8  1  0
  8  9  2  0
  8 10  1  0
 10 11  1  0
 11 12  1  0
 12 13  2  0
 13 14  1  0
 14 15  2  0
 15 16  1  0
 16 17  1  0
 16 18  2  0
  7 19  1  0
 19 20  1  0
 20  4  1  0
 18 12  1  0
M  CHG  1   3   1
M  END
>  <EmbedRMS>  (49) 
0.24874902131530774

>  <Gold.Version>  (49) 
2020.3.0

>  <Gold.Id.Protein>  (49) 
unknown|1q8t_protein|pdb

>  <Gold.PLP.Fitness>  (49) 
52.0359

>  <Gold.PLP.PLP>  (49) 
-40.3655

>  <Gold.PLP.part.hbond>  (49) 
-4.8059

>  <Gold.PLP.part.metal>  (49) 
0.0000

>  <Gold.PLP.part.buried>  (49) 
3.2003

>  <Gold.PLP.part.nonpolar>  (49) 
-40.4250

>  <Gold.PLP.part.repulsive>  (49) 
0.1230

>  <Gold.PLP.ligand.clash>  (49) 
0.0000

>  <Gold.PLP.ligand.torsion>  (49) 
1.3293

>  <Gold.PLP.Chemscore.Hbond>  (49) 
4.5104

>  <Gold.PLP.Chemscore.CHOScore>  (49) 
0.0000

>  <Gold.PLP.Chemscore.Metal>  (49) 
0.0000

>  <Gold.Chemscore.Hbonds>  (49) 
donor molecule, donor type, donor heavy atom, donor atom, acceptor molecule, acceptor atom, score
      L1  H     3    25       P1  2902  2.00
      L1  H     3    26       P1  2691  1.00
      L1  H    17    40       P1  1891  1.00
      P1  H  1888  1903       L1    17  0.51

>  <Gold.PLP.Chemscore.Internal.Correction>  (49) 
0.7978

>  <Gold.PLP.Constraint>  (49) 
-0.0000

>  <Gold.Protein.RotatedTorsions>  (49) 
[  681  677  676  673 ] final  -76.90 input -179.99 | X-H torsion
[  702  698  697  694 ] final   18.10 input  179.99 | X-H torsion
[ 2577 2569 2568 2566 ] final -145.09 input   -0.13 | X-H torsion
[ 2891 2887 2886 2883 ] final    2.84 input  179.98 | X-H torsion
[ 3175 3171 3170 3167 ] final -178.38 input -179.99 | X-H torsion
[ 5278 5270 5269 5267 ] final -162.31 input    0.55 | X-H torsion
[  641  637  636  633 ] final   73.52 input  179.99 | X-H torsion
[ 1886 1878 1877 1875 ] final -117.32 input    1.60 | X-H torsion
[  965  957  956  954 ] final   63.70 input    0.45 | X-H torsion

>  <Gold.Protein.ActiveResidues>  (49) 
 LYS47   THR48   LEU49   GLY50   THR51   GLY52   SER53   PHE54   GLY55   ARG56  
 VAL57   MET58   LEU59   TYR69   ALA70   MET71   LYS72   ILE73   LEU74   GLU91  
 LEU95   VAL104  LYS105  MET118  VAL119  MET120  GLU121  TYR122  VAL123  PRO124 
 GLY125  GLY126  GLU127  MET128  PHE129  TYR164  ASP166  LEU167  LYS168  PRO169 
 GLU170  ASN171  LEU172  LEU173  ILE174  GLN181  VAL182  THR183  ASP184  PHE185 
 GLY186  PHE187  GLY200  THR201  ASN326  PHE327  TYR330  ARG18   ARG19   ASN20  
 ALA21   ILE22   HIS23  

>  <Gold.Protein.RotatedAtoms>  (49) 
   10.0790   19.7315    8.7749 H   0  0  0  0  0  0  0  0  0  0  0  0  # atno 641  bound_to 637 
   15.7240   13.3746    7.2766 H   0  0  0  0  0  0  0  0  0  0  0  0  # atno 681  bound_to 677 
   19.3812   11.8505   -0.8967 H   0  0  0  0  0  0  0  0  0  0  0  0  # atno 702  bound_to 698 
   -7.0900   15.6813   -0.1804 H   0  0  0  0  0  0  0  0  0  0  0  0  # atno 965  bound_to 957 
    0.9212   10.6987   10.7889 H   0  0  0  0  0  0  0  0  0  0  0  0  # atno 1886 bound_to 1878
   10.9727    2.3260   -2.6264 H   0  0  0  0  0  0  0  0  0  0  0  0  # atno 2577 bound_to 2569
    8.1071    5.4637    0.3378 H   0  0  0  0  0  0  0  0  0  0  0  0  # atno 2891 bound_to 2887
   18.1712    2.2272    0.2002 H   0  0  0  0  0  0  0  0  0  0  0  0  # atno 3175 bound_to 3171
   14.4251   10.0237    9.6594 H   0  0  0  0  0  0  0  0  0  0  0  0  # atno 5278 bound_to 5270
   17.1882   13.8277    6.8444 LP  0  0  0  0  0  0  0  0  0  0  0  0  # atno 5914 bound_to 677 
   16.4360   12.5927    6.0859 LP  0  0  0  0  0  0  0  0  0  0  0  0  # atno 5915 bound_to 677 
   20.8889   11.5582   -0.4737 LP  0  0  0  0  0  0  0  0  0  0  0  0  # atno 5920 bound_to 698 
   20.4665   11.6635   -2.0476 LP  0  0  0  0  0  0  0  0  0  0  0  0  # atno 5921 bound_to 698 
    9.3856    2.1985   -2.6338 LP  0  0  0  0  0  0  0  0  0  0  0  0  # atno 5950 bound_to 2569
   10.1315    3.4167   -3.4251 LP  0  0  0  0  0  0  0  0  0  0  0  0  # atno 5951 bound_to 2569
    7.1392    5.7846    1.5613 LP  0  0  0  0  0  0  0  0  0  0  0  0  # atno 5982 bound_to 2887
    8.0034    6.9701    0.8442 LP  0  0  0  0  0  0  0  0  0  0  0  0  # atno 5983 bound_to 2887
   18.3850    2.2008   -1.3775 LP  0  0  0  0  0  0  0  0  0  0  0  0  # atno 6000 bound_to 3171
   19.3797    3.0640   -0.4121 LP  0  0  0  0  0  0  0  0  0  0  0  0  # atno 6001 bound_to 3171
   13.1000   10.2060    8.7947 LP  0  0  0  0  0  0  0  0  0  0  0  0  # atno 6004 bound_to 5270
   13.0191    9.8146   10.3780 LP  0  0  0  0  0  0  0  0  0  0  0  0  # atno 6005 bound_to 5270
    9.9409   19.0311    7.3518 LP  0  0  0  0  0  0  0  0  0  0  0  0  # atno 6055 bound_to 637 
   11.4087   19.2897    8.0190 LP  0  0  0  0  0  0  0  0  0  0  0  0  # atno 6056 bound_to 637 
    1.1215   12.2659   10.9869 LP  0  0  0  0  0  0  0  0  0  0  0  0  # atno 6063 bound_to 1878
    2.2941   11.3503   10.3137 LP  0  0  0  0  0  0  0  0  0  0  0  0  # atno 6064 bound_to 1878
   -6.4534   15.9621   -1.6126 LP  0  0  0  0  0  0  0  0  0  0  0  0  # atno 6067 bound_to 957 
   -6.8875   17.1944   -0.6330 LP  0  0  0  0  0  0  0  0  0  0  0  0  # atno 6068 bound_to 957 

>  <STRIFE_LigEff_Score>  (49) 
2.601795

$$$$
unknown|pharmsElabsTestMulti|sdf|50|dock5
     RDKit          3D

 17 17  0  0  0  0  0  0  0  0999 V2000
    3.9154    9.8026    5.5980 C   0  0  0  0  0  0  0  0  0  0  0  0
    4.1965    9.4928    4.2030 N   0  0  0  0  0  0  0  0  0  0  0  0
    5.5133    9.1485    3.7585 C   0  0  0  0  0  0  0  0  0  0  0  0
    6.4723    9.1027    4.5757 O   0  0  0  0  0  0  0  0  0  0  0  0
    5.7613    8.8506    2.3167 C   0  0  0  0  0  0  0  0  0  0  0  0
    7.1385    8.3932    2.0778 N   0  0  0  0  0  0  0  0  0  0  0  0
    8.2201    9.2624    2.4546 C   0  0  0  0  0  0  0  0  0  0  0  0
    7.9518   10.4046    2.9045 O   0  0  0  0  0  0  0  0  0  0  0  0
    9.6820    8.9304    2.3909 C   0  0  0  0  0  0  0  0  0  0  0  0
   10.0283    7.4769    2.7249 C   0  0  0  0  0  0  0  0  0  0  0  0
   11.5403    7.1909    2.8326 C   0  0  0  0  0  0  0  0  0  0  0  0
   12.3558    8.1956    2.0035 C   0  0  0  0  0  0  0  0  0  0  0  0
   13.8452    7.8468    1.6967 C   0  0  0  0  0  0  0  0  0  0  0  0
   14.7954    9.0126    1.4809 C   0  0  0  0  0  0  0  0  0  0  0  0
   14.1018    6.6842    0.8534 N   0  0  0  0  0  0  0  0  0  0  0  0
   12.1544    9.6168    2.5681 C   0  0  0  0  0  0  0  0  0  0  0  0
   10.6751   10.0454    2.6765 C   0  0  0  0  0  0  0  0  0  0  0  0
  1  2  1  0
  2  3  1  0
  3  4  2  0
  3  5  1  0
  5  6  1  0
  6  7  1  0
  7  8  2  0
  7  9  1  0
  9 10  1  0
 10 11  1  0
 11 12  1  0
 12 13  1  0
 13 14  1  0
 13 15  1  0
 12 16  1  0
 16 17  1  0
 17  9  1  0
M  CHG  1  15   1
M  END
>  <EmbedRMS>  (50) 
0.2569057114362328

>  <Gold.Version>  (50) 
2020.3.0

>  <Gold.Id.Protein>  (50) 
unknown|1q8t_protein|pdb

>  <Gold.PLP.Fitness>  (50) 
41.6843

>  <Gold.PLP.PLP>  (50) 
-30.5528

>  <Gold.PLP.part.hbond>  (50) 
-2.8303

>  <Gold.PLP.part.metal>  (50) 
0.0000

>  <Gold.PLP.part.buried>  (50) 
-1.7273

>  <Gold.PLP.part.nonpolar>  (50) 
-27.1353

>  <Gold.PLP.part.repulsive>  (50) 
0.1614

>  <Gold.PLP.ligand.clash>  (50) 
0.0000

>  <Gold.PLP.ligand.torsion>  (50) 
0.9169

>  <Gold.PLP.Chemscore.Hbond>  (50) 
3.9833

>  <Gold.PLP.Chemscore.CHOScore>  (50) 
0.0000

>  <Gold.PLP.Chemscore.Metal>  (50) 
0.0000

>  <Gold.Chemscore.Hbonds>  (50) 
donor molecule, donor type, donor heavy atom, donor atom, acceptor molecule, acceptor atom, score
      L1  H     6    24       P1  2887  1.00
      L1  H    15    36       P1  2691  0.98
      L1  H    15    37       P1  2902  2.00

>  <Gold.PLP.Chemscore.Internal.Correction>  (50) 
1.0153

>  <Gold.PLP.Constraint>  (50) 
-0.0000

>  <Gold.Protein.RotatedTorsions>  (50) 
[  681  677  676  673 ] final  117.26 input -179.99 | X-H torsion
[  702  698  697  694 ] final  -60.61 input  179.99 | X-H torsion
[ 2577 2569 2568 2566 ] final  172.59 input   -0.13 | X-H torsion
[ 2891 2887 2886 2883 ] final  -58.76 input  179.98 | X-H torsion
[ 3175 3171 3170 3167 ] final  -37.15 input -179.99 | X-H torsion
[ 5278 5270 5269 5267 ] final  -84.46 input    0.55 | X-H torsion
[  641  637  636  633 ] final  -14.03 input  179.99 | X-H torsion
[ 1886 1878 1877 1875 ] final   39.13 input    1.60 | X-H torsion
[  965  957  956  954 ] final   19.39 input    0.45 | X-H torsion

>  <Gold.Protein.ActiveResidues>  (50) 
 LYS47   THR48   LEU49   GLY50   THR51   GLY52   SER53   PHE54   GLY55   ARG56  
 VAL57   MET58   LEU59   TYR69   ALA70   MET71   LYS72   ILE73   LEU74   GLU91  
 LEU95   VAL104  LYS105  MET118  VAL119  MET120  GLU121  TYR122  VAL123  PRO124 
 GLY125  GLY126  GLU127  MET128  PHE129  TYR164  ASP166  LEU167  LYS168  PRO169 
 GLU170  ASN171  LEU172  LEU173  ILE174  GLN181  VAL182  THR183  ASP184  PHE185 
 GLY186  PHE187  GLY200  THR201  ASN326  PHE327  TYR330  ARG18   ARG19   ASN20  
 ALA21   ILE22   HIS23  

>  <Gold.Protein.RotatedAtoms>  (50) 
    9.6481   19.2224    7.7309 H   0  0  0  0  0  0  0  0  0  0  0  0  # atno 641  bound_to 637 
   17.2205   13.3420    6.3172 H   0  0  0  0  0  0  0  0  0  0  0  0  # atno 681  bound_to 677 
   20.2934   11.6761   -0.2413 H   0  0  0  0  0  0  0  0  0  0  0  0  # atno 702  bound_to 698 
   -6.8428   15.3764   -0.7300 H   0  0  0  0  0  0  0  0  0  0  0  0  # atno 965  bound_to 957 
    2.1573   11.8944   10.4479 H   0  0  0  0  0  0  0  0  0  0  0  0  # atno 1886 bound_to 1878
   10.4903    1.9568   -2.4054 H   0  0  0  0  0  0  0  0  0  0  0  0  # atno 2577 bound_to 2569
    7.5017    5.2063    0.9774 H   0  0  0  0  0  0  0  0  0  0  0  0  # atno 2891 bound_to 2887
   19.3542    2.9799   -0.7429 H   0  0  0  0  0  0  0  0  0  0  0  0  # atno 3175 bound_to 3171
   13.6753    9.8152   10.4730 H   0  0  0  0  0  0  0  0  0  0  0  0  # atno 5278 bound_to 5270
   15.8178   12.6061    6.4822 LP  0  0  0  0  0  0  0  0  0  0  0  0  # atno 5914 bound_to 677 
   16.2313   13.8486    7.4579 LP  0  0  0  0  0  0  0  0  0  0  0  0  # atno 5915 bound_to 677 
   21.0000   11.5615   -1.6643 LP  0  0  0  0  0  0  0  0  0  0  0  0  # atno 5920 bound_to 698 
   19.3959   11.8436   -1.5466 LP  0  0  0  0  0  0  0  0  0  0  0  0  # atno 5921 bound_to 698 
    9.2489    2.7414   -3.0208 LP  0  0  0  0  0  0  0  0  0  0  0  0  # atno 5950 bound_to 2569
   10.7762    3.2625   -3.2707 LP  0  0  0  0  0  0  0  0  0  0  0  0  # atno 5951 bound_to 2569
    7.3964    6.7121    1.4855 LP  0  0  0  0  0  0  0  0  0  0  0  0  # atno 5982 bound_to 2887
    8.3833    6.3135    0.2469 LP  0  0  0  0  0  0  0  0  0  0  0  0  # atno 5983 bound_to 2887
   18.3778    2.4265    0.3867 LP  0  0  0  0  0  0  0  0  0  0  0  0  # atno 6000 bound_to 3171
   18.1420    2.0462   -1.1838 LP  0  0  0  0  0  0  0  0  0  0  0  0  # atno 6001 bound_to 3171
   14.2597   10.1596    9.0320 LP  0  0  0  0  0  0  0  0  0  0  0  0  # atno 6004 bound_to 5270
   12.6484   10.0804    9.2847 LP  0  0  0  0  0  0  0  0  0  0  0  0  # atno 6005 bound_to 5270
   11.2255   19.0733    7.5751 LP  0  0  0  0  0  0  0  0  0  0  0  0  # atno 6055 bound_to 637 
   10.5779   19.7836    8.8952 LP  0  0  0  0  0  0  0  0  0  0  0  0  # atno 6056 bound_to 637 
    1.4085   10.4936   10.5580 LP  0  0  0  0  0  0  0  0  0  0  0  0  # atno 6063 bound_to 1878
    0.7058   11.8638   11.1015 LP  0  0  0  0  0  0  0  0  0  0  0  0  # atno 6064 bound_to 1878
   -6.4641   16.6721   -1.5743 LP  0  0  0  0  0  0  0  0  0  0  0  0  # atno 6067 bound_to 957 
   -7.1372   16.8054   -0.0925 LP  0  0  0  0  0  0  0  0  0  0  0  0  # atno 6068 bound_to 957 

>  <STRIFE_LigEff_Score>  (50) 
2.4520176470588235

$$$$
unknown|pharmsElabsTestMulti|sdf|51|dock10
     RDKit          3D

 20 21  0  0  0  0  0  0  0  0999 V2000
   14.8160    7.1462    3.3533 C   0  0  0  0  0  0  0  0  0  0  0  0
   13.8424    6.9728    2.2001 C   0  0  0  0  0  0  0  0  0  0  0  0
   14.4268    7.0957    0.8707 N   0  0  0  0  0  0  0  0  0  0  0  0
   12.4074    7.5415    2.4036 C   0  0  0  0  0  0  0  0  0  0  0  0
   11.2124    6.7291    1.8729 C   0  0  0  0  0  0  0  0  0  0  0  0
   10.0071    7.6779    1.7534 C   0  0  0  0  0  0  0  0  0  0  0  0
    9.6689    8.3085    3.1180 C   0  0  0  0  0  0  0  0  0  0  0  0
    8.5310    9.2838    2.9904 C   0  0  0  0  0  0  0  0  0  0  0  0
    8.0417    9.8380    4.0154 O   0  0  0  0  0  0  0  0  0  0  0  0
    7.9968    9.5620    1.6910 N   0  0  0  0  0  0  0  0  0  0  0  0
    6.8700   10.4600    1.4775 C   0  0  0  0  0  0  0  0  0  0  0  0
    5.6422    9.9059    2.1369 C   0  0  0  0  0  0  0  0  0  0  0  0
    4.7444    9.1110    1.4085 C   0  0  0  0  0  0  0  0  0  0  0  0
    3.5962    8.6059    2.0231 C   0  0  0  0  0  0  0  0  0  0  0  0
    3.3340    8.8958    3.3646 C   0  0  0  0  0  0  0  0  0  0  0  0
    4.2190    9.6962    4.0943 C   0  0  0  0  0  0  0  0  0  0  0  0
    3.8872   10.0615    5.7767 Cl  0  0  0  0  0  0  0  0  0  0  0  0
    5.3690   10.2048    3.4814 C   0  0  0  0  0  0  0  0  0  0  0  0
   10.8843    8.9837    3.7824 C   0  0  0  0  0  0  0  0  0  0  0  0
   12.0993    8.0453    3.8247 C   0  0  0  0  0  0  0  0  0  0  0  0
  1  2  1  0
  2  3  1  0
  2  4  1  0
  4  5  1  0
  5  6  1  0
  6  7  1  0
  7  8  1  0
  8  9  2  0
  8 10  1  0
 10 11  1  0
 11 12  1  0
 12 13  2  0
 13 14  1  0
 14 15  2  0
 15 16  1  0
 16 17  1  0
 16 18  2  0
  7 19  1  0
 19 20  1  0
 20  4  1  0
 18 12  1  0
M  CHG  1   3   1
M  END
>  <EmbedRMS>  (51) 
0.1730785370746659

>  <Gold.Version>  (51) 
2020.3.0

>  <Gold.Id.Protein>  (51) 
unknown|1q8t_protein|pdb

>  <Gold.PLP.Fitness>  (51) 
53.3785

>  <Gold.PLP.PLP>  (51) 
-49.5440

>  <Gold.PLP.part.hbond>  (51) 
-2.0000

>  <Gold.PLP.part.metal>  (51) 
0.0000

>  <Gold.PLP.part.buried>  (51) 
2.9927

>  <Gold.PLP.part.nonpolar>  (51) 
-51.1034

>  <Gold.PLP.part.repulsive>  (51) 
0.0953

>  <Gold.PLP.ligand.clash>  (51) 
0.0000

>  <Gold.PLP.ligand.torsion>  (51) 
1.2859

>  <Gold.PLP.Chemscore.Hbond>  (51) 
2.0000

>  <Gold.PLP.Chemscore.CHOScore>  (51) 
0.0000

>  <Gold.PLP.Chemscore.Metal>  (51) 
0.0000

>  <Gold.Chemscore.Hbonds>  (51) 
donor molecule, donor type, donor heavy atom, donor atom, acceptor molecule, acceptor atom, score
      L1  H     3    26       P1  2902  2.00

>  <Gold.PLP.Chemscore.Internal.Correction>  (51) 
0.4061

>  <Gold.PLP.Constraint>  (51) 
-0.0000

>  <Gold.Protein.RotatedTorsions>  (51) 
[  681  677  676  673 ] final    2.12 input -179.99 | X-H torsion
[  702  698  697  694 ] final  159.65 input  179.99 | X-H torsion
[ 2577 2569 2568 2566 ] final   64.42 input   -0.13 | X-H torsion
[ 2891 2887 2886 2883 ] final  -27.89 input  179.98 | X-H torsion
[ 3175 3171 3170 3167 ] final   20.49 input -179.99 | X-H torsion
[ 5278 5270 5269 5267 ] final   -4.96 input    0.55 | X-H torsion
[  641  637  636  633 ] final   65.35 input  179.99 | X-H torsion
[ 1886 1878 1877 1875 ] final  -48.18 input    1.60 | X-H torsion
[  965  957  956  954 ] final    7.14 input    0.45 | X-H torsion

>  <Gold.Protein.ActiveResidues>  (51) 
 LYS47   THR48   LEU49   GLY50   THR51   GLY52   SER53   PHE54   GLY55   ARG56  
 VAL57   MET58   LEU59   TYR69   ALA70   MET71   LYS72   ILE73   LEU74   GLU91  
 LEU95   VAL104  LYS105  MET118  VAL119  MET120  GLU121  TYR122  VAL123  PRO124 
 GLY125  GLY126  GLU127  MET128  PHE129  TYR164  ASP166  LEU167  LYS168  PRO169 
 GLU170  ASN171  LEU172  LEU173  ILE174  GLN181  VAL182  THR183  ASP184  PHE185 
 GLY186  PHE187  GLY200  THR201  ASN326  PHE327  TYR330  ARG18   ARG19   ASN20  
 ALA21   ILE22   HIS23  

>  <Gold.Protein.RotatedAtoms>  (51) 
    9.9685   19.7074    8.7157 H   0  0  0  0  0  0  0  0  0  0  0  0  # atno 641  bound_to 637 
   15.8925   12.6280    6.4320 H   0  0  0  0  0  0  0  0  0  0  0  0  # atno 681  bound_to 677 
   20.7554   11.6255   -1.8588 H   0  0  0  0  0  0  0  0  0  0  0  0  # atno 702  bound_to 698 
   -6.7637   15.3812   -0.9037 H   0  0  0  0  0  0  0  0  0  0  0  0  # atno 965  bound_to 957 
    1.8511   10.6986   10.3789 H   0  0  0  0  0  0  0  0  0  0  0  0  # atno 1886 bound_to 1878
    9.2849    2.5753   -2.9232 H   0  0  0  0  0  0  0  0  0  0  0  0  # atno 2577 bound_to 2569
    7.8143    5.2156    0.6175 H   0  0  0  0  0  0  0  0  0  0  0  0  # atno 2891 bound_to 2887
   18.9149    2.5731   -1.3651 H   0  0  0  0  0  0  0  0  0  0  0  0  # atno 3175 bound_to 3171
   12.6873    9.9445    9.9070 H   0  0  0  0  0  0  0  0  0  0  0  0  # atno 5278 bound_to 5270
   16.1611   13.8108    7.4639 LP  0  0  0  0  0  0  0  0  0  0  0  0  # atno 5914 bound_to 677 
   17.2858   13.3954    6.3553 LP  0  0  0  0  0  0  0  0  0  0  0  0  # atno 5915 bound_to 677 
   19.3071   11.8533   -1.2360 LP  0  0  0  0  0  0  0  0  0  0  0  0  # atno 5920 bound_to 698 
   20.6026   11.6051   -0.2733 LP  0  0  0  0  0  0  0  0  0  0  0  0  # atno 5921 bound_to 698 
   10.6147    3.3453   -3.3401 LP  0  0  0  0  0  0  0  0  0  0  0  0  # atno 5950 bound_to 2569
   10.6796    2.0073   -2.4062 LP  0  0  0  0  0  0  0  0  0  0  0  0  # atno 5951 bound_to 2569
    7.1867    6.2779    1.6244 LP  0  0  0  0  0  0  0  0  0  0  0  0  # atno 5982 bound_to 2887
    8.2640    6.7378    0.4867 LP  0  0  0  0  0  0  0  0  0  0  0  0  # atno 5983 bound_to 2887
   19.1010    2.9344    0.1745 LP  0  0  0  0  0  0  0  0  0  0  0  0  # atno 6000 bound_to 3171
   17.8811    1.9664   -0.3169 LP  0  0  0  0  0  0  0  0  0  0  0  0  # atno 6001 bound_to 3171
   14.2506    9.8708   10.2026 LP  0  0  0  0  0  0  0  0  0  0  0  0  # atno 6004 bound_to 5270
   13.6971   10.2332    8.7096 LP  0  0  0  0  0  0  0  0  0  0  0  0  # atno 6005 bound_to 5270
   10.0571   18.9953    7.2945 LP  0  0  0  0  0  0  0  0  0  0  0  0  # atno 6055 bound_to 637 
   11.4089   19.3509    8.1387 LP  0  0  0  0  0  0  0  0  0  0  0  0  # atno 6056 bound_to 637 
    0.5743   11.3504   11.0720 LP  0  0  0  0  0  0  0  0  0  0  0  0  # atno 6063 bound_to 1878
    1.8624   12.2658   10.6602 LP  0  0  0  0  0  0  0  0  0  0  0  0  # atno 6064 bound_to 1878
   -6.5062   16.8437   -1.4782 LP  0  0  0  0  0  0  0  0  0  0  0  0  # atno 6067 bound_to 957 
   -7.1784   16.6288   -0.0056 LP  0  0  0  0  0  0  0  0  0  0  0  0  # atno 6068 bound_to 957 

>  <STRIFE_LigEff_Score>  (51) 
2.668925

$$$$
unknown|pharmsElabsTestMulti|sdf|52|dock10
     RDKit          3D

 15 15  0  0  0  0  0  0  0  0999 V2000
    3.7185    9.7708    5.0061 C   0  0  0  0  0  0  0  0  0  0  0  0
    5.1613    9.4678    4.6073 C   0  0  0  0  0  0  0  0  0  0  0  0
    6.1465   10.4004    5.3148 C   0  0  0  0  0  0  0  0  0  0  0  0
    7.5081    9.8911    5.2016 N   0  0  0  0  0  0  0  0  0  0  0  0
    8.1573    9.7411    3.9390 C   0  0  0  0  0  0  0  0  0  0  0  0
    7.5761   10.0971    2.8750 O   0  0  0  0  0  0  0  0  0  0  0  0
    9.5529    9.1835    3.9047 C   0  0  0  0  0  0  0  0  0  0  0  0
    9.6177    7.9190    3.0282 C   0  0  0  0  0  0  0  0  0  0  0  0
   11.0588    7.3881    2.9428 C   0  0  0  0  0  0  0  0  0  0  0  0
   11.9422    8.5025    2.3530 C   0  0  0  0  0  0  0  0  0  0  0  0
   13.3183    8.1133    1.7384 C   0  0  0  0  0  0  0  0  0  0  0  0
   14.2653    9.2539    1.4069 C   0  0  0  0  0  0  0  0  0  0  0  0
   13.3392    6.9967    0.8020 N   0  0  0  0  0  0  0  0  0  0  0  0
   11.9724    9.7021    3.3161 C   0  0  0  0  0  0  0  0  0  0  0  0
   10.5543   10.2700    3.4684 C   0  0  0  0  0  0  0  0  0  0  0  0
  1  2  1  0
  2  3  1  0
  3  4  1  0
  4  5  1  0
  5  6  2  0
  5  7  1  0
  7  8  1  0
  8  9  1  0
  9 10  1  0
 10 11  1  0
 11 12  1  0
 11 13  1  0
 10 14  1  0
 14 15  1  0
 15  7  1  0
M  CHG  1  13   1
M  END
>  <EmbedRMS>  (52) 
0.2000484947854372

>  <Gold.Version>  (52) 
2020.3.0

>  <Gold.Id.Protein>  (52) 
unknown|1q8t_protein|pdb

>  <Gold.PLP.Fitness>  (52) 
43.9656

>  <Gold.PLP.PLP>  (52) 
-36.0271

>  <Gold.PLP.part.hbond>  (52) 
-1.4248

>  <Gold.PLP.part.metal>  (52) 
0.0000

>  <Gold.PLP.part.buried>  (52) 
-4.3450

>  <Gold.PLP.part.nonpolar>  (52) 
-30.1232

>  <Gold.PLP.part.repulsive>  (52) 
0.0625

>  <Gold.PLP.ligand.clash>  (52) 
0.0000

>  <Gold.PLP.ligand.torsion>  (52) 
0.3064

>  <Gold.PLP.Chemscore.Hbond>  (52) 
2.7210

>  <Gold.PLP.Chemscore.CHOScore>  (52) 
0.0000

>  <Gold.PLP.Chemscore.Metal>  (52) 
0.0000

>  <Gold.Chemscore.Hbonds>  (52) 
donor molecule, donor type, donor heavy atom, donor atom, acceptor molecule, acceptor atom, score
      L1  H    13    34       P1  2902  2.00
      L1  H    13    36       P1  2691  0.72

>  <Gold.PLP.Chemscore.Internal.Correction>  (52) 
0.3884

>  <Gold.PLP.Constraint>  (52) 
-0.0000

>  <Gold.Protein.RotatedTorsions>  (52) 
[  681  677  676  673 ] final   18.21 input -179.99 | X-H torsion
[  702  698  697  694 ] final  124.43 input  179.99 | X-H torsion
[ 2577 2569 2568 2566 ] final  179.87 input   -0.13 | X-H torsion
[ 2891 2887 2886 2883 ] final -148.11 input  179.98 | X-H torsion
[ 3175 3171 3170 3167 ] final -158.79 input -179.99 | X-H torsion
[ 5278 5270 5269 5267 ] final  141.20 input    0.55 | X-H torsion
[  641  637  636  633 ] final  178.26 input  179.99 | X-H torsion
[ 1886 1878 1877 1875 ] final -162.91 input    1.60 | X-H torsion
[  965  957  956  954 ] final   83.48 input    0.45 | X-H torsion

>  <Gold.Protein.ActiveResidues>  (52) 
 LYS47   THR48   LEU49   GLY50   THR51   GLY52   SER53   PHE54   GLY55   ARG56  
 VAL57   MET58   LEU59   TYR69   ALA70   MET71   LYS72   ILE73   LEU74   GLU91  
 LEU95   VAL104  LYS105  MET118  VAL119  MET120  GLU121  TYR122  VAL123  PRO124 
 GLY125  GLY126  GLU127  MET128  PHE129  TYR164  ASP166  LEU167  LYS168  PRO169 
 GLU170  ASN171  LEU172  LEU173  ILE174  GLN181  VAL182  THR183  ASP184  PHE185 
 GLY186  PHE187  GLY200  THR201  ASN326  PHE327  TYR330  ARG18   ARG19   ASN20  
 ALA21   ILE22   HIS23  

>  <Gold.Protein.RotatedAtoms>  (52) 
   11.3462   19.3873    8.2395 H   0  0  0  0  0  0  0  0  0  0  0  0  # atno 641  bound_to 637 
   16.0846   12.5901    6.2755 H   0  0  0  0  0  0  0  0  0  0  0  0  # atno 681  bound_to 677 
   20.2496   11.7184   -2.0310 H   0  0  0  0  0  0  0  0  0  0  0  0  # atno 702  bound_to 698 
   -7.1537   15.9447   -0.0348 H   0  0  0  0  0  0  0  0  0  0  0  0  # atno 965  bound_to 957 
    0.6152   11.2760   11.0223 H   0  0  0  0  0  0  0  0  0  0  0  0  # atno 1886 bound_to 1878
   10.5938    1.9985   -2.4267 H   0  0  0  0  0  0  0  0  0  0  0  0  # atno 2577 bound_to 2569
    7.2039    6.2730    1.5779 H   0  0  0  0  0  0  0  0  0  0  0  0  # atno 2891 bound_to 2887
   18.3814    2.4008    0.3363 H   0  0  0  0  0  0  0  0  0  0  0  0  # atno 3175 bound_to 3171
   14.0613   10.2036    8.9148 H   0  0  0  0  0  0  0  0  0  0  0  0  # atno 5278 bound_to 5270
   15.9456   13.6594    7.4474 LP  0  0  0  0  0  0  0  0  0  0  0  0  # atno 5914 bound_to 677 
   17.2991   13.5866    6.5367 LP  0  0  0  0  0  0  0  0  0  0  0  0  # atno 5915 bound_to 677 
   19.4171   11.8230   -0.6770 LP  0  0  0  0  0  0  0  0  0  0  0  0  # atno 5920 bound_to 698 
   21.0247   11.5376   -0.6512 LP  0  0  0  0  0  0  0  0  0  0  0  0  # atno 5921 bound_to 698 
    9.2366    2.6432   -2.9535 LP  0  0  0  0  0  0  0  0  0  0  0  0  # atno 5950 bound_to 2569
   10.6795    3.3168   -3.3155 LP  0  0  0  0  0  0  0  0  0  0  0  0  # atno 5951 bound_to 2569
    8.2655    6.7353    0.4844 LP  0  0  0  0  0  0  0  0  0  0  0  0  # atno 5982 bound_to 2887
    7.8277    5.1676    0.6160 LP  0  0  0  0  0  0  0  0  0  0  0  0  # atno 5983 bound_to 2887
   18.1587    2.0561   -1.2023 LP  0  0  0  0  0  0  0  0  0  0  0  0  # atno 6000 bound_to 3171
   19.3848    3.0260   -0.7305 LP  0  0  0  0  0  0  0  0  0  0  0  0  # atno 6001 bound_to 3171
   12.5934   10.0251    9.5066 LP  0  0  0  0  0  0  0  0  0  0  0  0  # atno 6004 bound_to 5270
   13.9086    9.8063   10.4496 LP  0  0  0  0  0  0  0  0  0  0  0  0  # atno 6005 bound_to 5270
    9.8505   19.7130    8.6773 LP  0  0  0  0  0  0  0  0  0  0  0  0  # atno 6055 bound_to 637 
   10.1645   18.9703    7.2573 LP  0  0  0  0  0  0  0  0  0  0  0  0  # atno 6056 bound_to 637 
    1.7912   12.2990   10.6972 LP  0  0  0  0  0  0  0  0  0  0  0  0  # atno 6063 bound_to 1878
    1.9465   10.7093   10.3577 LP  0  0  0  0  0  0  0  0  0  0  0  0  # atno 6064 bound_to 1878
   -6.5205   15.6785   -1.4712 LP  0  0  0  0  0  0  0  0  0  0  0  0  # atno 6067 bound_to 957 
   -6.7533   17.2006   -0.9277 LP  0  0  0  0  0  0  0  0  0  0  0  0  # atno 6068 bound_to 957 

>  <STRIFE_LigEff_Score>  (52) 
2.9310400000000003

$$$$
unknown|pharmsElabsTestMulti|sdf|53|dock3
     RDKit          3D

 17 17  0  0  0  0  0  0  0  0999 V2000
   14.7556    7.6299    3.4255 C   0  0  0  0  0  0  0  0  0  0  0  0
   13.7747    8.0465    2.3191 C   0  0  0  0  0  0  0  0  0  0  0  0
   13.8618    7.1130    1.1905 N   0  0  0  0  0  0  0  0  0  0  0  0
   12.2923    8.3035    2.7665 C   0  0  0  0  0  0  0  0  0  0  0  0
   11.2322    7.3814    2.1358 C   0  0  0  0  0  0  0  0  0  0  0  0
    9.8441    7.9839    2.0235 C   0  0  0  0  0  0  0  0  0  0  0  0
    9.4651    8.8140    3.2447 C   0  0  0  0  0  0  0  0  0  0  0  0
    8.0362    9.2777    3.1093 C   0  0  0  0  0  0  0  0  0  0  0  0
    7.5553   10.1021    3.9388 O   0  0  0  0  0  0  0  0  0  0  0  0
    7.2219    8.7685    2.0477 N   0  0  0  0  0  0  0  0  0  0  0  0
    5.8291    9.1654    1.8756 C   0  0  0  0  0  0  0  0  0  0  0  0
    5.0014    8.7086    3.0692 C   0  0  0  0  0  0  0  0  0  0  0  0
    5.0319    9.7105    4.0774 O   0  0  0  0  0  0  0  0  0  0  0  0
    3.9024   10.0448    4.8255 C   0  0  0  0  0  0  0  0  0  0  0  0
    2.7439    9.7889    4.4004 O   0  0  0  0  0  0  0  0  0  0  0  0
   10.3945   10.0248    3.3879 C   0  0  0  0  0  0  0  0  0  0  0  0
   11.8974    9.7200    3.2347 C   0  0  0  0  0  0  0  0  0  0  0  0
  1  2  1  0
  2  3  1  0
  2  4  1  0
  4  5  1  0
  5  6  1  0
  6  7  1  0
  7  8  1  0
  8  9  2  0
  8 10  1  0
 10 11  1  0
 11 12  1  0
 12 13  1  0
 13 14  1  0
 14 15  2  0
  7 16  1  0
 16 17  1  0
 17  4  1  0
M  CHG  1   3   1
M  END
>  <EmbedRMS>  (53) 
0.16848989566473074

>  <Gold.Version>  (53) 
2020.3.0

>  <Gold.Id.Protein>  (53) 
unknown|1q8t_protein|pdb

>  <Gold.PLP.Fitness>  (53) 
47.2798

>  <Gold.PLP.PLP>  (53) 
-36.9863

>  <Gold.PLP.part.hbond>  (53) 
-3.9962

>  <Gold.PLP.part.metal>  (53) 
0.0000

>  <Gold.PLP.part.buried>  (53) 
-6.1459

>  <Gold.PLP.part.nonpolar>  (53) 
-26.9257

>  <Gold.PLP.part.repulsive>  (53) 
0.2250

>  <Gold.PLP.ligand.clash>  (53) 
0.4664

>  <Gold.PLP.ligand.torsion>  (53) 
1.9175

>  <Gold.PLP.Chemscore.Hbond>  (53) 
4.6136

>  <Gold.PLP.Chemscore.CHOScore>  (53) 
0.0000

>  <Gold.PLP.Chemscore.Metal>  (53) 
0.0000

>  <Gold.Chemscore.Hbonds>  (53) 
donor molecule, donor type, donor heavy atom, donor atom, acceptor molecule, acceptor atom, score
      L1  H     3    22       P1  2902  2.00
      L1  H     3    24       P1  2691  1.00
      L1  H    10    31       P1  2887  0.61
      P1  H  1888  1903       L1    15  1.00

>  <Gold.PLP.Chemscore.Internal.Correction>  (53) 
0.7541

>  <Gold.PLP.Constraint>  (53) 
-0.0000

>  <Gold.Protein.RotatedTorsions>  (53) 
[  681  677  676  673 ] final  119.94 input -179.99 | X-H torsion
[  702  698  697  694 ] final -111.25 input  179.99 | X-H torsion
[ 2577 2569 2568 2566 ] final  -80.57 input   -0.13 | X-H torsion
[ 2891 2887 2886 2883 ] final  -22.47 input  179.98 | X-H torsion
[ 3175 3171 3170 3167 ] final  137.20 input -179.99 | X-H torsion
[ 5278 5270 5269 5267 ] final  174.97 input    0.55 | X-H torsion
[  641  637  636  633 ] final  -71.49 input  179.99 | X-H torsion
[ 1886 1878 1877 1875 ] final  -93.34 input    1.60 | X-H torsion
[  965  957  956  954 ] final  -49.08 input    0.45 | X-H torsion

>  <Gold.Protein.ActiveResidues>  (53) 
 LYS47   THR48   LEU49   GLY50   THR51   GLY52   SER53   PHE54   GLY55   ARG56  
 VAL57   MET58   LEU59   TYR69   ALA70   MET71   LYS72   ILE73   LEU74   GLU91  
 LEU95   VAL104  LYS105  MET118  VAL119  MET120  GLU121  TYR122  VAL123  PRO124 
 GLY125  GLY126  GLU127  MET128  PHE129  TYR164  ASP166  LEU167  LYS168  PRO169 
 GLU170  ASN171  LEU172  LEU173  ILE174  GLN181  VAL182  THR183  ASP184  PHE185 
 GLY186  PHE187  GLY200  THR201  ASN326  PHE327  TYR330  ARG18   ARG19   ASN20  
 ALA21   ILE22   HIS23  

>  <Gold.Protein.RotatedAtoms>  (53) 
   10.3266   18.9521    7.2757 H   0  0  0  0  0  0  0  0  0  0  0  0  # atno 641  bound_to 637 
   17.2302   13.3738    6.3427 H   0  0  0  0  0  0  0  0  0  0  0  0  # atno 681  bound_to 677 
   20.9519   11.5667   -0.6182 H   0  0  0  0  0  0  0  0  0  0  0  0  # atno 702  bound_to 698 
   -6.4758   15.8733   -1.5258 H   0  0  0  0  0  0  0  0  0  0  0  0  # atno 965  bound_to 957 
    1.2266   10.5575   10.6302 H   0  0  0  0  0  0  0  0  0  0  0  0  # atno 1886 bound_to 1878
   10.8891    3.1053   -3.1737 H   0  0  0  0  0  0  0  0  0  0  0  0  # atno 2577 bound_to 2569
    7.8698    5.2432    0.5598 H   0  0  0  0  0  0  0  0  0  0  0  0  # atno 2891 bound_to 2887
   17.9244    1.9691   -0.3751 H   0  0  0  0  0  0  0  0  0  0  0  0  # atno 3175 bound_to 3171
   14.3728   10.1068    9.3204 H   0  0  0  0  0  0  0  0  0  0  0  0  # atno 5278 bound_to 5270
   15.8465   12.5930    6.4514 LP  0  0  0  0  0  0  0  0  0  0  0  0  # atno 5914 bound_to 677 
   16.1924   13.8283    7.4619 LP  0  0  0  0  0  0  0  0  0  0  0  0  # atno 5915 bound_to 677 
   20.3175   11.6904   -2.0740 LP  0  0  0  0  0  0  0  0  0  0  0  0  # atno 5920 bound_to 698 
   19.3856   11.8298   -0.7403 LP  0  0  0  0  0  0  0  0  0  0  0  0  # atno 5921 bound_to 698 
   10.2964    1.8807   -2.3464 LP  0  0  0  0  0  0  0  0  0  0  0  0  # atno 5950 bound_to 2569
    9.3088    2.9139   -3.1362 LP  0  0  0  0  0  0  0  0  0  0  0  0  # atno 5951 bound_to 2569
    7.1656    6.1914    1.6282 LP  0  0  0  0  0  0  0  0  0  0  0  0  # atno 5982 bound_to 2887
    8.2267    6.7953    0.5437 LP  0  0  0  0  0  0  0  0  0  0  0  0  # atno 5983 bound_to 2887
   18.9586    2.6235   -1.3939 LP  0  0  0  0  0  0  0  0  0  0  0  0  # atno 6000 bound_to 3171
   19.0658    2.9129    0.2097 LP  0  0  0  0  0  0  0  0  0  0  0  0  # atno 6001 bound_to 3171
   12.8095   10.1477    9.0186 LP  0  0  0  0  0  0  0  0  0  0  0  0  # atno 6004 bound_to 5270
   13.3647    9.7855   10.5109 LP  0  0  0  0  0  0  0  0  0  0  0  0  # atno 6005 bound_to 5270
   11.3495   19.4761    8.3775 LP  0  0  0  0  0  0  0  0  0  0  0  0  # atno 6055 bound_to 637 
    9.7393   19.6655    8.5722 LP  0  0  0  0  0  0  0  0  0  0  0  0  # atno 6056 bound_to 637 
    0.8220   12.0307   11.0788 LP  0  0  0  0  0  0  0  0  0  0  0  0  # atno 6063 bound_to 1878
    2.2721   11.7340   10.3889 LP  0  0  0  0  0  0  0  0  0  0  0  0  # atno 6064 bound_to 1878
   -6.8387   17.2096   -0.7399 LP  0  0  0  0  0  0  0  0  0  0  0  0  # atno 6067 bound_to 957 
   -7.1491   15.7446   -0.0887 LP  0  0  0  0  0  0  0  0  0  0  0  0  # atno 6068 bound_to 957 

>  <STRIFE_LigEff_Score>  (53) 
2.781164705882353

$$$$
unknown|pharmsElabsTestMulti|sdf|54|dock10
     RDKit          3D

 17 17  0  0  0  0  0  0  0  0999 V2000
   14.8564    7.6899    3.3379 C   0  0  0  0  0  0  0  0  0  0  0  0
   13.5850    7.5660    2.4999 C   0  0  0  0  0  0  0  0  0  0  0  0
   13.6006    8.4553    1.3366 N   0  0  0  0  0  0  0  0  0  0  0  0
   12.2187    7.5674    3.2286 C   0  0  0  0  0  0  0  0  0  0  0  0
   11.0503    7.1011    2.3481 C   0  0  0  0  0  0  0  0  0  0  0  0
    9.6574    7.4946    2.8093 C   0  0  0  0  0  0  0  0  0  0  0  0
    9.5967    8.9066    3.3329 C   0  0  0  0  0  0  0  0  0  0  0  0
    8.2032    9.4311    3.4995 C   0  0  0  0  0  0  0  0  0  0  0  0
    7.5787    9.6261    2.4289 O   0  0  0  0  0  0  0  0  0  0  0  0
    7.5622    9.7305    4.7502 N   0  0  0  0  0  0  0  0  0  0  0  0
    6.2469   10.3833    4.7737 C   0  0  0  0  0  0  0  0  0  0  0  0
    5.1721    9.4532    4.1825 C   0  0  0  0  0  0  0  0  0  0  0  0
    4.8470    9.7875    2.7204 C   0  0  0  0  0  0  0  0  0  0  0  0
    3.5076    9.2071    2.2648 C   0  0  0  0  0  0  0  0  0  0  0  0
    2.5158    9.4924    3.2113 O   0  0  0  0  0  0  0  0  0  0  0  0
   10.5952    9.2689    4.3970 C   0  0  0  0  0  0  0  0  0  0  0  0
   12.0221    8.9007    3.9981 C   0  0  0  0  0  0  0  0  0  0  0  0
  1  2  1  0
  2  3  1  0
  2  4  1  0
  4  5  1  0
  5  6  1  0
  6  7  1  0
  7  8  1  0
  8  9  2  0
  8 10  1  0
 10 11  1  0
 11 12  1  0
 12 13  1  0
 13 14  1  0
 14 15  1  0
  7 16  1  0
 16 17  1  0
 17  4  1  0
M  CHG  1   3   1
M  END
>  <EmbedRMS>  (54) 
0.3028787039700591

>  <Gold.Version>  (54) 
2020.3.0

>  <Gold.Id.Protein>  (54) 
unknown|1q8t_protein|pdb

>  <Gold.PLP.Fitness>  (54) 
47.6265

>  <Gold.PLP.PLP>  (54) 
-39.4204

>  <Gold.PLP.part.hbond>  (54) 
-3.0000

>  <Gold.PLP.part.metal>  (54) 
0.0000

>  <Gold.PLP.part.buried>  (54) 
-4.0226

>  <Gold.PLP.part.nonpolar>  (54) 
-32.6858

>  <Gold.PLP.part.repulsive>  (54) 
0.0000

>  <Gold.PLP.ligand.clash>  (54) 
0.0000

>  <Gold.PLP.ligand.torsion>  (54) 
0.9408

>  <Gold.PLP.Chemscore.Hbond>  (54) 
3.1470

>  <Gold.PLP.Chemscore.CHOScore>  (54) 
0.0000

>  <Gold.PLP.Chemscore.Metal>  (54) 
0.0000

>  <Gold.Chemscore.Hbonds>  (54) 
donor molecule, donor type, donor heavy atom, donor atom, acceptor molecule, acceptor atom, score
      L1  H     3    23       P1  2902  2.00
      L1  H    15    40       P1  1855  1.00
      P1  H  1888  1903       L1    15  0.15

>  <Gold.PLP.Chemscore.Internal.Correction>  (54) 
0.6465

>  <Gold.PLP.Constraint>  (54) 
-0.0000

>  <Gold.Protein.RotatedTorsions>  (54) 
[  681  677  676  673 ] final -139.99 input -179.99 | X-H torsion
[  702  698  697  694 ] final  138.64 input  179.99 | X-H torsion
[ 2577 2569 2568 2566 ] final  113.07 input   -0.13 | X-H torsion
[ 2891 2887 2886 2883 ] final  151.65 input  179.98 | X-H torsion
[ 3175 3171 3170 3167 ] final   24.83 input -179.99 | X-H torsion
[ 5278 5270 5269 5267 ] final -127.89 input    0.55 | X-H torsion
[  641  637  636  633 ] final   -3.00 input  179.99 | X-H torsion
[ 1886 1878 1877 1875 ] final   21.70 input    1.60 | X-H torsion
[  965  957  956  954 ] final  115.12 input    0.45 | X-H torsion

>  <Gold.Protein.ActiveResidues>  (54) 
 LYS47   THR48   LEU49   GLY50   THR51   GLY52   SER53   PHE54   GLY55   ARG56  
 VAL57   MET58   LEU59   TYR69   ALA70   MET71   LYS72   ILE73   LEU74   GLU91  
 LEU95   VAL104  LYS105  MET118  VAL119  MET120  GLU121  TYR122  VAL123  PRO124 
 GLY125  GLY126  GLU127  MET128  PHE129  TYR164  ASP166  LEU167  LYS168  PRO169 
 GLU170  ASN171  LEU172  LEU173  ILE174  GLN181  VAL182  THR183  ASP184  PHE185 
 GLY186  PHE187  GLY200  THR201  ASN326  PHE327  TYR330  ARG18   ARG19   ASN20  
 ALA21   ILE22   HIS23  

>  <Gold.Protein.RotatedAtoms>  (54) 
    9.5953   19.2993    7.8756 H   0  0  0  0  0  0  0  0  0  0  0  0  # atno 641  bound_to 637 
   16.4799   13.9237    7.3527 H   0  0  0  0  0  0  0  0  0  0  0  0  # atno 681  bound_to 677 
   20.4658   11.6795   -2.0001 H   0  0  0  0  0  0  0  0  0  0  0  0  # atno 702  bound_to 698 
   -7.1689   16.4305    0.0088 H   0  0  0  0  0  0  0  0  0  0  0  0  # atno 965  bound_to 957 
    2.2395   11.6480   10.3696 H   0  0  0  0  0  0  0  0  0  0  0  0  # atno 1886 bound_to 1878
    9.6146    2.0449   -2.5307 H   0  0  0  0  0  0  0  0  0  0  0  0  # atno 2577 bound_to 2569
    7.6864    6.9144    1.1726 H   0  0  0  0  0  0  0  0  0  0  0  0  # atno 2891 bound_to 2887
   18.8634    2.5326   -1.3831 H   0  0  0  0  0  0  0  0  0  0  0  0  # atno 3175 bound_to 3171
   14.2434    9.9027   10.1426 H   0  0  0  0  0  0  0  0  0  0  0  0  # atno 5278 bound_to 5270
   17.1604   13.1188    6.1588 LP  0  0  0  0  0  0  0  0  0  0  0  0  # atno 5914 bound_to 677 
   15.6682   12.7237    6.6915 LP  0  0  0  0  0  0  0  0  0  0  0  0  # atno 5915 bound_to 677 
   19.3318   11.8423   -0.8933 LP  0  0  0  0  0  0  0  0  0  0  0  0  # atno 5920 bound_to 698 
   20.8827   11.5592   -0.4674 LP  0  0  0  0  0  0  0  0  0  0  0  0  # atno 5921 bound_to 698 
    9.8408    3.3566   -3.4046 LP  0  0  0  0  0  0  0  0  0  0  0  0  # atno 5950 bound_to 2569
   11.1063    2.5546   -2.7550 LP  0  0  0  0  0  0  0  0  0  0  0  0  # atno 5951 bound_to 2569
    8.3318    5.8376    0.1925 LP  0  0  0  0  0  0  0  0  0  0  0  0  # atno 5982 bound_to 2887
    7.2535    5.3903    1.3344 LP  0  0  0  0  0  0  0  0  0  0  0  0  # atno 5983 bound_to 2887
   19.1450    2.9605    0.1247 LP  0  0  0  0  0  0  0  0  0  0  0  0  # atno 6000 bound_to 3171
   17.8912    1.9830   -0.2481 LP  0  0  0  0  0  0  0  0  0  0  0  0  # atno 6001 bound_to 3171
   13.6495   10.2345    8.7024 LP  0  0  0  0  0  0  0  0  0  0  0  0  # atno 6004 bound_to 5270
   12.6609    9.9135    9.9620 LP  0  0  0  0  0  0  0  0  0  0  0  0  # atno 6005 bound_to 5270
   11.1041   19.0176    7.4526 LP  0  0  0  0  0  0  0  0  0  0  0  0  # atno 6055 bound_to 637 
   10.7549   19.7584    8.8653 LP  0  0  0  0  0  0  0  0  0  0  0  0  # atno 6056 bound_to 637 
    1.1511   10.5272   10.6772 LP  0  0  0  0  0  0  0  0  0  0  0  0  # atno 6063 bound_to 1878
    0.8767   12.0896   11.0647 LP  0  0  0  0  0  0  0  0  0  0  0  0  # atno 6064 bound_to 1878
   -6.6964   15.3807   -1.0910 LP  0  0  0  0  0  0  0  0  0  0  0  0  # atno 6067 bound_to 957 
   -6.5614   16.9867   -1.3538 LP  0  0  0  0  0  0  0  0  0  0  0  0  # atno 6068 bound_to 957 

>  <STRIFE_LigEff_Score>  (54) 
2.8015588235294118

$$$$
unknown|pharmsElabsTestMulti|sdf|55|dock2
     RDKit          3D

 16 16  0  0  0  0  0  0  0  0999 V2000
   14.1855    9.1682    1.8669 C   0  0  0  0  0  0  0  0  0  0  0  0
   13.2444    7.9814    1.7511 C   0  0  0  0  0  0  0  0  0  0  0  0
   13.6111    6.9942    0.7436 N   0  0  0  0  0  0  0  0  0  0  0  0
   11.7273    8.2695    1.9477 C   0  0  0  0  0  0  0  0  0  0  0  0
   10.7972    7.0973    2.3090 C   0  0  0  0  0  0  0  0  0  0  0  0
    9.3548    7.5143    1.9746 C   0  0  0  0  0  0  0  0  0  0  0  0
    8.9581    8.7815    2.7545 C   0  0  0  0  0  0  0  0  0  0  0  0
    7.5712    9.2273    2.3828 C   0  0  0  0  0  0  0  0  0  0  0  0
    7.3240    9.6776    1.2283 O   0  0  0  0  0  0  0  0  0  0  0  0
    6.5392    9.1589    3.3676 N   0  0  0  0  0  0  0  0  0  0  0  0
    5.1645    9.5396    3.0737 C   0  0  0  0  0  0  0  0  0  0  0  0
    4.3899    9.6385    4.3480 C   0  0  0  0  0  0  0  0  0  0  0  0
    5.0229   10.1015    5.5396 N   0  0  0  0  0  0  0  0  0  0  0  0
    3.1955    9.2410    4.3857 O   0  0  0  0  0  0  0  0  0  0  0  0
    9.9606    9.9374    2.5737 C   0  0  0  0  0  0  0  0  0  0  0  0
   11.4023    9.4809    2.8390 C   0  0  0  0  0  0  0  0  0  0  0  0
  1  2  1  0
  2  3  1  0
  2  4  1  0
  4  5  1  0
  5  6  1  0
  6  7  1  0
  7  8  1  0
  8  9  2  0
  8 10  1  0
 10 11  1  0
 11 12  1  0
 12 13  1  0
 12 14  2  0
  7 15  1  0
 15 16  1  0
 16  4  1  0
M  CHG  1   3   1
M  END
>  <EmbedRMS>  (55) 
0.1933160619529778

>  <Gold.Version>  (55) 
2020.3.0

>  <Gold.Id.Protein>  (55) 
unknown|1q8t_protein|pdb

>  <Gold.PLP.Fitness>  (55) 
38.8211

>  <Gold.PLP.PLP>  (55) 
-28.0357

>  <Gold.PLP.part.hbond>  (55) 
-2.8247

>  <Gold.PLP.part.metal>  (55) 
0.0000

>  <Gold.PLP.part.buried>  (55) 
-0.9825

>  <Gold.PLP.part.nonpolar>  (55) 
-24.9899

>  <Gold.PLP.part.repulsive>  (55) 
0.2137

>  <Gold.PLP.ligand.clash>  (55) 
0.0000

>  <Gold.PLP.ligand.torsion>  (55) 
0.7871

>  <Gold.PLP.Chemscore.Hbond>  (55) 
3.9920

>  <Gold.PLP.Chemscore.CHOScore>  (55) 
0.0000

>  <Gold.PLP.Chemscore.Metal>  (55) 
0.0000

>  <Gold.Chemscore.Hbonds>  (55) 
donor molecule, donor type, donor heavy atom, donor atom, acceptor molecule, acceptor atom, score
      L1  H     3    21       P1  2691  0.99
      L1  H     3    23       P1  2902  2.00
      P1  H  1888  1903       L1    14  1.00

>  <Gold.PLP.Chemscore.Internal.Correction>  (55) 
0.3837

>  <Gold.PLP.Constraint>  (55) 
-0.0000

>  <Gold.Protein.RotatedTorsions>  (55) 
[  681  677  676  673 ] final  -99.81 input -179.99 | X-H torsion
[  702  698  697  694 ] final  142.11 input  179.99 | X-H torsion
[ 2577 2569 2568 2566 ] final   61.04 input   -0.13 | X-H torsion
[ 2891 2887 2886 2883 ] final  -99.92 input  179.98 | X-H torsion
[ 3175 3171 3170 3167 ] final  -38.91 input -179.99 | X-H torsion
[ 5278 5270 5269 5267 ] final   48.92 input    0.55 | X-H torsion
[  641  637  636  633 ] final  -49.60 input  179.99 | X-H torsion
[ 1886 1878 1877 1875 ] final    5.35 input    1.60 | X-H torsion
[  965  957  956  954 ] final  -52.49 input    0.45 | X-H torsion

>  <Gold.Protein.ActiveResidues>  (55) 
 LYS47   THR48   LEU49   GLY50   THR51   GLY52   SER53   PHE54   GLY55   ARG56  
 VAL57   MET58   LEU59   TYR69   ALA70   MET71   LYS72   ILE73   LEU74   GLU91  
 LEU95   VAL104  LYS105  MET118  VAL119  MET120  GLU121  TYR122  VAL123  PRO124 
 GLY125  GLY126  GLU127  MET128  PHE129  TYR164  ASP166  LEU167  LYS168  PRO169 
 GLU170  ASN171  LEU172  LEU173  ILE174  GLN181  VAL182  THR183  ASP184  PHE185 
 GLY186  PHE187  GLY200  THR201  ASN326  PHE327  TYR330  ARG18   ARG19   ASN20  
 ALA21   ILE22   HIS23  

>  <Gold.Protein.RotatedAtoms>  (55) 
   10.0077   19.0193    7.3725 H   0  0  0  0  0  0  0  0  0  0  0  0  # atno 641  bound_to 637 
   15.9405   13.6304    7.3961 H   0  0  0  0  0  0  0  0  0  0  0  0  # atno 681  bound_to 677 
   20.5168   11.6702   -1.9844 H   0  0  0  0  0  0  0  0  0  0  0  0  # atno 702  bound_to 698 
   -6.4663   15.9218   -1.5457 H   0  0  0  0  0  0  0  0  0  0  0  0  # atno 965  bound_to 957 
    2.2492   11.3979   10.3227 H   0  0  0  0  0  0  0  0  0  0  0  0  # atno 1886 bound_to 1878
    9.2843    2.6188   -2.9534 H   0  0  0  0  0  0  0  0  0  0  0  0  # atno 2577 bound_to 2569
    7.2062    5.5622    1.4049 H   0  0  0  0  0  0  0  0  0  0  0  0  # atno 2891 bound_to 2887
   19.3578    2.9861   -0.7163 H   0  0  0  0  0  0  0  0  0  0  0  0  # atno 3175 bound_to 3171
   12.7880   10.1385    9.1250 H   0  0  0  0  0  0  0  0  0  0  0  0  # atno 5278 bound_to 5270
   17.2960   13.6087    6.5604 LP  0  0  0  0  0  0  0  0  0  0  0  0  # atno 5914 bound_to 677 
   16.1003   12.5425    6.2441 LP  0  0  0  0  0  0  0  0  0  0  0  0  # atno 5915 bound_to 677 
   19.3192   11.8456   -0.9488 LP  0  0  0  0  0  0  0  0  0  0  0  0  # atno 5920 bound_to 698 
   20.8416   11.5657   -0.4284 LP  0  0  0  0  0  0  0  0  0  0  0  0  # atno 5921 bound_to 698 
   10.6632    3.3245   -3.3221 LP  0  0  0  0  0  0  0  0  0  0  0  0  # atno 5950 bound_to 2569
   10.6318    1.9824   -2.3924 LP  0  0  0  0  0  0  0  0  0  0  0  0  # atno 5951 bound_to 2569
    7.8216    6.9900    1.0596 LP  0  0  0  0  0  0  0  0  0  0  0  0  # atno 5982 bound_to 2887
    8.2691    5.6610    0.2229 LP  0  0  0  0  0  0  0  0  0  0  0  0  # atno 5983 bound_to 2887
   18.3558    2.4092    0.3787 LP  0  0  0  0  0  0  0  0  0  0  0  0  # atno 6000 bound_to 3171
   18.1601    2.0570   -1.2038 LP  0  0  0  0  0  0  0  0  0  0  0  0  # atno 6001 bound_to 3171
   13.4635    9.7835   10.5231 LP  0  0  0  0  0  0  0  0  0  0  0  0  # atno 6004 bound_to 5270
   14.3782   10.1164    9.2119 LP  0  0  0  0  0  0  0  0  0  0  0  0  # atno 6005 bound_to 5270
   11.4111   19.3130    8.0648 LP  0  0  0  0  0  0  0  0  0  0  0  0  # atno 6055 bound_to 637 
   10.0136   19.7578    8.7830 LP  0  0  0  0  0  0  0  0  0  0  0  0  # atno 6056 bound_to 637 
    0.9332   10.6338   10.7915 LP  0  0  0  0  0  0  0  0  0  0  0  0  # atno 6063 bound_to 1878
    1.0844   12.2463   10.9999 LP  0  0  0  0  0  0  0  0  0  0  0  0  # atno 6064 bound_to 1878
   -6.8619   17.2043   -0.6891 LP  0  0  0  0  0  0  0  0  0  0  0  0  # atno 6067 bound_to 957 
   -7.1359   15.6990   -0.1185 LP  0  0  0  0  0  0  0  0  0  0  0  0  # atno 6068 bound_to 957 

>  <STRIFE_LigEff_Score>  (55) 
2.42631875

$$$$
unknown|pharmsElabsTestMulti|sdf|56|dock2
     RDKit          3D

 14 14  0  0  0  0  0  0  0  0999 V2000
    3.9008    9.8792    5.6006 C   0  0  0  0  0  0  0  0  0  0  0  0
    4.7152   10.0543    4.3247 C   0  0  0  0  0  0  0  0  0  0  0  0
    6.0480    9.4833    4.4876 N   0  0  0  0  0  0  0  0  0  0  0  0
    7.0279    9.5056    3.4425 C   0  0  0  0  0  0  0  0  0  0  0  0
    6.7834   10.0982    2.3542 O   0  0  0  0  0  0  0  0  0  0  0  0
    8.3619    8.8433    3.6599 C   0  0  0  0  0  0  0  0  0  0  0  0
    8.6643    7.8682    2.5237 C   0  0  0  0  0  0  0  0  0  0  0  0
    9.9369    7.0763    2.7894 C   0  0  0  0  0  0  0  0  0  0  0  0
   11.1433    7.9009    3.3128 C   0  0  0  0  0  0  0  0  0  0  0  0
   12.4738    7.8854    2.5342 C   0  0  0  0  0  0  0  0  0  0  0  0
   13.7752    7.9934    3.3287 C   0  0  0  0  0  0  0  0  0  0  0  0
   12.4682    8.8245    1.4041 N   0  0  0  0  0  0  0  0  0  0  0  0
   10.8360    9.2669    3.9995 C   0  0  0  0  0  0  0  0  0  0  0  0
    9.4688    9.8904    3.7246 C   0  0  0  0  0  0  0  0  0  0  0  0
  1  2  1  0
  2  3  1  0
  3  4  1  0
  4  5  2  0
  4  6  1  0
  6  7  1  0
  7  8  1  0
  8  9  1  0
  9 10  1  0
 10 11  1  0
 10 12  1  0
  9 13  1  0
 13 14  1  0
 14  6  1  0
M  CHG  1  12   1
M  END
>  <EmbedRMS>  (56) 
0.22880006867790334

>  <Gold.Version>  (56) 
2020.3.0

>  <Gold.Id.Protein>  (56) 
unknown|1q8t_protein|pdb

>  <Gold.PLP.Fitness>  (56) 
35.0427

>  <Gold.PLP.PLP>  (56) 
-29.5445

>  <Gold.PLP.part.hbond>  (56) 
-1.0000

>  <Gold.PLP.part.metal>  (56) 
0.0000

>  <Gold.PLP.part.buried>  (56) 
-0.2144

>  <Gold.PLP.part.nonpolar>  (56) 
-28.1117

>  <Gold.PLP.part.repulsive>  (56) 
0.0000

>  <Gold.PLP.ligand.clash>  (56) 
0.0000

>  <Gold.PLP.ligand.torsion>  (56) 
0.4480

>  <Gold.PLP.Chemscore.Hbond>  (56) 
2.0000

>  <Gold.PLP.Chemscore.CHOScore>  (56) 
0.0000

>  <Gold.PLP.Chemscore.Metal>  (56) 
0.0000

>  <Gold.Chemscore.Hbonds>  (56) 
donor molecule, donor type, donor heavy atom, donor atom, acceptor molecule, acceptor atom, score
      L1  H    12    32       P1  2902  2.00

>  <Gold.PLP.Chemscore.Internal.Correction>  (56) 
0.3942

>  <Gold.PLP.Constraint>  (56) 
-0.0000

>  <Gold.Protein.RotatedTorsions>  (56) 
[  681  677  676  673 ] final  -17.67 input -179.99 | X-H torsion
[  702  698  697  694 ] final   72.49 input  179.99 | X-H torsion
[ 2577 2569 2568 2566 ] final   25.40 input   -0.13 | X-H torsion
[ 2891 2887 2886 2883 ] final -168.96 input  179.98 | X-H torsion
[ 3175 3171 3170 3167 ] final   52.12 input -179.99 | X-H torsion
[ 5278 5270 5269 5267 ] final -139.98 input    0.55 | X-H torsion
[  641  637  636  633 ] final -167.38 input  179.99 | X-H torsion
[ 1886 1878 1877 1875 ] final   63.77 input    1.60 | X-H torsion
[  965  957  956  954 ] final  167.52 input    0.45 | X-H torsion

>  <Gold.Protein.ActiveResidues>  (56) 
 LYS47   THR48   LEU49   GLY50   THR51   GLY52   SER53   PHE54   GLY55   ARG56  
 VAL57   MET58   LEU59   TYR69   ALA70   MET71   LYS72   ILE73   LEU74   GLU91  
 LEU95   VAL104  LYS105  MET118  VAL119  MET120  GLU121  TYR122  VAL123  PRO124 
 GLY125  GLY126  GLU127  MET128  PHE129  TYR164  ASP166  LEU167  LYS168  PRO169 
 GLU170  ASN171  LEU172  LEU173  ILE174  GLN181  VAL182  THR183  ASP184  PHE185 
 GLY186  PHE187  GLY200  THR201  ASN326  PHE327  TYR330  ARG18   ARG19   ASN20  
 ALA21   ILE22   HIS23  

>  <Gold.Protein.RotatedAtoms>  (56) 
   11.3615   19.2851    8.0410 H   0  0  0  0  0  0  0  0  0  0  0  0  # atno 641  bound_to 637 
   15.7154   12.7433    6.6560 H   0  0  0  0  0  0  0  0  0  0  0  0  # atno 681  bound_to 677 
   19.5484   11.8363   -1.6985 H   0  0  0  0  0  0  0  0  0  0  0  0  # atno 702  bound_to 698 
   -6.9686   17.0652   -0.4181 H   0  0  0  0  0  0  0  0  0  0  0  0  # atno 965  bound_to 957 
    1.9306   12.1652   10.5940 H   0  0  0  0  0  0  0  0  0  0  0  0  # atno 1886 bound_to 1878
    9.4617    3.0506   -3.2403 H   0  0  0  0  0  0  0  0  0  0  0  0  # atno 2577 bound_to 2569
    7.3250    6.5655    1.5077 H   0  0  0  0  0  0  0  0  0  0  0  0  # atno 2891 bound_to 2887
   18.5237    2.2813   -1.3803 H   0  0  0  0  0  0  0  0  0  0  0  0  # atno 3175 bound_to 3171
   14.3411    9.9423    9.9861 H   0  0  0  0  0  0  0  0  0  0  0  0  # atno 5278 bound_to 5270
   16.4542   13.9372    7.4077 LP  0  0  0  0  0  0  0  0  0  0  0  0  # atno 5914 bound_to 677 
   17.1790   13.1476    6.1758 LP  0  0  0  0  0  0  0  0  0  0  0  0  # atno 5915 bound_to 677 
   20.0821   11.6960   -0.2042 LP  0  0  0  0  0  0  0  0  0  0  0  0  # atno 5920 bound_to 698 
   21.0974   11.5405   -1.4737 LP  0  0  0  0  0  0  0  0  0  0  0  0  # atno 5921 bound_to 698 
   11.0416    2.9803   -3.0553 LP  0  0  0  0  0  0  0  0  0  0  0  0  # atno 5950 bound_to 2569
   10.0665    1.8719   -2.3571 LP  0  0  0  0  0  0  0  0  0  0  0  0  # atno 5951 bound_to 2569
    8.3639    6.4623    0.3050 LP  0  0  0  0  0  0  0  0  0  0  0  0  # atno 5982 bound_to 2887
    7.6018    5.1329    0.8693 LP  0  0  0  0  0  0  0  0  0  0  0  0  # atno 5983 bound_to 2887
   19.3458    3.0588   -0.2599 LP  0  0  0  0  0  0  0  0  0  0  0  0  # atno 6000 bound_to 3171
   18.0480    2.1491    0.1336 LP  0  0  0  0  0  0  0  0  0  0  0  0  # atno 6001 bound_to 3171
   13.4510   10.2335    8.6979 LP  0  0  0  0  0  0  0  0  0  0  0  0  # atno 6004 bound_to 5270
   12.7565    9.8728   10.1311 LP  0  0  0  0  0  0  0  0  0  0  0  0  # atno 6005 bound_to 5270
   10.0458   19.7641    8.7989 LP  0  0  0  0  0  0  0  0  0  0  0  0  # atno 6055 bound_to 637 
    9.9531   19.0268    7.3448 LP  0  0  0  0  0  0  0  0  0  0  0  0  # atno 6056 bound_to 637 
    1.7716   10.5911   10.4146 LP  0  0  0  0  0  0  0  0  0  0  0  0  # atno 6063 bound_to 1878
    0.5814   11.4812   11.0911 LP  0  0  0  0  0  0  0  0  0  0  0  0  # atno 6064 bound_to 1878
   -7.0382   15.4765   -0.3379 LP  0  0  0  0  0  0  0  0  0  0  0  0  # atno 6067 bound_to 957 
   -6.4306   16.2225   -1.6573 LP  0  0  0  0  0  0  0  0  0  0  0  0  # atno 6068 bound_to 957 

>  <STRIFE_LigEff_Score>  (56) 
2.5030500000000004

$$$$
unknown|pharmsElabsTestMulti|sdf|57|dock2
     RDKit          3D

 20 21  0  0  0  0  0  0  0  0999 V2000
    3.3009    8.8870    2.1115 C   0  0  0  0  0  0  0  0  0  0  0  0
    4.2796    9.4694    3.0824 C   0  0  0  0  0  0  0  0  0  0  0  0
    5.5416    9.9636    2.8150 C   0  0  0  0  0  0  0  0  0  0  0  0
    6.1963   10.1032    1.4796 C   0  0  0  0  0  0  0  0  0  0  0  0
    7.6640   10.1106    1.5841 N   0  0  0  0  0  0  0  0  0  0  0  0
    8.3046    9.0135    2.2592 C   0  0  0  0  0  0  0  0  0  0  0  0
    7.5907    8.1293    2.7923 O   0  0  0  0  0  0  0  0  0  0  0  0
    9.7827    8.7893    2.3886 C   0  0  0  0  0  0  0  0  0  0  0  0
   10.1680    7.3482    2.6096 C   0  0  0  0  0  0  0  0  0  0  0  0
   11.6540    7.1001    2.4087 C   0  0  0  0  0  0  0  0  0  0  0  0
   12.6067    8.1684    2.9647 C   0  0  0  0  0  0  0  0  0  0  0  0
   14.0240    8.1225    2.3418 C   0  0  0  0  0  0  0  0  0  0  0  0
   14.3378    9.0611    1.1778 C   0  0  0  0  0  0  0  0  0  0  0  0
   14.4804    6.7546    2.0876 N   0  0  0  0  0  0  0  0  0  0  0  0
   12.0776    9.6270    2.9889 C   0  0  0  0  0  0  0  0  0  0  0  0
   10.5709    9.8182    3.1498 C   0  0  0  0  0  0  0  0  0  0  0  0
    6.0723   10.3657    4.0266 C   0  0  0  0  0  0  0  0  0  0  0  0
    5.2042   10.1249    4.9839 O   0  0  0  0  0  0  0  0  0  0  0  0
    4.1311    9.5883    4.4496 C   0  0  0  0  0  0  0  0  0  0  0  0
    3.0125    9.2128    5.1871 O   0  0  0  0  0  0  0  0  0  0  0  0
  1  2  1  0
  2  3  1  0
  3  4  1  0
  4  5  1  0
  5  6  1  0
  6  7  2  0
  6  8  1  0
  8  9  1  0
  9 10  1  0
 10 11  1  0
 11 12  1  0
 12 13  1  0
 12 14  1  0
 11 15  1  0
 15 16  1  0
  3 17  2  0
 17 18  1  0
 18 19  1  0
 19 20  1  0
 19  2  2  0
 16  8  1  0
M  CHG  1  14   1
M  END
>  <EmbedRMS>  (57) 
0.27767967460211923

>  <Gold.Version>  (57) 
2020.3.0

>  <Gold.Id.Protein>  (57) 
unknown|1q8t_protein|pdb

>  <Gold.PLP.Fitness>  (57) 
53.0395

>  <Gold.PLP.PLP>  (57) 
-44.0300

>  <Gold.PLP.part.hbond>  (57) 
-3.9643

>  <Gold.PLP.part.metal>  (57) 
0.0000

>  <Gold.PLP.part.buried>  (57) 
-0.7288

>  <Gold.PLP.part.nonpolar>  (57) 
-39.4582

>  <Gold.PLP.part.repulsive>  (57) 
0.0713

>  <Gold.PLP.ligand.clash>  (57) 
0.0000

>  <Gold.PLP.ligand.torsion>  (57) 
1.2247

>  <Gold.PLP.Chemscore.Hbond>  (57) 
3.6160

>  <Gold.PLP.Chemscore.CHOScore>  (57) 
0.0000

>  <Gold.PLP.Chemscore.Metal>  (57) 
0.0000

>  <Gold.Chemscore.Hbonds>  (57) 
donor molecule, donor type, donor heavy atom, donor atom, acceptor molecule, acceptor atom, score
      L1  H    14    39       P1  2691  1.00
      L1  H    20    45       P1  1891  0.67
      P1  H  2887  2891       L1     7  1.00
      P1  H  1888  1903       L1    20  0.94

>  <Gold.PLP.Chemscore.Internal.Correction>  (57) 
0.6109

>  <Gold.PLP.Constraint>  (57) 
-0.0000

>  <Gold.Protein.RotatedTorsions>  (57) 
[  681  677  676  673 ] final  -12.91 input -179.99 | X-H torsion
[  702  698  697  694 ] final    8.92 input  179.99 | X-H torsion
[ 2577 2569 2568 2566 ] final -150.73 input   -0.13 | X-H torsion
[ 2891 2887 2886 2883 ] final  178.93 input  179.98 | X-H torsion
[ 3175 3171 3170 3167 ] final -169.99 input -179.99 | X-H torsion
[ 5278 5270 5269 5267 ] final  163.20 input    0.55 | X-H torsion
[  641  637  636  633 ] final   98.09 input  179.99 | X-H torsion
[ 1886 1878 1877 1875 ] final   73.29 input    1.60 | X-H torsion
[  965  957  956  954 ] final  151.99 input    0.45 | X-H torsion

>  <Gold.Protein.ActiveResidues>  (57) 
 LYS47   THR48   LEU49   GLY50   THR51   GLY52   SER53   PHE54   GLY55   ARG56  
 VAL57   MET58   LEU59   TYR69   ALA70   MET71   LYS72   ILE73   LEU74   GLU91  
 LEU95   VAL104  LYS105  MET118  VAL119  MET120  GLU121  TYR122  VAL123  PRO124 
 GLY125  GLY126  GLU127  MET128  PHE129  TYR164  ASP166  LEU167  LYS168  PRO169 
 GLU170  ASN171  LEU172  LEU173  ILE174  GLN181  VAL182  THR183  ASP184  PHE185 
 GLY186  PHE187  GLY200  THR201  ASN326  PHE327  TYR330  ARG18   ARG19   ASN20  
 ALA21   ILE22   HIS23  

>  <Gold.Protein.RotatedAtoms>  (57) 
   10.4488   19.7557    8.8629 H   0  0  0  0  0  0  0  0  0  0  0  0  # atno 641  bound_to 637 
   15.7510   12.7092    6.6002 H   0  0  0  0  0  0  0  0  0  0  0  0  # atno 681  bound_to 677 
   19.4291   11.8394   -0.7619 H   0  0  0  0  0  0  0  0  0  0  0  0  # atno 702  bound_to 698 
   -7.0518   16.9266   -0.2382 H   0  0  0  0  0  0  0  0  0  0  0  0  # atno 965  bound_to 957 
    1.8157   12.2358   10.6567 H   0  0  0  0  0  0  0  0  0  0  0  0  # atno 1886 bound_to 1878
   10.9287    2.2619   -2.5851 H   0  0  0  0  0  0  0  0  0  0  0  0  # atno 2577 bound_to 2569
    7.4221    6.7073    1.4292 H   0  0  0  0  0  0  0  0  0  0  0  0  # atno 2891 bound_to 2887
   18.2559    2.2991    0.2698 H   0  0  0  0  0  0  0  0  0  0  0  0  # atno 3175 bound_to 3171
   14.2929   10.1457    9.1595 H   0  0  0  0  0  0  0  0  0  0  0  0  # atno 5278 bound_to 5270
   16.3824   13.9137    7.4288 LP  0  0  0  0  0  0  0  0  0  0  0  0  # atno 5914 bound_to 677 
   17.2134   13.2071    6.2135 LP  0  0  0  0  0  0  0  0  0  0  0  0  # atno 5915 bound_to 677 
   20.9848   11.5434   -0.5894 LP  0  0  0  0  0  0  0  0  0  0  0  0  # atno 5920 bound_to 698 
   20.3201   11.6899   -2.0738 LP  0  0  0  0  0  0  0  0  0  0  0  0  # atno 5921 bound_to 698 
    9.3394    2.2629   -2.6819 LP  0  0  0  0  0  0  0  0  0  0  0  0  # atno 5950 bound_to 2569
   10.2240    3.4198   -3.4204 LP  0  0  0  0  0  0  0  0  0  0  0  0  # atno 5951 bound_to 2569
    8.3852    6.2770    0.2360 LP  0  0  0  0  0  0  0  0  0  0  0  0  # atno 5982 bound_to 2887
    7.4783    5.1689    1.0209 LP  0  0  0  0  0  0  0  0  0  0  0  0  # atno 5983 bound_to 2887
   18.2829    2.1335   -1.3137 LP  0  0  0  0  0  0  0  0  0  0  0  0  # atno 6000 bound_to 3171
   19.3927    3.0557   -0.5492 LP  0  0  0  0  0  0  0  0  0  0  0  0  # atno 6001 bound_to 3171
   12.7007   10.1084    9.1736 LP  0  0  0  0  0  0  0  0  0  0  0  0  # atno 6004 bound_to 5270
   13.5576    9.7839   10.5252 LP  0  0  0  0  0  0  0  0  0  0  0  0  # atno 6005 bound_to 5270
    9.6648   19.1755    7.6044 LP  0  0  0  0  0  0  0  0  0  0  0  0  # atno 6055 bound_to 637 
   11.2953   19.1198    7.6737 LP  0  0  0  0  0  0  0  0  0  0  0  0  # atno 6056 bound_to 637 
    1.8991   10.6714   10.3721 LP  0  0  0  0  0  0  0  0  0  0  0  0  # atno 6063 bound_to 1878
    0.5748   11.3266   11.0677 LP  0  0  0  0  0  0  0  0  0  0  0  0  # atno 6064 bound_to 1878
   -6.9435   15.3687   -0.5483 LP  0  0  0  0  0  0  0  0  0  0  0  0  # atno 6067 bound_to 957 
   -6.4377   16.4763   -1.6364 LP  0  0  0  0  0  0  0  0  0  0  0  0  # atno 6068 bound_to 957 

>  <STRIFE_LigEff_Score>  (57) 
2.6519749999999997

$$$$
unknown|pharmsElabsTestMulti|sdf|58|dock3
     RDKit          3D

 18 18  0  0  0  0  0  0  0  0999 V2000
   13.9596    7.0974    3.6982 C   0  0  0  0  0  0  0  0  0  0  0  0
   13.5541    7.9130    2.4573 C   0  0  0  0  0  0  0  0  0  0  0  0
   13.6547    7.0602    1.2648 N   0  0  0  0  0  0  0  0  0  0  0  0
   12.1224    8.5167    2.6431 C   0  0  0  0  0  0  0  0  0  0  0  0
   11.0840    7.3806    2.5814 C   0  0  0  0  0  0  0  0  0  0  0  0
    9.6389    7.8645    2.6523 C   0  0  0  0  0  0  0  0  0  0  0  0
    9.4630    9.1921    3.3730 C   0  0  0  0  0  0  0  0  0  0  0  0
    8.0333    9.5420    3.6598 C   0  0  0  0  0  0  0  0  0  0  0  0
    7.2408    9.3499    2.7059 O   0  0  0  0  0  0  0  0  0  0  0  0
    7.5235   10.0481    4.9076 N   0  0  0  0  0  0  0  0  0  0  0  0
    6.1023   10.4053    5.0587 C   0  0  0  0  0  0  0  0  0  0  0  0
    5.1827    9.1980    4.8167 C   0  0  0  0  0  0  0  0  0  0  0  0
    3.7557    9.6237    4.4677 C   0  0  0  0  0  0  0  0  0  0  0  0
    3.5644    9.6623    3.0065 N   0  0  0  0  0  0  0  0  0  0  0  0
    3.4705    8.2883    2.4900 C   0  0  0  0  0  0  0  0  0  0  0  0
    4.6980   10.3393    2.3592 C   0  0  0  0  0  0  0  0  0  0  0  0
   10.5199    9.7177    4.3241 C   0  0  0  0  0  0  0  0  0  0  0  0
   11.9599    9.2775    3.9834 C   0  0  0  0  0  0  0  0  0  0  0  0
  1  2  1  0
  2  3  1  0
  2  4  1  0
  4  5  1  0
  5  6  1  0
  6  7  1  0
  7  8  1  0
  8  9  2  0
  8 10  1  0
 10 11  1  0
 11 12  1  0
 12 13  1  0
 13 14  1  0
 14 15  1  0
 14 16  1  0
  7 17  1  0
 17 18  1  0
 18  4  1  0
M  CHG  1   3   1
M  END
>  <EmbedRMS>  (58) 
0.1809547169271366

>  <Gold.Version>  (58) 
2020.3.0

>  <Gold.Id.Protein>  (58) 
unknown|1q8t_protein|pdb

>  <Gold.PLP.Fitness>  (58) 
52.1712

>  <Gold.PLP.PLP>  (58) 
-44.0833

>  <Gold.PLP.part.hbond>  (58) 
-2.0000

>  <Gold.PLP.part.metal>  (58) 
0.0000

>  <Gold.PLP.part.buried>  (58) 
-7.8008

>  <Gold.PLP.part.nonpolar>  (58) 
-35.2547

>  <Gold.PLP.part.repulsive>  (58) 
0.1365

>  <Gold.PLP.ligand.clash>  (58) 
0.0000

>  <Gold.PLP.ligand.torsion>  (58) 
0.9063

>  <Gold.PLP.Chemscore.Hbond>  (58) 
3.0000

>  <Gold.PLP.Chemscore.CHOScore>  (58) 
0.0000

>  <Gold.PLP.Chemscore.Metal>  (58) 
0.0000

>  <Gold.Chemscore.Hbonds>  (58) 
donor molecule, donor type, donor heavy atom, donor atom, acceptor molecule, acceptor atom, score
      L1  H     3    23       P1  2902  2.00
      L1  H     3    24       P1  2691  1.00

>  <Gold.PLP.Chemscore.Internal.Correction>  (58) 
0.9007

>  <Gold.PLP.Constraint>  (58) 
-0.0000

>  <Gold.Protein.RotatedTorsions>  (58) 
[  681  677  676  673 ] final  140.10 input -179.99 | X-H torsion
[  702  698  697  694 ] final  -72.82 input  179.99 | X-H torsion
[ 2577 2569 2568 2566 ] final   44.59 input   -0.13 | X-H torsion
[ 2891 2887 2886 2883 ] final    4.66 input  179.98 | X-H torsion
[ 3175 3171 3170 3167 ] final   58.32 input -179.99 | X-H torsion
[ 5278 5270 5269 5267 ] final -134.58 input    0.55 | X-H torsion
[  641  637  636  633 ] final -128.23 input  179.99 | X-H torsion
[ 1886 1878 1877 1875 ] final -149.40 input    1.60 | X-H torsion
[  965  957  956  954 ] final   58.34 input    0.45 | X-H torsion

>  <Gold.Protein.ActiveResidues>  (58) 
 LYS47   THR48   LEU49   GLY50   THR51   GLY52   SER53   PHE54   GLY55   ARG56  
 VAL57   MET58   LEU59   TYR69   ALA70   MET71   LYS72   ILE73   LEU74   GLU91  
 LEU95   VAL104  LYS105  MET118  VAL119  MET120  GLU121  TYR122  VAL123  PRO124 
 GLY125  GLY126  GLU127  MET128  PHE129  TYR164  ASP166  LEU167  LYS168  PRO169 
 GLU170  ASN171  LEU172  LEU173  ILE174  GLN181  VAL182  THR183  ASP184  PHE185 
 GLY186  PHE187  GLY200  THR201  ASN326  PHE327  TYR330  ARG18   ARG19   ASN20  
 ALA21   ILE22   HIS23  

>  <Gold.Protein.RotatedAtoms>  (58) 
   11.1290   19.0439    7.5433 H   0  0  0  0  0  0  0  0  0  0  0  0  # atno 641  bound_to 637 
   17.2467   13.6013    6.5580 H   0  0  0  0  0  0  0  0  0  0  0  0  # atno 681  bound_to 677 
   20.4783   11.6440   -0.2752 H   0  0  0  0  0  0  0  0  0  0  0  0  # atno 702  bound_to 698 
   -7.0665   15.6208   -0.2332 H   0  0  0  0  0  0  0  0  0  0  0  0  # atno 965  bound_to 957 
    0.6576   11.0767   10.9696 H   0  0  0  0  0  0  0  0  0  0  0  0  # atno 1886 bound_to 1878
    9.3258    2.8278   -3.0955 H   0  0  0  0  0  0  0  0  0  0  0  0  # atno 2577 bound_to 2569
    8.1220    5.4847    0.3256 H   0  0  0  0  0  0  0  0  0  0  0  0  # atno 2891 bound_to 2887
   18.4476    2.2287   -1.3520 H   0  0  0  0  0  0  0  0  0  0  0  0  # atno 3175 bound_to 3171
   14.3017    9.9240   10.0585 H   0  0  0  0  0  0  0  0  0  0  0  0  # atno 5278 bound_to 5270
   16.0990   12.5425    6.2449 LP  0  0  0  0  0  0  0  0  0  0  0  0  # atno 5914 bound_to 677 
   15.9225   13.6393    7.4418 LP  0  0  0  0  0  0  0  0  0  0  0  0  # atno 5915 bound_to 677 
   20.8729   11.5870   -1.8174 LP  0  0  0  0  0  0  0  0  0  0  0  0  # atno 5920 bound_to 698 
   19.3285   11.8519   -1.3578 LP  0  0  0  0  0  0  0  0  0  0  0  0  # atno 5921 bound_to 698 
   10.8714    3.1913   -3.2143 LP  0  0  0  0  0  0  0  0  0  0  0  0  # atno 5950 bound_to 2569
   10.3799    1.8955   -2.3506 LP  0  0  0  0  0  0  0  0  0  0  0  0  # atno 5951 bound_to 2569
    7.1420    5.7564    1.5513 LP  0  0  0  0  0  0  0  0  0  0  0  0  # atno 5982 bound_to 2887
    7.9850    6.9762    0.8671 LP  0  0  0  0  0  0  0  0  0  0  0  0  # atno 5983 bound_to 2887
   19.3702    3.0639   -0.3587 LP  0  0  0  0  0  0  0  0  0  0  0  0  # atno 6000 bound_to 3171
   18.1037    2.1993    0.2025 LP  0  0  0  0  0  0  0  0  0  0  0  0  # atno 6001 bound_to 3171
   13.5397   10.2352    8.6949 LP  0  0  0  0  0  0  0  0  0  0  0  0  # atno 6004 bound_to 5270
   12.7093    9.8903   10.0580 LP  0  0  0  0  0  0  0  0  0  0  0  0  # atno 6005 bound_to 5270
   10.6719   19.7722    8.8833 LP  0  0  0  0  0  0  0  0  0  0  0  0  # atno 6055 bound_to 637 
    9.5719   19.2727    7.7846 LP  0  0  0  0  0  0  0  0  0  0  0  0  # atno 6056 bound_to 637 
    1.5971   12.3498   10.7915 LP  0  0  0  0  0  0  0  0  0  0  0  0  # atno 6063 bound_to 1878
    2.0959   10.8684   10.3189 LP  0  0  0  0  0  0  0  0  0  0  0  0  # atno 6064 bound_to 1878
   -6.4425   16.0467   -1.6348 LP  0  0  0  0  0  0  0  0  0  0  0  0  # atno 6067 bound_to 957 
   -6.9232   17.1735   -0.5551 LP  0  0  0  0  0  0  0  0  0  0  0  0  # atno 6068 bound_to 957 

>  <STRIFE_LigEff_Score>  (58) 
2.8984

$$$$
unknown|pharmsElabsTestMulti|sdf|59|dock8
     RDKit          3D

 17 18  0  0  0  0  0  0  0  0999 V2000
   14.1287    7.6179    3.2768 C   0  0  0  0  0  0  0  0  0  0  0  0
   13.1545    8.0158    2.1573 C   0  0  0  0  0  0  0  0  0  0  0  0
   13.3205    7.1230    1.0044 N   0  0  0  0  0  0  0  0  0  0  0  0
   11.6466    8.1826    2.5687 C   0  0  0  0  0  0  0  0  0  0  0  0
   10.6236    7.4181    1.7105 C   0  0  0  0  0  0  0  0  0  0  0  0
    9.2500    8.0623    1.6242 C   0  0  0  0  0  0  0  0  0  0  0  0
    8.7526    8.6385    2.9554 C   0  0  0  0  0  0  0  0  0  0  0  0
    7.3525    9.2143    2.7588 C   0  0  0  0  0  0  0  0  0  0  0  0
    7.1652   10.1368    1.9295 O   0  0  0  0  0  0  0  0  0  0  0  0
    6.2626    8.8846    3.6078 N   0  0  0  0  0  0  0  0  0  0  0  0
    4.9656    9.4424    3.3942 C   0  0  0  0  0  0  0  0  0  0  0  0
    3.8112    8.5827    3.0560 C   0  0  0  0  0  0  0  0  0  0  0  0
    2.9443    9.5120    3.6801 O   0  0  0  0  0  0  0  0  0  0  0  0
    4.0190   10.1670    4.3191 C   0  0  0  0  0  0  0  0  0  0  0  0
    3.9040    9.8871    5.8151 C   0  0  0  0  0  0  0  0  0  0  0  0
    9.7034    9.7432    3.4487 C   0  0  0  0  0  0  0  0  0  0  0  0
   11.2162    9.4757    3.2849 C   0  0  0  0  0  0  0  0  0  0  0  0
  1  2  1  0
  2  3  1  0
  2  4  1  0
  4  5  1  0
  5  6  1  0
  6  7  1  0
  7  8  1  0
  8  9  2  0
  8 10  1  0
 10 11  1  0
 11 12  1  0
 12 13  1  0
 13 14  1  0
 14 15  1  0
  7 16  1  0
 16 17  1  0
 17  4  1  0
 14 11  1  0
M  CHG  1   3   1
M  END
>  <EmbedRMS>  (59) 
0.3235717638598405

>  <Gold.Version>  (59) 
2020.3.0

>  <Gold.Id.Protein>  (59) 
unknown|1q8t_protein|pdb

>  <Gold.PLP.Fitness>  (59) 
51.3856

>  <Gold.PLP.PLP>  (59) 
-41.1699

>  <Gold.PLP.part.hbond>  (59) 
-2.9150

>  <Gold.PLP.part.metal>  (59) 
0.0000

>  <Gold.PLP.part.buried>  (59) 
-3.2701

>  <Gold.PLP.part.nonpolar>  (59) 
-36.4115

>  <Gold.PLP.part.repulsive>  (59) 
0.1836

>  <Gold.PLP.ligand.clash>  (59) 
0.0000

>  <Gold.PLP.ligand.torsion>  (59) 
1.0935

>  <Gold.PLP.Chemscore.Hbond>  (59) 
3.9193

>  <Gold.PLP.Chemscore.CHOScore>  (59) 
0.0000

>  <Gold.PLP.Chemscore.Metal>  (59) 
0.0000

>  <Gold.Chemscore.Hbonds>  (59) 
donor molecule, donor type, donor heavy atom, donor atom, acceptor molecule, acceptor atom, score
      L1  H     3    22       P1  2691  0.99
      L1  H     3    24       P1  2902  2.00
      P1  H  1888  1903       L1    13  0.93

>  <Gold.PLP.Chemscore.Internal.Correction>  (59) 
0.6450

>  <Gold.PLP.Constraint>  (59) 
-0.0000

>  <Gold.Protein.RotatedTorsions>  (59) 
[  681  677  676  673 ] final  -74.29 input -179.99 | X-H torsion
[  702  698  697  694 ] final    4.49 input  179.99 | X-H torsion
[ 2577 2569 2568 2566 ] final -165.84 input   -0.13 | X-H torsion
[ 2891 2887 2886 2883 ] final -109.41 input  179.98 | X-H torsion
[ 3175 3171 3170 3167 ] final  143.48 input -179.99 | X-H torsion
[ 5278 5270 5269 5267 ] final   17.02 input    0.55 | X-H torsion
[  641  637  636  633 ] final -115.23 input  179.99 | X-H torsion
[ 1886 1878 1877 1875 ] final   91.23 input    1.60 | X-H torsion
[  965  957  956  954 ] final  170.36 input    0.45 | X-H torsion

>  <Gold.Protein.ActiveResidues>  (59) 
 LYS47   THR48   LEU49   GLY50   THR51   GLY52   SER53   PHE54   GLY55   ARG56  
 VAL57   MET58   LEU59   TYR69   ALA70   MET71   LYS72   ILE73   LEU74   GLU91  
 LEU95   VAL104  LYS105  MET118  VAL119  MET120  GLU121  TYR122  VAL123  PRO124 
 GLY125  GLY126  GLU127  MET128  PHE129  TYR164  ASP166  LEU167  LYS168  PRO169 
 GLU170  ASN171  LEU172  LEU173  ILE174  GLN181  VAL182  THR183  ASP184  PHE185 
 GLY186  PHE187  GLY200  THR201  ASN326  PHE327  TYR330  ARG18   ARG19   ASN20  
 ALA21   ILE22   HIS23  

>  <Gold.Protein.RotatedAtoms>  (59) 
   10.9764   18.9901    7.4212 H   0  0  0  0  0  0  0  0  0  0  0  0  # atno 641  bound_to 637 
   15.7059   13.3437    7.2571 H   0  0  0  0  0  0  0  0  0  0  0  0  # atno 681  bound_to 677 
   19.4597   11.8328   -0.7002 H   0  0  0  0  0  0  0  0  0  0  0  0  # atno 702  bound_to 698 
   -6.9519   17.0845   -0.4545 H   0  0  0  0  0  0  0  0  0  0  0  0  # atno 965  bound_to 957 
    1.5735   12.3071   10.7757 H   0  0  0  0  0  0  0  0  0  0  0  0  # atno 1886 bound_to 1878
   10.7764    2.1094   -2.4904 H   0  0  0  0  0  0  0  0  0  0  0  0  # atno 2577 bound_to 2569
    7.1732    5.6893    1.4736 H   0  0  0  0  0  0  0  0  0  0  0  0  # atno 2891 bound_to 2887
   17.9351    1.9895   -0.2798 H   0  0  0  0  0  0  0  0  0  0  0  0  # atno 3175 bound_to 3171
   12.6349   10.0249    9.5791 H   0  0  0  0  0  0  0  0  0  0  0  0  # atno 5278 bound_to 5270
   17.1679   13.8476    6.8766 LP  0  0  0  0  0  0  0  0  0  0  0  0  # atno 5914 bound_to 677 
   16.4753   12.6054    6.0742 LP  0  0  0  0  0  0  0  0  0  0  0  0  # atno 5915 bound_to 677 
   21.0242   11.5376   -0.6503 LP  0  0  0  0  0  0  0  0  0  0  0  0  # atno 5920 bound_to 698 
   20.2487   11.7027   -2.0778 LP  0  0  0  0  0  0  0  0  0  0  0  0  # atno 5921 bound_to 698 
    9.2565    2.4518   -2.8192 LP  0  0  0  0  0  0  0  0  0  0  0  0  # atno 5950 bound_to 2569
   10.4674    3.3914   -3.3828 LP  0  0  0  0  0  0  0  0  0  0  0  0  # atno 5951 bound_to 2569
    7.9235    6.9894    0.9415 LP  0  0  0  0  0  0  0  0  0  0  0  0  # atno 5982 bound_to 2887
    8.2020    5.5278    0.2687 LP  0  0  0  0  0  0  0  0  0  0  0  0  # atno 5983 bound_to 2887
   18.8816    2.5624   -1.4251 LP  0  0  0  0  0  0  0  0  0  0  0  0  # atno 6000 bound_to 3171
   19.1315    2.9526    0.1407 LP  0  0  0  0  0  0  0  0  0  0  0  0  # atno 6001 bound_to 3171
   13.9705    9.8140   10.4207 LP  0  0  0  0  0  0  0  0  0  0  0  0  # atno 6004 bound_to 5270
   14.0323   10.2054    8.8366 LP  0  0  0  0  0  0  0  0  0  0  0  0  # atno 6005 bound_to 5270
   10.8735   19.7319    8.8263 LP  0  0  0  0  0  0  0  0  0  0  0  0  # atno 6055 bound_to 637 
    9.5309   19.3697    7.9702 LP  0  0  0  0  0  0  0  0  0  0  0  0  # atno 6056 bound_to 637 
    2.1021   10.8767   10.3176 LP  0  0  0  0  0  0  0  0  0  0  0  0  # atno 6063 bound_to 1878
    0.6268   11.0461   10.9969 LP  0  0  0  0  0  0  0  0  0  0  0  0  # atno 6064 bound_to 1878
   -7.0540   15.5028   -0.3026 LP  0  0  0  0  0  0  0  0  0  0  0  0  # atno 6067 bound_to 957 
   -6.4324   16.1759   -1.6543 LP  0  0  0  0  0  0  0  0  0  0  0  0  # atno 6068 bound_to 957 

>  <STRIFE_LigEff_Score>  (59) 
3.0226823529411764

$$$$
unknown|pharmsElabsTestMulti|sdf|60|dock9
     RDKit          3D

 15 15  0  0  0  0  0  0  0  0999 V2000
   14.2090    9.1876    2.0480 C   0  0  0  0  0  0  0  0  0  0  0  0
   13.2091    8.0497    1.9332 C   0  0  0  0  0  0  0  0  0  0  0  0
   13.4831    7.0871    0.8739 N   0  0  0  0  0  0  0  0  0  0  0  0
   11.7177    8.3979    2.2119 C   0  0  0  0  0  0  0  0  0  0  0  0
   10.7049    7.2456    2.3382 C   0  0  0  0  0  0  0  0  0  0  0  0
    9.2962    7.8250    2.1237 C   0  0  0  0  0  0  0  0  0  0  0  0
    8.9954    8.9266    3.1571 C   0  0  0  0  0  0  0  0  0  0  0  0
    7.6438    9.5378    2.9110 C   0  0  0  0  0  0  0  0  0  0  0  0
    7.3716   10.0799    1.8024 O   0  0  0  0  0  0  0  0  0  0  0  0
    6.6777    9.5207    3.9632 N   0  0  0  0  0  0  0  0  0  0  0  0
    5.3322   10.0536    3.7849 C   0  0  0  0  0  0  0  0  0  0  0  0
    4.3272    9.2573    4.6161 C   0  0  0  0  0  0  0  0  0  0  0  0
    2.9882    9.3797    4.0475 N   0  0  0  0  0  0  0  0  0  0  0  0
   10.0797   10.0203    3.2024 C   0  0  0  0  0  0  0  0  0  0  0  0
   11.4847    9.4169    3.3412 C   0  0  0  0  0  0  0  0  0  0  0  0
  1  2  1  0
  2  3  1  0
  2  4  1  0
  4  5  1  0
  5  6  1  0
  6  7  1  0
  7  8  1  0
  8  9  2  0
  8 10  1  0
 10 11  1  0
 11 12  1  0
 12 13  1  0
  7 14  1  0
 14 15  1  0
 15  4  1  0
M  CHG  1   3   1
M  END
>  <EmbedRMS>  (60) 
0.19998376465474313

>  <Gold.Version>  (60) 
2020.3.0

>  <Gold.Id.Protein>  (60) 
unknown|1q8t_protein|pdb

>  <Gold.PLP.Fitness>  (60) 
39.1162

>  <Gold.PLP.PLP>  (60) 
-27.8717

>  <Gold.PLP.part.hbond>  (60) 
-2.9694

>  <Gold.PLP.part.metal>  (60) 
0.0000

>  <Gold.PLP.part.buried>  (60) 
-1.5669

>  <Gold.PLP.part.nonpolar>  (60) 
-24.1772

>  <Gold.PLP.part.repulsive>  (60) 
0.0531

>  <Gold.PLP.ligand.clash>  (60) 
0.0000

>  <Gold.PLP.ligand.torsion>  (60) 
0.5657

>  <Gold.PLP.Chemscore.Hbond>  (60) 
4.0000

>  <Gold.PLP.Chemscore.CHOScore>  (60) 
0.0000

>  <Gold.PLP.Chemscore.Metal>  (60) 
0.0000

>  <Gold.Chemscore.Hbonds>  (60) 
donor molecule, donor type, donor heavy atom, donor atom, acceptor molecule, acceptor atom, score
      L1  H     3    21       P1  2691  1.00
      L1  H     3    22       P1  2902  2.00
      P1  H  1888  1903       L1    13  1.00

>  <Gold.PLP.Chemscore.Internal.Correction>  (60) 
0.3759

>  <Gold.PLP.Constraint>  (60) 
-0.0000

>  <Gold.Protein.RotatedTorsions>  (60) 
[  681  677  676  673 ] final   93.77 input -179.99 | X-H torsion
[  702  698  697  694 ] final   43.96 input  179.99 | X-H torsion
[ 2577 2569 2568 2566 ] final -103.77 input   -0.13 | X-H torsion
[ 2891 2887 2886 2883 ] final   49.92 input  179.98 | X-H torsion
[ 3175 3171 3170 3167 ] final -143.43 input -179.99 | X-H torsion
[ 5278 5270 5269 5267 ] final  102.99 input    0.55 | X-H torsion
[  641  637  636  633 ] final  174.42 input  179.99 | X-H torsion
[ 1886 1878 1877 1875 ] final  -81.14 input    1.60 | X-H torsion
[  965  957  956  954 ] final -152.76 input    0.45 | X-H torsion

>  <Gold.Protein.ActiveResidues>  (60) 
 LYS47   THR48   LEU49   GLY50   THR51   GLY52   SER53   PHE54   GLY55   ARG56  
 VAL57   MET58   LEU59   TYR69   ALA70   MET71   LYS72   ILE73   LEU74   GLU91  
 LEU95   VAL104  LYS105  MET118  VAL119  MET120  GLU121  TYR122  VAL123  PRO124 
 GLY125  GLY126  GLU127  MET128  PHE129  TYR164  ASP166  LEU167  LYS168  PRO169 
 GLU170  ASN171  LEU172  LEU173  ILE174  GLN181  VAL182  THR183  ASP184  PHE185 
 GLY186  PHE187  GLY200  THR201  ASN326  PHE327  TYR330  ARG18   ARG19   ASN20  
 ALA21   ILE22   HIS23  

>  <Gold.Protein.RotatedAtoms>  (60) 
   11.3327   19.4145    8.2913 H   0  0  0  0  0  0  0  0  0  0  0  0  # atno 641  bound_to 637 
   17.0648   13.0647    6.1387 H   0  0  0  0  0  0  0  0  0  0  0  0  # atno 681  bound_to 677 
   19.3654   11.8610   -1.2973 H   0  0  0  0  0  0  0  0  0  0  0  0  # atno 702  bound_to 698 
   -6.7180   17.1427   -0.9671 H   0  0  0  0  0  0  0  0  0  0  0  0  # atno 965  bound_to 957 
    1.3994   10.5428   10.5515 H   0  0  0  0  0  0  0  0  0  0  0  0  # atno 1886 bound_to 1878
   11.0449    2.8442   -2.9809 H   0  0  0  0  0  0  0  0  0  0  0  0  # atno 2577 bound_to 2569
    8.3397    6.1315    0.2284 H   0  0  0  0  0  0  0  0  0  0  0  0  # atno 2891 bound_to 2887
   18.5689    2.5446    0.3744 H   0  0  0  0  0  0  0  0  0  0  0  0  # atno 3175 bound_to 3171
   13.5011   10.2397    8.7446 H   0  0  0  0  0  0  0  0  0  0  0  0  # atno 5278 bound_to 5270
   15.6307   12.7788    6.7694 LP  0  0  0  0  0  0  0  0  0  0  0  0  # atno 5914 bound_to 677 
   16.5824   13.9678    7.3586 LP  0  0  0  0  0  0  0  0  0  0  0  0  # atno 5915 bound_to 677 
   20.5378   11.6161   -0.2471 LP  0  0  0  0  0  0  0  0  0  0  0  0  # atno 5920 bound_to 698 
   20.8343   11.5945   -1.8528 LP  0  0  0  0  0  0  0  0  0  0  0  0  # atno 5921 bound_to 698 
    9.9191    1.8911   -2.3813 LP  0  0  0  0  0  0  0  0  0  0  0  0  # atno 5950 bound_to 2569
    9.5221    3.1785   -3.3043 LP  0  0  0  0  0  0  0  0  0  0  0  0  # atno 5951 bound_to 2569
    7.3943    5.2216    1.1309 LP  0  0  0  0  0  0  0  0  0  0  0  0  # atno 5982 bound_to 2887
    7.5034    6.8302    1.3898 LP  0  0  0  0  0  0  0  0  0  0  0  0  # atno 5983 bound_to 2887
   18.0185    1.9777   -1.0082 LP  0  0  0  0  0  0  0  0  0  0  0  0  # atno 6000 bound_to 3171
   19.3276    2.9530   -0.9648 LP  0  0  0  0  0  0  0  0  0  0  0  0  # atno 6001 bound_to 3171
   12.7297    9.8823   10.0914 LP  0  0  0  0  0  0  0  0  0  0  0  0  # atno 6004 bound_to 5270
   14.3617    9.9111   10.0439 LP  0  0  0  0  0  0  0  0  0  0  0  0  # atno 6005 bound_to 5270
    9.8043   19.6954    8.6379 LP  0  0  0  0  0  0  0  0  0  0  0  0  # atno 6055 bound_to 637 
   10.2249   18.9593    7.2422 LP  0  0  0  0  0  0  0  0  0  0  0  0  # atno 6056 bound_to 637 
    0.7078   11.8675   11.1013 LP  0  0  0  0  0  0  0  0  0  0  0  0  # atno 6063 bound_to 1878
    2.2043   11.9128   10.4492 LP  0  0  0  0  0  0  0  0  0  0  0  0  # atno 6064 bound_to 1878
   -7.1951   15.9859    0.0175 LP  0  0  0  0  0  0  0  0  0  0  0  0  # atno 6067 bound_to 957 
   -6.5376   15.6314   -1.4346 LP  0  0  0  0  0  0  0  0  0  0  0  0  # atno 6068 bound_to 957 

>  <STRIFE_LigEff_Score>  (60) 
2.6077466666666664

$$$$
unknown|pharmsElabsTestMulti|sdf|61|dock10
     RDKit          3D

 17 17  0  0  0  0  0  0  0  0999 V2000
   13.7156    7.0557    3.5842 C   0  0  0  0  0  0  0  0  0  0  0  0
   13.4864    7.8537    2.2855 C   0  0  0  0  0  0  0  0  0  0  0  0
   13.7508    6.9831    1.1327 N   0  0  0  0  0  0  0  0  0  0  0  0
   12.0423    8.4372    2.2629 C   0  0  0  0  0  0  0  0  0  0  0  0
   11.0101    7.2914    2.3102 C   0  0  0  0  0  0  0  0  0  0  0  0
    9.6026    7.8431    2.1270 C   0  0  0  0  0  0  0  0  0  0  0  0
    9.2775    8.8441    3.2402 C   0  0  0  0  0  0  0  0  0  0  0  0
    7.8805    9.3742    3.0762 C   0  0  0  0  0  0  0  0  0  0  0  0
    7.5181    9.8908    1.9821 O   0  0  0  0  0  0  0  0  0  0  0  0
    6.9745    9.2855    4.1826 N   0  0  0  0  0  0  0  0  0  0  0  0
    5.6129    9.7181    4.1577 C   0  0  0  0  0  0  0  0  0  0  0  0
    5.1147   10.2392    3.1231 O   0  0  0  0  0  0  0  0  0  0  0  0
    4.8411    9.5600    5.3069 O   0  0  0  0  0  0  0  0  0  0  0  0
    3.5910    8.9823    5.2612 N   0  0  0  0  0  0  0  0  0  0  0  0
    2.8428    9.7087    4.3198 N   0  0  0  0  0  0  0  0  0  0  0  0
   10.3068    9.9865    3.2882 C   0  0  0  0  0  0  0  0  0  0  0  0
   11.7390    9.4372    3.4063 C   0  0  0  0  0  0  0  0  0  0  0  0
  1  2  1  0
  2  3  1  0
  2  4  1  0
  4  5  1  0
  5  6  1  0
  6  7  1  0
  7  8  1  0
  8  9  2  0
  8 10  1  0
 10 11  1  0
 11 12  2  0
 11 13  1  0
 13 14  1  0
 14 15  1  0
  7 16  1  0
 16 17  1  0
 17  4  1  0
M  CHG  1   3   1
M  END
>  <EmbedRMS>  (61) 
0.029047894984658724

>  <Gold.Version>  (61) 
2020.3.0

>  <Gold.Id.Protein>  (61) 
unknown|1q8t_protein|pdb

>  <Gold.PLP.Fitness>  (61) 
43.1698

>  <Gold.PLP.PLP>  (61) 
-31.6522

>  <Gold.PLP.part.hbond>  (61) 
-4.4862

>  <Gold.PLP.part.metal>  (61) 
0.0000

>  <Gold.PLP.part.buried>  (61) 
-8.1306

>  <Gold.PLP.part.nonpolar>  (61) 
-19.6137

>  <Gold.PLP.part.repulsive>  (61) 
0.1191

>  <Gold.PLP.ligand.clash>  (61) 
0.0000

>  <Gold.PLP.ligand.torsion>  (61) 
0.2555

>  <Gold.PLP.Chemscore.Hbond>  (61) 
4.0000

>  <Gold.PLP.Chemscore.CHOScore>  (61) 
0.0000

>  <Gold.PLP.Chemscore.Metal>  (61) 
0.0000

>  <Gold.Chemscore.Hbonds>  (61) 
donor molecule, donor type, donor heavy atom, donor atom, acceptor molecule, acceptor atom, score
      L1  H     3    22       P1  2691  1.00
      L1  H     3    23       P1  2902  2.00
      P1  H  1888  1903       L1    15  1.00

>  <Gold.PLP.Chemscore.Internal.Correction>  (61) 
0.0287

>  <Gold.PLP.Constraint>  (61) 
-0.0000

>  <Gold.Protein.RotatedTorsions>  (61) 
[  681  677  676  673 ] final   62.19 input -179.99 | X-H torsion
[  702  698  697  694 ] final   -4.56 input  179.99 | X-H torsion
[ 2577 2569 2568 2566 ] final -141.87 input   -0.13 | X-H torsion
[ 2891 2887 2886 2883 ] final  -41.87 input  179.98 | X-H torsion
[ 3175 3171 3170 3167 ] final   95.92 input -179.99 | X-H torsion
[ 5278 5270 5269 5267 ] final   69.76 input    0.55 | X-H torsion
[  641  637  636  633 ] final  -38.45 input  179.99 | X-H torsion
[ 1886 1878 1877 1875 ] final   23.53 input    1.60 | X-H torsion
[  965  957  956  954 ] final   70.27 input    0.45 | X-H torsion

>  <Gold.Protein.ActiveResidues>  (61) 
 LYS47   THR48   LEU49   GLY50   THR51   GLY52   SER53   PHE54   GLY55   ARG56  
 VAL57   MET58   LEU59   TYR69   ALA70   MET71   LYS72   ILE73   LEU74   GLU91  
 LEU95   VAL104  LYS105  MET118  VAL119  MET120  GLU121  TYR122  VAL123  PRO124 
 GLY125  GLY126  GLU127  MET128  PHE129  TYR164  ASP166  LEU167  LYS168  PRO169 
 GLU170  ASN171  LEU172  LEU173  ILE174  GLN181  VAL182  THR183  ASP184  PHE185 
 GLY186  PHE187  GLY200  THR201  ASN326  PHE327  TYR330  ARG18   ARG19   ASN20  
 ALA21   ILE22   HIS23  

>  <Gold.Protein.RotatedAtoms>  (61) 
    9.8683   19.0727    7.4617 H   0  0  0  0  0  0  0  0  0  0  0  0  # atno 641  bound_to 637 
   16.6977   12.7541    6.0582 H   0  0  0  0  0  0  0  0  0  0  0  0  # atno 681  bound_to 677 
   19.5363   11.8169   -0.5823 H   0  0  0  0  0  0  0  0  0  0  0  0  # atno 702  bound_to 698 
   -7.1153   15.7624   -0.1230 H   0  0  0  0  0  0  0  0  0  0  0  0  # atno 965  bound_to 957 
    2.2343   11.6751   10.3766 H   0  0  0  0  0  0  0  0  0  0  0  0  # atno 1886 bound_to 1878
   10.9945    2.3640   -2.6512 H   0  0  0  0  0  0  0  0  0  0  0  0  # atno 2577 bound_to 2569
    7.6695    5.1798    0.7766 H   0  0  0  0  0  0  0  0  0  0  0  0  # atno 2891 bound_to 2887
   18.0645    1.9923   -0.9905 H   0  0  0  0  0  0  0  0  0  0  0  0  # atno 3175 bound_to 3171
   13.0151   10.1961    8.9011 H   0  0  0  0  0  0  0  0  0  0  0  0  # atno 5278 bound_to 5270
   15.5925   13.1302    7.1414 LP  0  0  0  0  0  0  0  0  0  0  0  0  # atno 5914 bound_to 677 
   17.0069   13.9433    7.0713 LP  0  0  0  0  0  0  0  0  0  0  0  0  # atno 5915 bound_to 677 
   21.0899   11.5286   -0.7835 LP  0  0  0  0  0  0  0  0  0  0  0  0  # atno 5920 bound_to 698 
   20.1024   11.7284   -2.0686 LP  0  0  0  0  0  0  0  0  0  0  0  0  # atno 5921 bound_to 698 
    9.4155    2.1636   -2.6074 LP  0  0  0  0  0  0  0  0  0  0  0  0  # atno 5950 bound_to 2569
   10.0787    3.4116   -3.4254 LP  0  0  0  0  0  0  0  0  0  0  0  0  # atno 5951 bound_to 2569
    7.2642    6.4904    1.5855 LP  0  0  0  0  0  0  0  0  0  0  0  0  # atno 5982 bound_to 2887
    8.3389    6.5630    0.3582 LP  0  0  0  0  0  0  0  0  0  0  0  0  # atno 5983 bound_to 2887
   19.3310    2.9568   -0.9555 LP  0  0  0  0  0  0  0  0  0  0  0  0  # atno 6000 bound_to 3171
   18.5460    2.5553    0.4190 LP  0  0  0  0  0  0  0  0  0  0  0  0  # atno 6001 bound_to 3171
   13.1333    9.8007   10.4394 LP  0  0  0  0  0  0  0  0  0  0  0  0  # atno 6004 bound_to 5270
   14.4694   10.0386    9.5312 LP  0  0  0  0  0  0  0  0  0  0  0  0  # atno 6005 bound_to 5270
   11.3900   19.2312    7.9022 LP  0  0  0  0  0  0  0  0  0  0  0  0  # atno 6055 bound_to 637 
   10.1815   19.7834    8.8515 LP  0  0  0  0  0  0  0  0  0  0  0  0  # atno 6056 bound_to 637 
    1.1772   10.5197   10.6645 LP  0  0  0  0  0  0  0  0  0  0  0  0  # atno 6063 bound_to 1878
    0.8561   12.0685   11.0702 LP  0  0  0  0  0  0  0  0  0  0  0  0  # atno 6064 bound_to 1878
   -6.4712   15.8621   -1.5757 LP  0  0  0  0  0  0  0  0  0  0  0  0  # atno 6067 bound_to 957 
   -6.8431   17.2089   -0.7303 LP  0  0  0  0  0  0  0  0  0  0  0  0  # atno 6068 bound_to 957 

>  <STRIFE_LigEff_Score>  (61) 
2.5394

$$$$
unknown|pharmsElabsTestMulti|sdf|62|dock1
     RDKit          3D

 18 19  0  0  0  0  0  0  0  0999 V2000
   13.9393    7.2526    3.3634 C   0  0  0  0  0  0  0  0  0  0  0  0
   13.5825    8.0963    2.1238 C   0  0  0  0  0  0  0  0  0  0  0  0
   13.8120    7.2956    0.9142 N   0  0  0  0  0  0  0  0  0  0  0  0
   12.1127    8.6009    2.2246 C   0  0  0  0  0  0  0  0  0  0  0  0
   11.1466    7.4000    2.2962 C   0  0  0  0  0  0  0  0  0  0  0  0
    9.7037    7.8816    2.2360 C   0  0  0  0  0  0  0  0  0  0  0  0
    9.4119    8.8227    3.4095 C   0  0  0  0  0  0  0  0  0  0  0  0
    7.9911    9.2936    3.3546 C   0  0  0  0  0  0  0  0  0  0  0  0
    7.6122   10.2567    4.0786 O   0  0  0  0  0  0  0  0  0  0  0  0
    7.0677    8.6236    2.4919 N   0  0  0  0  0  0  0  0  0  0  0  0
    5.6982    9.0760    2.2956 C   0  0  0  0  0  0  0  0  0  0  0  0
    4.8057    8.5973    3.4513 C   0  0  0  0  0  0  0  0  0  0  0  0
    5.0788    9.3930    4.7110 C   0  0  0  0  0  0  0  0  0  0  0  0
    3.7611   10.0840    5.0069 C   0  0  0  0  0  0  0  0  0  0  0  0
    2.9676   10.0429    3.8496 O   0  0  0  0  0  0  0  0  0  0  0  0
    3.3207    8.8508    3.2017 C   0  0  0  0  0  0  0  0  0  0  0  0
   10.3819   10.0154    3.4310 C   0  0  0  0  0  0  0  0  0  0  0  0
   11.8429    9.5392    3.4268 C   0  0  0  0  0  0  0  0  0  0  0  0
  1  2  1  0
  2  3  1  0
  2  4  1  0
  4  5  1  0
  5  6  1  0
  6  7  1  0
  7  8  1  0
  8  9  2  0
  8 10  1  0
 10 11  1  0
 11 12  1  0
 12 13  1  0
 13 14  1  0
 14 15  1  0
 15 16  1  0
  7 17  1  0
 17 18  1  0
 18  4  1  0
 16 12  1  0
M  CHG  1   3   1
M  END
>  <EmbedRMS>  (62) 
0.04148526611260124

>  <Gold.Version>  (62) 
2020.3.0

>  <Gold.Id.Protein>  (62) 
unknown|1q8t_protein|pdb

>  <Gold.PLP.Fitness>  (62) 
56.8342

>  <Gold.PLP.PLP>  (62) 
-43.9968

>  <Gold.PLP.part.hbond>  (62) 
-3.9327

>  <Gold.PLP.part.metal>  (62) 
0.0000

>  <Gold.PLP.part.buried>  (62) 
-4.9871

>  <Gold.PLP.part.nonpolar>  (62) 
-35.9011

>  <Gold.PLP.part.repulsive>  (62) 
0.1784

>  <Gold.PLP.ligand.clash>  (62) 
0.0000

>  <Gold.PLP.ligand.torsion>  (62) 
0.6129

>  <Gold.PLP.Chemscore.Hbond>  (62) 
4.6338

>  <Gold.PLP.Chemscore.CHOScore>  (62) 
0.0000

>  <Gold.PLP.Chemscore.Metal>  (62) 
0.0000

>  <Gold.Chemscore.Hbonds>  (62) 
donor molecule, donor type, donor heavy atom, donor atom, acceptor molecule, acceptor atom, score
      L1  H     3    24       P1  2902  2.00
      L1  H     3    25       P1  2691  1.00
      L1  H    10    32       P1  2887  1.00
      P1  H  1888  1903       L1    15  0.63

>  <Gold.PLP.Chemscore.Internal.Correction>  (62) 
0.1619

>  <Gold.PLP.Constraint>  (62) 
-0.0000

>  <Gold.Protein.RotatedTorsions>  (62) 
[  681  677  676  673 ] final  -18.03 input -179.99 | X-H torsion
[  702  698  697  694 ] final   -1.20 input  179.99 | X-H torsion
[ 2577 2569 2568 2566 ] final  -27.85 input   -0.13 | X-H torsion
[ 2891 2887 2886 2883 ] final  -50.42 input  179.98 | X-H torsion
[ 3175 3171 3170 3167 ] final   69.82 input -179.99 | X-H torsion
[ 5278 5270 5269 5267 ] final   -3.38 input    0.55 | X-H torsion
[  641  637  636  633 ] final  -15.85 input  179.99 | X-H torsion
[ 1886 1878 1877 1875 ] final  -38.54 input    1.60 | X-H torsion
[  965  957  956  954 ] final -138.06 input    0.45 | X-H torsion

>  <Gold.Protein.ActiveResidues>  (62) 
 LYS47   THR48   LEU49   GLY50   THR51   GLY52   SER53   PHE54   GLY55   ARG56  
 VAL57   MET58   LEU59   TYR69   ALA70   MET71   LYS72   ILE73   LEU74   GLU91  
 LEU95   VAL104  LYS105  MET118  VAL119  MET120  GLU121  TYR122  VAL123  PRO124 
 GLY125  GLY126  GLU127  MET128  PHE129  TYR164  ASP166  LEU167  LYS168  PRO169 
 GLU170  ASN171  LEU172  LEU173  ILE174  GLN181  VAL182  THR183  ASP184  PHE185 
 GLY186  PHE187  GLY200  THR201  ASN326  PHE327  TYR330  ARG18   ARG19   ASN20  
 ALA21   ILE22   HIS23  

>  <Gold.Protein.RotatedAtoms>  (62) 
    9.6598   19.2101    7.7081 H   0  0  0  0  0  0  0  0  0  0  0  0  # atno 641  bound_to 637 
   15.7130   12.7460    6.6602 H   0  0  0  0  0  0  0  0  0  0  0  0  # atno 681  bound_to 677 
   19.5057   11.8232   -0.6246 H   0  0  0  0  0  0  0  0  0  0  0  0  # atno 702  bound_to 698 
   -6.6294   17.0648   -1.1633 H   0  0  0  0  0  0  0  0  0  0  0  0  # atno 965  bound_to 957 
    1.9634   10.7929   10.3455 H   0  0  0  0  0  0  0  0  0  0  0  0  # atno 1886 bound_to 1878
   10.1777    3.3708   -3.4101 H   0  0  0  0  0  0  0  0  0  0  0  0  # atno 2577 bound_to 2569
    7.5828    5.1837    0.8780 H   0  0  0  0  0  0  0  0  0  0  0  0  # atno 2891 bound_to 2887
   18.3130    2.1392   -1.2738 H   0  0  0  0  0  0  0  0  0  0  0  0  # atno 3175 bound_to 3171
   12.6792    9.9500    9.8844 H   0  0  0  0  0  0  0  0  0  0  0  0  # atno 5278 bound_to 5270
   16.4595   13.9388    7.4059 LP  0  0  0  0  0  0  0  0  0  0  0  0  # atno 5914 bound_to 677 
   17.1762   13.1432    6.1731 LP  0  0  0  0  0  0  0  0  0  0  0  0  # atno 5915 bound_to 677 
   21.0679   11.5315   -0.7328 LP  0  0  0  0  0  0  0  0  0  0  0  0  # atno 5920 bound_to 698 
   20.1565   11.7189   -2.0748 LP  0  0  0  0  0  0  0  0  0  0  0  0  # atno 5921 bound_to 698 
   10.9921    2.2857   -2.5766 LP  0  0  0  0  0  0  0  0  0  0  0  0  # atno 5950 bound_to 2569
    9.3621    2.2294   -2.6570 LP  0  0  0  0  0  0  0  0  0  0  0  0  # atno 5951 bound_to 2569
    7.3264    6.6086    1.5417 LP  0  0  0  0  0  0  0  0  0  0  0  0  # atno 5982 bound_to 2887
    8.3679    6.4408    0.2952 LP  0  0  0  0  0  0  0  0  0  0  0  0  # atno 5983 bound_to 2887
   19.3926    3.0560   -0.5461 LP  0  0  0  0  0  0  0  0  0  0  0  0  # atno 6000 bound_to 3171
   18.2229    2.3014    0.3077 LP  0  0  0  0  0  0  0  0  0  0  0  0  # atno 6001 bound_to 3171
   14.2336    9.8659   10.2216 LP  0  0  0  0  0  0  0  0  0  0  0  0  # atno 6004 bound_to 5270
   13.7226   10.2323    8.7145 LP  0  0  0  0  0  0  0  0  0  0  0  0  # atno 6005 bound_to 5270
   11.2430   19.0836    7.5972 LP  0  0  0  0  0  0  0  0  0  0  0  0  # atno 6055 bound_to 637 
   10.5481   19.7863    8.8972 LP  0  0  0  0  0  0  0  0  0  0  0  0  # atno 6056 bound_to 637 
    0.5882   11.1960   11.0395 LP  0  0  0  0  0  0  0  0  0  0  0  0  # atno 6063 bound_to 1878
    1.7302   12.3209   10.7279 LP  0  0  0  0  0  0  0  0  0  0  0  0  # atno 6064 bound_to 1878
   -7.2108   16.2233    0.0569 LP  0  0  0  0  0  0  0  0  0  0  0  0  # atno 6067 bound_to 957 
   -6.6152   15.4761   -1.2673 LP  0  0  0  0  0  0  0  0  0  0  0  0  # atno 6068 bound_to 957 

>  <STRIFE_LigEff_Score>  (62) 
3.157455555555556

$$$$
unknown|pharmsElabsTestMulti|sdf|63|dock1
     RDKit          3D

 18 18  0  0  0  0  0  0  0  0999 V2000
   14.8232    7.8936    3.2238 C   0  0  0  0  0  0  0  0  0  0  0  0
   13.5690    7.7888    2.3577 C   0  0  0  0  0  0  0  0  0  0  0  0
   13.6619    8.6093    1.1484 N   0  0  0  0  0  0  0  0  0  0  0  0
   12.1863    7.9016    3.0458 C   0  0  0  0  0  0  0  0  0  0  0  0
   11.0695    7.1431    2.3137 C   0  0  0  0  0  0  0  0  0  0  0  0
    9.6442    7.5571    2.6402 C   0  0  0  0  0  0  0  0  0  0  0  0
    9.4864    9.0512    2.7671 C   0  0  0  0  0  0  0  0  0  0  0  0
    8.0602    9.5160    2.7689 C   0  0  0  0  0  0  0  0  0  0  0  0
    7.5381    9.6044    3.9073 O   0  0  0  0  0  0  0  0  0  0  0  0
    7.2683    9.8410    1.6123 N   0  0  0  0  0  0  0  0  0  0  0  0
    5.8486   10.1682    1.8132 C   0  0  0  0  0  0  0  0  0  0  0  0
    5.0464    8.9883    2.3535 C   0  0  0  0  0  0  0  0  0  0  0  0
    4.9492    9.0693    3.8126 N   0  0  0  0  0  0  0  0  0  0  0  0
    3.7339    9.4387    4.4676 C   0  0  0  0  0  0  0  0  0  0  0  0
    2.7030    9.7112    3.7960 O   0  0  0  0  0  0  0  0  0  0  0  0
    3.6913    9.4977    5.8567 O   0  0  0  0  0  0  0  0  0  0  0  0
   10.4376    9.7495    3.6980 C   0  0  0  0  0  0  0  0  0  0  0  0
   11.8928    9.3780    3.4223 C   0  0  0  0  0  0  0  0  0  0  0  0
  1  2  1  0
  2  3  1  0
  2  4  1  0
  4  5  1  0
  5  6  1  0
  6  7  1  0
  7  8  1  0
  8  9  2  0
  8 10  1  0
 10 11  1  0
 11 12  1  0
 12 13  1  0
 13 14  1  0
 14 15  2  0
 14 16  1  0
  7 17  1  0
 17 18  1  0
 18  4  1  0
M  CHG  1   3   1
M  END
>  <EmbedRMS>  (63) 
0.2924325341636962

>  <Gold.Version>  (63) 
2020.3.0

>  <Gold.Id.Protein>  (63) 
unknown|1q8t_protein|pdb

>  <Gold.PLP.Fitness>  (63) 
46.6133

>  <Gold.PLP.PLP>  (63) 
-36.1190

>  <Gold.PLP.part.hbond>  (63) 
-3.0000

>  <Gold.PLP.part.metal>  (63) 
0.0000

>  <Gold.PLP.part.buried>  (63) 
-5.7106

>  <Gold.PLP.part.nonpolar>  (63) 
-28.0575

>  <Gold.PLP.part.repulsive>  (63) 
0.3775

>  <Gold.PLP.ligand.clash>  (63) 
0.0000

>  <Gold.PLP.ligand.torsion>  (63) 
1.0809

>  <Gold.PLP.Chemscore.Hbond>  (63) 
3.9680

>  <Gold.PLP.Chemscore.CHOScore>  (63) 
0.0000

>  <Gold.PLP.Chemscore.Metal>  (63) 
0.0000

>  <Gold.Chemscore.Hbonds>  (63) 
donor molecule, donor type, donor heavy atom, donor atom, acceptor molecule, acceptor atom, score
      L1  H     3    24       P1  2902  2.00
      L1  H    16    38       P1  1891  0.99
      P1  H  1888  1903       L1    15  0.98

>  <Gold.PLP.Chemscore.Internal.Correction>  (63) 
0.7522

>  <Gold.PLP.Constraint>  (63) 
-0.0000

>  <Gold.Protein.RotatedTorsions>  (63) 
[  681  677  676  673 ] final    7.93 input -179.99 | X-H torsion
[  702  698  697  694 ] final -129.32 input  179.99 | X-H torsion
[ 2577 2569 2568 2566 ] final  -65.63 input   -0.13 | X-H torsion
[ 2891 2887 2886 2883 ] final   34.31 input  179.98 | X-H torsion
[ 3175 3171 3170 3167 ] final -168.30 input -179.99 | X-H torsion
[ 5278 5270 5269 5267 ] final  119.06 input    0.55 | X-H torsion
[  641  637  636  633 ] final   92.99 input  179.99 | X-H torsion
[ 1886 1878 1877 1875 ] final -107.71 input    1.60 | X-H torsion
[  965  957  956  954 ] final   83.46 input    0.45 | X-H torsion

>  <Gold.Protein.ActiveResidues>  (63) 
 LYS47   THR48   LEU49   GLY50   THR51   GLY52   SER53   PHE54   GLY55   ARG56  
 VAL57   MET58   LEU59   TYR69   ALA70   MET71   LYS72   ILE73   LEU74   GLU91  
 LEU95   VAL104  LYS105  MET118  VAL119  MET120  GLU121  TYR122  VAL123  PRO124 
 GLY125  GLY126  GLU127  MET128  PHE129  TYR164  ASP166  LEU167  LYS168  PRO169 
 GLU170  ASN171  LEU172  LEU173  ILE174  GLN181  VAL182  THR183  ASP184  PHE185 
 GLY186  PHE187  GLY200  THR201  ASN326  PHE327  TYR330  ARG18   ARG19   ASN20  
 ALA21   ILE22   HIS23  

>  <Gold.Protein.RotatedAtoms>  (63) 
   10.3694   19.7568    8.8563 H   0  0  0  0  0  0  0  0  0  0  0  0  # atno 641  bound_to 637 
   15.9577   12.6082    6.3720 H   0  0  0  0  0  0  0  0  0  0  0  0  # atno 681  bound_to 677 
   21.0751   11.5497   -0.8707 H   0  0  0  0  0  0  0  0  0  0  0  0  # atno 702  bound_to 698 
   -7.1537   15.9443   -0.0349 H   0  0  0  0  0  0  0  0  0  0  0  0  # atno 965  bound_to 957 
    1.0358   10.6251   10.7258 H   0  0  0  0  0  0  0  0  0  0  0  0  # atno 1886 bound_to 1878
   10.7255    3.2355   -3.2760 H   0  0  0  0  0  0  0  0  0  0  0  0  # atno 2577 bound_to 2569
    8.3018    5.8915    0.2148 H   0  0  0  0  0  0  0  0  0  0  0  0  # atno 2891 bound_to 2887
   18.2739    2.3140    0.2818 H   0  0  0  0  0  0  0  0  0  0  0  0  # atno 3175 bound_to 3171
   13.7501   10.2357    8.7714 H   0  0  0  0  0  0  0  0  0  0  0  0  # atno 5278 bound_to 5270
   16.0798   13.7606    7.4644 LP  0  0  0  0  0  0  0  0  0  0  0  0  # atno 5914 bound_to 677 
   17.2984   13.4664    6.4179 LP  0  0  0  0  0  0  0  0  0  0  0  0  # atno 5915 bound_to 677 
   20.0265   11.7416   -2.0544 LP  0  0  0  0  0  0  0  0  0  0  0  0  # atno 5920 bound_to 698 
   19.5471   11.7965   -0.4943 LP  0  0  0  0  0  0  0  0  0  0  0  0  # atno 5921 bound_to 698 
   10.5330    1.9401   -2.3703 LP  0  0  0  0  0  0  0  0  0  0  0  0  # atno 5950 bound_to 2569
    9.2445    2.7175   -3.0045 LP  0  0  0  0  0  0  0  0  0  0  0  0  # atno 5951 bound_to 2569
    7.2711    5.3610    1.3069 LP  0  0  0  0  0  0  0  0  0  0  0  0  # atno 5982 bound_to 2887
    7.6665    6.9434    1.2280 LP  0  0  0  0  0  0  0  0  0  0  0  0  # atno 5983 bound_to 2887
   18.2633    2.1209   -1.2988 LP  0  0  0  0  0  0  0  0  0  0  0  0  # atno 6000 bound_to 3171
   19.3934    3.0526   -0.5767 LP  0  0  0  0  0  0  0  0  0  0  0  0  # atno 6001 bound_to 3171
   12.6232    9.9390    9.8571 LP  0  0  0  0  0  0  0  0  0  0  0  0  # atno 6004 bound_to 5270
   14.2061    9.8586   10.2501 LP  0  0  0  0  0  0  0  0  0  0  0  0  # atno 6005 bound_to 5270
    9.7114   19.1417    7.5434 LP  0  0  0  0  0  0  0  0  0  0  0  0  # atno 6055 bound_to 637 
   11.3323   19.1524    7.7416 LP  0  0  0  0  0  0  0  0  0  0  0  0  # atno 6056 bound_to 637 
    0.9916   12.1872   11.0307 LP  0  0  0  0  0  0  0  0  0  0  0  0  # atno 6063 bound_to 1878
    2.3034   11.5064   10.3363 LP  0  0  0  0  0  0  0  0  0  0  0  0  # atno 6064 bound_to 1878
   -6.5204   15.6788   -1.4714 LP  0  0  0  0  0  0  0  0  0  0  0  0  # atno 6067 bound_to 957 
   -6.7535   17.2007   -0.9273 LP  0  0  0  0  0  0  0  0  0  0  0  0  # atno 6068 bound_to 957 

>  <STRIFE_LigEff_Score>  (63) 
2.589627777777778

$$$$
unknown|pharmsElabsTestMulti|sdf|64|dock10
     RDKit          3D

 17 17  0  0  0  0  0  0  0  0999 V2000
   13.8258    7.6590    3.4488 C   0  0  0  0  0  0  0  0  0  0  0  0
   12.9707    8.0432    2.2319 C   0  0  0  0  0  0  0  0  0  0  0  0
   13.2310    7.1203    1.1213 N   0  0  0  0  0  0  0  0  0  0  0  0
   11.4366    8.2385    2.4965 C   0  0  0  0  0  0  0  0  0  0  0  0
   10.4917    7.5973    1.4627 C   0  0  0  0  0  0  0  0  0  0  0  0
    9.1466    8.2818    1.3146 C   0  0  0  0  0  0  0  0  0  0  0  0
    8.5779    8.7400    2.6510 C   0  0  0  0  0  0  0  0  0  0  0  0
    7.1976    9.2978    2.4384 C   0  0  0  0  0  0  0  0  0  0  0  0
    6.6642    9.2619    1.2921 O   0  0  0  0  0  0  0  0  0  0  0  0
    6.5060    9.8930    3.5369 N   0  0  0  0  0  0  0  0  0  0  0  0
    5.1594   10.4226    3.4004 C   0  0  0  0  0  0  0  0  0  0  0  0
    4.0320    9.4116    3.7809 C   0  0  0  0  0  0  0  0  0  0  0  0
    3.7517    8.4887    2.6145 C   0  0  0  0  0  0  0  0  0  0  0  0
    3.8985    9.2898    5.2850 C   0  0  0  0  0  0  0  0  0  0  0  0
    2.8217    9.7368    3.7362 O   0  0  0  0  0  0  0  0  0  0  0  0
    9.4734    9.8057    3.2911 C   0  0  0  0  0  0  0  0  0  0  0  0
   10.9782    9.4782    3.2929 C   0  0  0  0  0  0  0  0  0  0  0  0
  1  2  1  0
  2  3  1  0
  2  4  1  0
  4  5  1  0
  5  6  1  0
  6  7  1  0
  7  8  1  0
  8  9  2  0
  8 10  1  0
 10 11  1  0
 11 12  1  0
 12 13  1  0
 12 14  1  0
 12 15  1  0
  7 16  1  0
 16 17  1  0
 17  4  1  0
M  CHG  1   3   1
M  END
>  <EmbedRMS>  (64) 
0.6861464654853324

>  <Gold.Version>  (64) 
2020.3.0

>  <Gold.Id.Protein>  (64) 
unknown|1q8t_protein|pdb

>  <Gold.PLP.Fitness>  (64) 
52.3590

>  <Gold.PLP.PLP>  (64) 
-41.9079

>  <Gold.PLP.part.hbond>  (64) 
-3.7556

>  <Gold.PLP.part.metal>  (64) 
0.0000

>  <Gold.PLP.part.buried>  (64) 
-2.1749

>  <Gold.PLP.part.nonpolar>  (64) 
-36.4611

>  <Gold.PLP.part.repulsive>  (64) 
0.0417

>  <Gold.PLP.ligand.clash>  (64) 
0.0000

>  <Gold.PLP.ligand.torsion>  (64) 
1.2213

>  <Gold.PLP.Chemscore.Hbond>  (64) 
3.9840

>  <Gold.PLP.Chemscore.CHOScore>  (64) 
0.0000

>  <Gold.PLP.Chemscore.Metal>  (64) 
0.0000

>  <Gold.Chemscore.Hbonds>  (64) 
donor molecule, donor type, donor heavy atom, donor atom, acceptor molecule, acceptor atom, score
      L1  H     3    22       P1  2691  0.99
      L1  H     3    24       P1  2902  2.00
      P1  H  1888  1903       L1    15  0.99

>  <Gold.PLP.Chemscore.Internal.Correction>  (64) 
0.9416

>  <Gold.PLP.Constraint>  (64) 
-0.0000

>  <Gold.Protein.RotatedTorsions>  (64) 
[  681  677  676  673 ] final   23.20 input -179.99 | X-H torsion
[  702  698  697  694 ] final  169.37 input  179.99 | X-H torsion
[ 2577 2569 2568 2566 ] final   43.00 input   -0.13 | X-H torsion
[ 2891 2887 2886 2883 ] final  -49.95 input  179.98 | X-H torsion
[ 3175 3171 3170 3167 ] final   64.92 input -179.99 | X-H torsion
[ 5278 5270 5269 5267 ] final -155.56 input    0.55 | X-H torsion
[  641  637  636  633 ] final -131.52 input  179.99 | X-H torsion
[ 1886 1878 1877 1875 ] final  -28.65 input    1.60 | X-H torsion
[  965  957  956  954 ] final  -19.13 input    0.45 | X-H torsion

>  <Gold.Protein.ActiveResidues>  (64) 
 LYS47   THR48   LEU49   GLY50   THR51   GLY52   SER53   PHE54   GLY55   ARG56  
 VAL57   MET58   LEU59   TYR69   ALA70   MET71   LYS72   ILE73   LEU74   GLU91  
 LEU95   VAL104  LYS105  MET118  VAL119  MET120  GLU121  TYR122  VAL123  PRO124 
 GLY125  GLY126  GLU127  MET128  PHE129  TYR164  ASP166  LEU167  LYS168  PRO169 
 GLU170  ASN171  LEU172  LEU173  ILE174  GLN181  VAL182  THR183  ASP184  PHE185 
 GLY186  PHE187  GLY200  THR201  ASN326  PHE327  TYR330  ARG18   ARG19   ASN20  
 ALA21   ILE22   HIS23  

>  <Gold.Protein.RotatedAtoms>  (64) 
   11.1625   19.0602    7.5788 H   0  0  0  0  0  0  0  0  0  0  0  0  # atno 641  bound_to 637 
   16.1504   12.5892    6.2338 H   0  0  0  0  0  0  0  0  0  0  0  0  # atno 681  bound_to 677 
   20.8679   11.6036   -1.7593 H   0  0  0  0  0  0  0  0  0  0  0  0  # atno 702  bound_to 698 
   -6.6048   15.5251   -1.2497 H   0  0  0  0  0  0  0  0  0  0  0  0  # atno 965  bound_to 957 
    2.0632   10.9084   10.3212 H   0  0  0  0  0  0  0  0  0  0  0  0  # atno 1886 bound_to 1878
    9.3335    2.8474   -3.1085 H   0  0  0  0  0  0  0  0  0  0  0  0  # atno 2577 bound_to 2569
    7.5875    5.1830    0.8724 H   0  0  0  0  0  0  0  0  0  0  0  0  # atno 2891 bound_to 2887
   18.3689    2.1758   -1.3110 H   0  0  0  0  0  0  0  0  0  0  0  0  # atno 3175 bound_to 3171
   14.4137    9.9985    9.7613 H   0  0  0  0  0  0  0  0  0  0  0  0  # atno 5278 bound_to 5270
   15.8859   13.6056    7.4309 LP  0  0  0  0  0  0  0  0  0  0  0  0  # atno 5914 bound_to 677 
   17.2894   13.6414    6.5969 LP  0  0  0  0  0  0  0  0  0  0  0  0  # atno 5915 bound_to 677 
   19.3376   11.8509   -1.3926 LP  0  0  0  0  0  0  0  0  0  0  0  0  # atno 5920 bound_to 698 
   20.4539   11.6305   -0.2213 LP  0  0  0  0  0  0  0  0  0  0  0  0  # atno 5921 bound_to 698 
   10.8887    3.1759   -3.2023 LP  0  0  0  0  0  0  0  0  0  0  0  0  # atno 5950 bound_to 2569
   10.3544    1.8903   -2.3488 LP  0  0  0  0  0  0  0  0  0  0  0  0  # atno 5951 bound_to 2569
    7.3228    6.6024    1.5445 LP  0  0  0  0  0  0  0  0  0  0  0  0  # atno 5982 bound_to 2887
    8.3667    6.4478    0.2983 LP  0  0  0  0  0  0  0  0  0  0  0  0  # atno 5983 bound_to 2887
   19.3868    3.0622   -0.4660 LP  0  0  0  0  0  0  0  0  0  0  0  0  # atno 6000 bound_to 3171
   18.1698    2.2568    0.2668 LP  0  0  0  0  0  0  0  0  0  0  0  0  # atno 6001 bound_to 3171
   13.2016   10.2177    8.7515 LP  0  0  0  0  0  0  0  0  0  0  0  0  # atno 6004 bound_to 5270
   12.9296    9.8295   10.3141 LP  0  0  0  0  0  0  0  0  0  0  0  0  # atno 6005 bound_to 5270
   10.6187   19.7792    8.8911 LP  0  0  0  0  0  0  0  0  0  0  0  0  # atno 6055 bound_to 637 
    9.5898   19.2486    7.7394 LP  0  0  0  0  0  0  0  0  0  0  0  0  # atno 6056 bound_to 637 
    0.6275   11.0442   10.9963 LP  0  0  0  0  0  0  0  0  0  0  0  0  # atno 6063 bound_to 1878
    1.5859   12.3512   10.7966 LP  0  0  0  0  0  0  0  0  0  0  0  0  # atno 6064 bound_to 1878
   -6.6414   17.1151   -1.1753 LP  0  0  0  0  0  0  0  0  0  0  0  0  # atno 6067 bound_to 957 
   -7.2105   16.2058    0.0560 LP  0  0  0  0  0  0  0  0  0  0  0  0  # atno 6068 bound_to 957 

>  <STRIFE_LigEff_Score>  (64) 
3.079941176470588

$$$$
unknown|pharmsElabsTestMulti|sdf|65|dock4
     RDKit          3D

 18 18  0  0  0  0  0  0  0  0999 V2000
   14.0728    9.2714    1.3992 C   0  0  0  0  0  0  0  0  0  0  0  0
   13.5936    7.9655    2.0314 C   0  0  0  0  0  0  0  0  0  0  0  0
   13.7320    6.8271    1.1209 N   0  0  0  0  0  0  0  0  0  0  0  0
   12.2389    7.9630    2.7814 C   0  0  0  0  0  0  0  0  0  0  0  0
   11.1532    7.1291    2.0866 C   0  0  0  0  0  0  0  0  0  0  0  0
    9.7175    7.4259    2.4819 C   0  0  0  0  0  0  0  0  0  0  0  0
    9.4501    8.9009    2.6335 C   0  0  0  0  0  0  0  0  0  0  0  0
    7.9933    9.2425    2.7065 C   0  0  0  0  0  0  0  0  0  0  0  0
    7.3178    8.8909    1.7090 O   0  0  0  0  0  0  0  0  0  0  0  0
    7.3453    9.9494    3.7781 N   0  0  0  0  0  0  0  0  0  0  0  0
    5.9517   10.4004    3.6405 C   0  0  0  0  0  0  0  0  0  0  0  0
    5.1724   10.1996    4.9445 C   0  0  0  0  0  0  0  0  0  0  0  0
    3.7507    9.9352    4.6900 N   0  0  0  0  0  0  0  0  0  0  0  0
    3.5996    8.5791    4.1626 C   0  0  0  0  0  0  0  0  0  0  0  0
    3.6087    8.6066    2.6384 C   0  0  0  0  0  0  0  0  0  0  0  0
    3.0573    9.8108    2.1857 O   0  0  0  0  0  0  0  0  0  0  0  0
   10.3829    9.6624    3.5346 C   0  0  0  0  0  0  0  0  0  0  0  0
   11.8497    9.4077    3.1939 C   0  0  0  0  0  0  0  0  0  0  0  0
  1  2  1  0
  2  3  1  0
  2  4  1  0
  4  5  1  0
  5  6  1  0
  6  7  1  0
  7  8  1  0
  8  9  2  0
  8 10  1  0
 10 11  1  0
 11 12  1  0
 12 13  1  0
 13 14  1  0
 14 15  1  0
 15 16  1  0
  7 17  1  0
 17 18  1  0
 18  4  1  0
M  CHG  1   3   1
M  END
>  <EmbedRMS>  (65) 
0.29448169156509657

>  <Gold.Version>  (65) 
2020.3.0

>  <Gold.Id.Protein>  (65) 
unknown|1q8t_protein|pdb

>  <Gold.PLP.Fitness>  (65) 
51.8243

>  <Gold.PLP.PLP>  (65) 
-40.6818

>  <Gold.PLP.part.hbond>  (65) 
-3.5951

>  <Gold.PLP.part.metal>  (65) 
0.0000

>  <Gold.PLP.part.buried>  (65) 
-4.5024

>  <Gold.PLP.part.nonpolar>  (65) 
-31.9001

>  <Gold.PLP.part.repulsive>  (65) 
0.0750

>  <Gold.PLP.ligand.clash>  (65) 
0.0000

>  <Gold.PLP.ligand.torsion>  (65) 
2.0954

>  <Gold.PLP.Chemscore.Hbond>  (65) 
4.7771

>  <Gold.PLP.Chemscore.CHOScore>  (65) 
0.0000

>  <Gold.PLP.Chemscore.Metal>  (65) 
0.0000

>  <Gold.Chemscore.Hbonds>  (65) 
donor molecule, donor type, donor heavy atom, donor atom, acceptor molecule, acceptor atom, score
      L1  H     3    23       P1  2691  0.78
      L1  H     3    25       P1  2902  2.00
      L1  H    16    42       P1  1855  1.00
      P1  H  2887  2891       L1     9  1.00

>  <Gold.PLP.Chemscore.Internal.Correction>  (65) 
1.0019

>  <Gold.PLP.Constraint>  (65) 
-0.0000

>  <Gold.Protein.RotatedTorsions>  (65) 
[  681  677  676  673 ] final  134.51 input -179.99 | X-H torsion
[  702  698  697  694 ] final  165.91 input  179.99 | X-H torsion
[ 2577 2569 2568 2566 ] final   -8.47 input   -0.13 | X-H torsion
[ 2891 2887 2886 2883 ] final  158.62 input  179.98 | X-H torsion
[ 3175 3171 3170 3167 ] final -108.27 input -179.99 | X-H torsion
[ 5278 5270 5269 5267 ] final -116.40 input    0.55 | X-H torsion
[  641  637  636  633 ] final  -35.23 input  179.99 | X-H torsion
[ 1886 1878 1877 1875 ] final  -88.81 input    1.60 | X-H torsion
[  965  957  956  954 ] final  113.20 input    0.45 | X-H torsion

>  <Gold.Protein.ActiveResidues>  (65) 
 LYS47   THR48   LEU49   GLY50   THR51   GLY52   SER53   PHE54   GLY55   ARG56  
 VAL57   MET58   LEU59   TYR69   ALA70   MET71   LYS72   ILE73   LEU74   GLU91  
 LEU95   VAL104  LYS105  MET118  VAL119  MET120  GLU121  TYR122  VAL123  PRO124 
 GLY125  GLY126  GLU127  MET128  PHE129  TYR164  ASP166  LEU167  LYS168  PRO169 
 GLU170  ASN171  LEU172  LEU173  ILE174  GLN181  VAL182  THR183  ASP184  PHE185 
 GLY186  PHE187  GLY200  THR201  ASN326  PHE327  TYR330  ARG18   ARG19   ASN20  
 ALA21   ILE22   HIS23  

>  <Gold.Protein.RotatedAtoms>  (65) 
    9.8320   19.0901    7.4919 H   0  0  0  0  0  0  0  0  0  0  0  0  # atno 641  bound_to 637 
   17.2523   13.5411    6.4949 H   0  0  0  0  0  0  0  0  0  0  0  0  # atno 681  bound_to 677 
   20.8298   11.6111   -1.7969 H   0  0  0  0  0  0  0  0  0  0  0  0  # atno 702  bound_to 698 
   -7.1712   16.4011    0.0132 H   0  0  0  0  0  0  0  0  0  0  0  0  # atno 965  bound_to 957 
    1.2901   10.5474   10.6005 H   0  0  0  0  0  0  0  0  0  0  0  0  # atno 1886 bound_to 1878
    9.8813    3.3189   -3.3958 H   0  0  0  0  0  0  0  0  0  0  0  0  # atno 2577 bound_to 2569
    7.6151    6.8783    1.2466 H   0  0  0  0  0  0  0  0  0  0  0  0  # atno 2891 bound_to 2887
   18.9961    2.8415    0.2256 H   0  0  0  0  0  0  0  0  0  0  0  0  # atno 3175 bound_to 3171
   14.1211    9.8701   10.2696 H   0  0  0  0  0  0  0  0  0  0  0  0  # atno 5278 bound_to 5270
   16.0234   12.5477    6.2969 LP  0  0  0  0  0  0  0  0  0  0  0  0  # atno 5914 bound_to 677 
   15.9923   13.6974    7.4561 LP  0  0  0  0  0  0  0  0  0  0  0  0  # atno 5915 bound_to 677 
   19.3238   11.8523   -1.3376 LP  0  0  0  0  0  0  0  0  0  0  0  0  # atno 5920 bound_to 698 
   20.5077   11.6212   -0.2369 LP  0  0  0  0  0  0  0  0  0  0  0  0  # atno 5921 bound_to 698 
   11.1020    2.5339   -2.7409 LP  0  0  0  0  0  0  0  0  0  0  0  0  # atno 5950 bound_to 2569
    9.5644    2.0359   -2.5078 LP  0  0  0  0  0  0  0  0  0  0  0  0  # atno 5951 bound_to 2569
    8.3585    5.9490    0.1883 LP  0  0  0  0  0  0  0  0  0  0  0  0  # atno 5982 bound_to 2887
    7.3018    5.3169    1.2608 LP  0  0  0  0  0  0  0  0  0  0  0  0  # atno 5983 bound_to 2887
   17.8738    1.9425   -0.4585 LP  0  0  0  0  0  0  0  0  0  0  0  0  # atno 6000 bound_to 3171
   19.0228    2.6758   -1.3579 LP  0  0  0  0  0  0  0  0  0  0  0  0  # atno 6001 bound_to 3171
   13.8333   10.2261    8.7441 LP  0  0  0  0  0  0  0  0  0  0  0  0  # atno 6004 bound_to 5270
   12.6058    9.9562    9.7866 LP  0  0  0  0  0  0  0  0  0  0  0  0  # atno 6005 bound_to 5270
   11.3774   19.2084    7.8562 LP  0  0  0  0  0  0  0  0  0  0  0  0  # atno 6055 bound_to 637 
   10.2323   19.7879    8.8658 LP  0  0  0  0  0  0  0  0  0  0  0  0  # atno 6056 bound_to 637 
    0.7761   11.9729   11.0892 LP  0  0  0  0  0  0  0  0  0  0  0  0  # atno 6063 bound_to 1878
    2.2512   11.8025   10.4098 LP  0  0  0  0  0  0  0  0  0  0  0  0  # atno 6064 bound_to 1878
   -6.6841   15.3917   -1.1178 LP  0  0  0  0  0  0  0  0  0  0  0  0  # atno 6067 bound_to 957 
   -6.5713   17.0067   -1.3316 LP  0  0  0  0  0  0  0  0  0  0  0  0  # atno 6068 bound_to 957 

>  <STRIFE_LigEff_Score>  (65) 
2.8791277777777777

$$$$
unknown|pharmsElabsTestMulti|sdf|66|dock2
     RDKit          3D

 14 14  0  0  0  0  0  0  0  0999 V2000
    3.9808    9.8024    5.6011 C   0  0  0  0  0  0  0  0  0  0  0  0
    4.8118   10.0892    4.3566 C   0  0  0  0  0  0  0  0  0  0  0  0
    6.1528    9.5319    4.4986 N   0  0  0  0  0  0  0  0  0  0  0  0
    7.1046    9.5338    3.4277 C   0  0  0  0  0  0  0  0  0  0  0  0
    6.8270   10.0963    2.3313 O   0  0  0  0  0  0  0  0  0  0  0  0
    8.4488    8.8866    3.6266 C   0  0  0  0  0  0  0  0  0  0  0  0
    8.7569    7.9328    2.4739 C   0  0  0  0  0  0  0  0  0  0  0  0
   10.0418    7.1544    2.7195 C   0  0  0  0  0  0  0  0  0  0  0  0
   11.2404    7.9875    3.2475 C   0  0  0  0  0  0  0  0  0  0  0  0
   12.5658    8.0018    2.4603 C   0  0  0  0  0  0  0  0  0  0  0  0
   13.8662    8.1900    3.2415 C   0  0  0  0  0  0  0  0  0  0  0  0
   12.5143    8.9021    1.3002 N   0  0  0  0  0  0  0  0  0  0  0  0
   10.9191    9.3387    3.9567 C   0  0  0  0  0  0  0  0  0  0  0  0
    9.5418    9.9476    3.6999 C   0  0  0  0  0  0  0  0  0  0  0  0
  1  2  1  0
  2  3  1  0
  3  4  1  0
  4  5  2  0
  4  6  1  0
  6  7  1  0
  7  8  1  0
  8  9  1  0
  9 10  1  0
 10 11  1  0
 10 12  1  0
  9 13  1  0
 13 14  1  0
 14  6  1  0
M  CHG  1  12   1
M  END
>  <EmbedRMS>  (66) 
0.22880006867790334

>  <Gold.Version>  (66) 
2020.3.0

>  <Gold.Id.Protein>  (66) 
unknown|1q8t_protein|pdb

>  <Gold.PLP.Fitness>  (66) 
34.1579

>  <Gold.PLP.PLP>  (66) 
-29.1836

>  <Gold.PLP.part.hbond>  (66) 
-1.0000

>  <Gold.PLP.part.metal>  (66) 
0.0000

>  <Gold.PLP.part.buried>  (66) 
-1.1318

>  <Gold.PLP.part.nonpolar>  (66) 
-27.0609

>  <Gold.PLP.part.repulsive>  (66) 
0.0000

>  <Gold.PLP.ligand.clash>  (66) 
0.0000

>  <Gold.PLP.ligand.torsion>  (66) 
0.4896

>  <Gold.PLP.Chemscore.Hbond>  (66) 
1.8560

>  <Gold.PLP.Chemscore.CHOScore>  (66) 
0.0000

>  <Gold.PLP.Chemscore.Metal>  (66) 
0.0000

>  <Gold.Chemscore.Hbonds>  (66) 
donor molecule, donor type, donor heavy atom, donor atom, acceptor molecule, acceptor atom, score
      L1  H    12    32       P1  2902  1.86

>  <Gold.PLP.Chemscore.Internal.Correction>  (66) 
0.3855

>  <Gold.PLP.Constraint>  (66) 
-0.0000

>  <Gold.Protein.RotatedTorsions>  (66) 
[  681  677  676  673 ] final   64.15 input -179.99 | X-H torsion
[  702  698  697  694 ] final  -78.86 input  179.99 | X-H torsion
[ 2577 2569 2568 2566 ] final   58.11 input   -0.13 | X-H torsion
[ 2891 2887 2886 2883 ] final   71.94 input  179.98 | X-H torsion
[ 3175 3171 3170 3167 ] final  157.29 input -179.99 | X-H torsion
[ 5278 5270 5269 5267 ] final -150.30 input    0.55 | X-H torsion
[  641  637  636  633 ] final   99.51 input  179.99 | X-H torsion
[ 1886 1878 1877 1875 ] final  -45.94 input    1.60 | X-H torsion
[  965  957  956  954 ] final  -88.94 input    0.45 | X-H torsion

>  <Gold.Protein.ActiveResidues>  (66) 
 LYS47   THR48   LEU49   GLY50   THR51   GLY52   SER53   PHE54   GLY55   ARG56  
 VAL57   MET58   LEU59   TYR69   ALA70   MET71   LYS72   ILE73   LEU74   GLU91  
 LEU95   VAL104  LYS105  MET118  VAL119  MET120  GLU121  TYR122  VAL123  PRO124 
 GLY125  GLY126  GLU127  MET128  PHE129  TYR164  ASP166  LEU167  LYS168  PRO169 
 GLU170  ASN171  LEU172  LEU173  ILE174  GLN181  VAL182  THR183  ASP184  PHE185 
 GLY186  PHE187  GLY200  THR201  ASN326  PHE327  TYR330  ARG18   ARG19   ASN20  
 ALA21   ILE22   HIS23  

>  <Gold.Protein.RotatedAtoms>  (66) 
   10.4711   19.7548    8.8636 H   0  0  0  0  0  0  0  0  0  0  0  0  # atno 641  bound_to 637 
   16.7241   12.7697    6.0573 H   0  0  0  0  0  0  0  0  0  0  0  0  # atno 681  bound_to 677 
   20.5661   11.6291   -0.3065 H   0  0  0  0  0  0  0  0  0  0  0  0  # atno 702  bound_to 698 
   -6.4434   16.4800   -1.5844 H   0  0  0  0  0  0  0  0  0  0  0  0  # atno 965  bound_to 957 
    1.8784   10.7188   10.3703 H   0  0  0  0  0  0  0  0  0  0  0  0  # atno 1886 bound_to 1878
    9.2864    2.6563   -2.9793 H   0  0  0  0  0  0  0  0  0  0  0  0  # atno 2577 bound_to 2569
    8.3190    6.4574    0.3304 H   0  0  0  0  0  0  0  0  0  0  0  0  # atno 2891 bound_to 2887
   17.9884    2.0549   -0.0816 H   0  0  0  0  0  0  0  0  0  0  0  0  # atno 3175 bound_to 3171
   14.3963    9.9791    9.8393 H   0  0  0  0  0  0  0  0  0  0  0  0  # atno 5278 bound_to 5270
   15.5873   13.1060    7.1206 LP  0  0  0  0  0  0  0  0  0  0  0  0  # atno 5914 bound_to 677 
   16.9843   13.9511    7.0930 LP  0  0  0  0  0  0  0  0  0  0  0  0  # atno 5915 bound_to 677 
   20.7989   11.6013   -1.8820 LP  0  0  0  0  0  0  0  0  0  0  0  0  # atno 5920 bound_to 698 
   19.3101   11.8533   -1.2602 LP  0  0  0  0  0  0  0  0  0  0  0  0  # atno 5921 bound_to 698 
   10.7036    3.3047   -3.3053 LP  0  0  0  0  0  0  0  0  0  0  0  0  # atno 5950 bound_to 2569
   10.5892    1.9627   -2.3819 LP  0  0  0  0  0  0  0  0  0  0  0  0  # atno 5951 bound_to 2569
    7.6113    5.1318    0.8580 LP  0  0  0  0  0  0  0  0  0  0  0  0  # atno 5982 bound_to 2887
    7.3082    6.5770    1.5553 LP  0  0  0  0  0  0  0  0  0  0  0  0  # atno 5983 bound_to 2887
   18.7029    2.4261   -1.4554 LP  0  0  0  0  0  0  0  0  0  0  0  0  # atno 6000 bound_to 3171
   19.2542    3.0201   -0.0377 LP  0  0  0  0  0  0  0  0  0  0  0  0  # atno 6001 bound_to 3171
   13.2840   10.2249    8.7260 LP  0  0  0  0  0  0  0  0  0  0  0  0  # atno 6004 bound_to 5270
   12.8655    9.8428   10.2575 LP  0  0  0  0  0  0  0  0  0  0  0  0  # atno 6005 bound_to 5270
    9.6528   19.1852    7.6222 LP  0  0  0  0  0  0  0  0  0  0  0  0  # atno 6055 bound_to 637 
   11.2838   19.1110    7.6553 LP  0  0  0  0  0  0  0  0  0  0  0  0  # atno 6056 bound_to 637 
    0.5754   11.3141   11.0653 LP  0  0  0  0  0  0  0  0  0  0  0  0  # atno 6063 bound_to 1878
    1.8326   12.2808   10.6759 LP  0  0  0  0  0  0  0  0  0  0  0  0  # atno 6064 bound_to 1878
   -7.0845   16.9510   -0.2052 LP  0  0  0  0  0  0  0  0  0  0  0  0  # atno 6067 bound_to 957 
   -6.9374   15.3642   -0.5617 LP  0  0  0  0  0  0  0  0  0  0  0  0  # atno 6068 bound_to 957 

>  <STRIFE_LigEff_Score>  (66) 
2.43985

$$$$
unknown|pharmsElabsTestMulti|sdf|67|dock9
     RDKit          3D

 17 18  0  0  0  0  0  0  0  0999 V2000
   13.7972    6.7769    3.5679 C   0  0  0  0  0  0  0  0  0  0  0  0
   13.6098    7.7619    2.3972 C   0  0  0  0  0  0  0  0  0  0  0  0
   13.8623    7.0612    1.1320 N   0  0  0  0  0  0  0  0  0  0  0  0
   12.1858    8.3871    2.4479 C   0  0  0  0  0  0  0  0  0  0  0  0
   11.1260    7.2819    2.2686 C   0  0  0  0  0  0  0  0  0  0  0  0
    9.7453    7.8985    2.1524 C   0  0  0  0  0  0  0  0  0  0  0  0
    9.4144    8.6997    3.4164 C   0  0  0  0  0  0  0  0  0  0  0  0
    8.0677    9.3102    3.2564 C   0  0  0  0  0  0  0  0  0  0  0  0
    7.7870   10.3780    3.8704 O   0  0  0  0  0  0  0  0  0  0  0  0
    7.1008    8.7079    2.4058 N   0  0  0  0  0  0  0  0  0  0  0  0
    5.7844    9.3082    2.3593 C   0  0  0  0  0  0  0  0  0  0  0  0
    5.0494    9.1486    3.6336 C   0  0  0  0  0  0  0  0  0  0  0  0
    3.6160    8.8689    3.9552 C   0  0  0  0  0  0  0  0  0  0  0  0
    3.9038    9.5593    5.2974 C   0  0  0  0  0  0  0  0  0  0  0  0
    5.1802   10.1674    4.7269 C   0  0  0  0  0  0  0  0  0  0  0  0
   10.4705    9.7826    3.6950 C   0  0  0  0  0  0  0  0  0  0  0  0
   11.8800    9.1754    3.7458 C   0  0  0  0  0  0  0  0  0  0  0  0
  1  2  1  0
  2  3  1  0
  2  4  1  0
  4  5  1  0
  5  6  1  0
  6  7  1  0
  7  8  1  0
  8  9  2  0
  8 10  1  0
 10 11  1  0
 11 12  1  0
 12 13  1  0
 13 14  1  0
 14 15  1  0
  7 16  1  0
 16 17  1  0
 17  4  1  0
 15 12  1  0
M  CHG  1   3   1
M  END
>  <EmbedRMS>  (67) 
0.25459633569662915

>  <Gold.Version>  (67) 
2020.3.0

>  <Gold.Id.Protein>  (67) 
unknown|1q8t_protein|pdb

>  <Gold.PLP.Fitness>  (67) 
54.3028

>  <Gold.PLP.PLP>  (67) 
-44.6503

>  <Gold.PLP.part.hbond>  (67) 
-2.8795

>  <Gold.PLP.part.metal>  (67) 
0.0000

>  <Gold.PLP.part.buried>  (67) 
-3.3285

>  <Gold.PLP.part.nonpolar>  (67) 
-39.1286

>  <Gold.PLP.part.repulsive>  (67) 
0.0591

>  <Gold.PLP.ligand.clash>  (67) 
0.0000

>  <Gold.PLP.ligand.torsion>  (67) 
1.2192

>  <Gold.PLP.Chemscore.Hbond>  (67) 
4.0000

>  <Gold.PLP.Chemscore.CHOScore>  (67) 
0.0000

>  <Gold.PLP.Chemscore.Metal>  (67) 
0.0000

>  <Gold.Chemscore.Hbonds>  (67) 
donor molecule, donor type, donor heavy atom, donor atom, acceptor molecule, acceptor atom, score
      L1  H     3    22       P1  2902  2.00
      L1  H     3    23       P1  2691  1.00
      L1  H    10    31       P1  2887  1.00

>  <Gold.PLP.Chemscore.Internal.Correction>  (67) 
0.0908

>  <Gold.PLP.Constraint>  (67) 
-0.0000

>  <Gold.Protein.RotatedTorsions>  (67) 
[  681  677  676  673 ] final  -16.97 input -179.99 | X-H torsion
[  702  698  697  694 ] final  -57.76 input  179.99 | X-H torsion
[ 2577 2569 2568 2566 ] final   81.58 input   -0.13 | X-H torsion
[ 2891 2887 2886 2883 ] final  -13.73 input  179.98 | X-H torsion
[ 3175 3171 3170 3167 ] final -169.50 input -179.99 | X-H torsion
[ 5278 5270 5269 5267 ] final  165.91 input    0.55 | X-H torsion
[  641  637  636  633 ] final -155.58 input  179.99 | X-H torsion
[ 1886 1878 1877 1875 ] final  -80.13 input    1.60 | X-H torsion
[  965  957  956  954 ] final  152.38 input    0.45 | X-H torsion

>  <Gold.Protein.ActiveResidues>  (67) 
 LYS47   THR48   LEU49   GLY50   THR51   GLY52   SER53   PHE54   GLY55   ARG56  
 VAL57   MET58   LEU59   TYR69   ALA70   MET71   LYS72   ILE73   LEU74   GLU91  
 LEU95   VAL104  LYS105  MET118  VAL119  MET120  GLU121  TYR122  VAL123  PRO124 
 GLY125  GLY126  GLU127  MET128  PHE129  TYR164  ASP166  LEU167  LYS168  PRO169 
 GLU170  ASN171  LEU172  LEU173  ILE174  GLN181  VAL182  THR183  ASP184  PHE185 
 GLY186  PHE187  GLY200  THR201  ASN326  PHE327  TYR330  ARG18   ARG19   ASN20  
 ALA21   ILE22   HIS23  

>  <Gold.Protein.RotatedAtoms>  (67) 
   11.3322   19.2037    7.8785 H   0  0  0  0  0  0  0  0  0  0  0  0  # atno 641  bound_to 637 
   15.7204   12.7381    6.6478 H   0  0  0  0  0  0  0  0  0  0  0  0  # atno 681  bound_to 677 
   20.2496   11.6839   -0.2392 H   0  0  0  0  0  0  0  0  0  0  0  0  # atno 702  bound_to 698 
   -7.0500   16.9307   -0.2422 H   0  0  0  0  0  0  0  0  0  0  0  0  # atno 965  bound_to 957 
    1.4138   10.5433   10.5452 H   0  0  0  0  0  0  0  0  0  0  0  0  # atno 1886 bound_to 1878
    9.3351    2.3615   -2.7710 H   0  0  0  0  0  0  0  0  0  0  0  0  # atno 2577 bound_to 2569
    7.9569    5.3031    0.4733 H   0  0  0  0  0  0  0  0  0  0  0  0  # atno 2891 bound_to 2887
   18.2611    2.3034    0.2733 H   0  0  0  0  0  0  0  0  0  0  0  0  # atno 3175 bound_to 3171
   14.3143   10.1371    9.1951 H   0  0  0  0  0  0  0  0  0  0  0  0  # atno 5278 bound_to 5270
   16.4436   13.9340    7.4111 LP  0  0  0  0  0  0  0  0  0  0  0  0  # atno 5914 bound_to 677 
   17.1844   13.1563    6.1811 LP  0  0  0  0  0  0  0  0  0  0  0  0  # atno 5915 bound_to 677 
   21.0248   11.5563   -1.6249 LP  0  0  0  0  0  0  0  0  0  0  0  0  # atno 5920 bound_to 698 
   19.4171   11.8406   -1.5882 LP  0  0  0  0  0  0  0  0  0  0  0  0  # atno 5921 bound_to 698 
   10.3494    3.4120   -3.4058 LP  0  0  0  0  0  0  0  0  0  0  0  0  # atno 5950 bound_to 2569
   10.8920    2.1658   -2.5007 LP  0  0  0  0  0  0  0  0  0  0  0  0  # atno 5951 bound_to 2569
    7.1428    6.0497    1.6206 LP  0  0  0  0  0  0  0  0  0  0  0  0  # atno 5982 bound_to 2887
    8.1578    6.8740    0.6423 LP  0  0  0  0  0  0  0  0  0  0  0  0  # atno 5983 bound_to 2887
   18.2772    2.1298   -1.3095 LP  0  0  0  0  0  0  0  0  0  0  0  0  # atno 6000 bound_to 3171
   19.3930    3.0548   -0.5571 LP  0  0  0  0  0  0  0  0  0  0  0  0  # atno 6001 bound_to 3171
   12.7228   10.1179    9.1360 LP  0  0  0  0  0  0  0  0  0  0  0  0  # atno 6004 bound_to 5270
   13.5130    9.7834   10.5253 LP  0  0  0  0  0  0  0  0  0  0  0  0  # atno 6005 bound_to 5270
   10.2267   19.7875    8.8644 LP  0  0  0  0  0  0  0  0  0  0  0  0  # atno 6055 bound_to 637 
    9.8030   19.0891    7.4504 LP  0  0  0  0  0  0  0  0  0  0  0  0  # atno 6056 bound_to 637 
    0.6998   11.8530   11.1023 LP  0  0  0  0  0  0  0  0  0  0  0  0  # atno 6063 bound_to 1878
    2.1971   11.9267   10.4548 LP  0  0  0  0  0  0  0  0  0  0  0  0  # atno 6064 bound_to 1878
   -6.9459   15.3706   -0.5428 LP  0  0  0  0  0  0  0  0  0  0  0  0  # atno 6067 bound_to 957 
   -6.4372   16.4701   -1.6377 LP  0  0  0  0  0  0  0  0  0  0  0  0  # atno 6068 bound_to 957 

>  <STRIFE_LigEff_Score>  (67) 
3.194282352941176

$$$$
unknown|pharmsElabsTestMulti|sdf|68|dock5
     RDKit          3D

 17 17  0  0  0  0  0  0  0  0999 V2000
    3.3044    8.6025    2.4345 C   0  0  0  0  0  0  0  0  0  0  0  0
    3.5990    8.7993    3.8503 N   0  0  0  0  0  0  0  0  0  0  0  0
    4.6568    9.6538    4.3242 C   0  0  0  0  0  0  0  0  0  0  0  0
    4.8838    9.7997    5.5926 N   0  0  0  0  0  0  0  0  0  0  0  0
    5.5640   10.3540    3.3482 C   0  0  0  0  0  0  0  0  0  0  0  0
    6.9727   10.0424    3.6341 N   0  0  0  0  0  0  0  0  0  0  0  0
    7.7641    9.3123    2.6808 C   0  0  0  0  0  0  0  0  0  0  0  0
    7.2234    8.8969    1.6288 O   0  0  0  0  0  0  0  0  0  0  0  0
    9.2238    8.9905    2.8061 C   0  0  0  0  0  0  0  0  0  0  0  0
    9.5185    7.5163    2.9156 C   0  0  0  0  0  0  0  0  0  0  0  0
   10.9902    7.1964    2.7113 C   0  0  0  0  0  0  0  0  0  0  0  0
   11.9957    8.1580    3.3615 C   0  0  0  0  0  0  0  0  0  0  0  0
   13.4166    8.0784    2.7510 C   0  0  0  0  0  0  0  0  0  0  0  0
   13.7381    8.9523    1.5398 C   0  0  0  0  0  0  0  0  0  0  0  0
   13.8741    6.6986    2.5741 N   0  0  0  0  0  0  0  0  0  0  0  0
   11.5529    9.6390    3.4998 C   0  0  0  0  0  0  0  0  0  0  0  0
   10.0579    9.9059    3.6583 C   0  0  0  0  0  0  0  0  0  0  0  0
  1  2  1  0
  2  3  1  0
  3  4  2  0
  3  5  1  0
  5  6  1  0
  6  7  1  0
  7  8  2  0
  7  9  1  0
  9 10  1  0
 10 11  1  0
 11 12  1  0
 12 13  1  0
 13 14  1  0
 13 15  1  0
 12 16  1  0
 16 17  1  0
 17  9  1  0
M  CHG  1  15   1
M  END
>  <EmbedRMS>  (68) 
0.30183759959029793

>  <Gold.Version>  (68) 
2020.3.0

>  <Gold.Id.Protein>  (68) 
unknown|1q8t_protein|pdb

>  <Gold.PLP.Fitness>  (68) 
40.4838

>  <Gold.PLP.PLP>  (68) 
-35.2643

>  <Gold.PLP.part.hbond>  (68) 
-2.0000

>  <Gold.PLP.part.metal>  (68) 
0.0000

>  <Gold.PLP.part.buried>  (68) 
-5.2326

>  <Gold.PLP.part.nonpolar>  (68) 
-28.2880

>  <Gold.PLP.part.repulsive>  (68) 
0.1145

>  <Gold.PLP.ligand.clash>  (68) 
0.0000

>  <Gold.PLP.ligand.torsion>  (68) 
0.6969

>  <Gold.PLP.Chemscore.Hbond>  (68) 
2.0000

>  <Gold.PLP.Chemscore.CHOScore>  (68) 
0.0000

>  <Gold.PLP.Chemscore.Metal>  (68) 
0.0000

>  <Gold.Chemscore.Hbonds>  (68) 
donor molecule, donor type, donor heavy atom, donor atom, acceptor molecule, acceptor atom, score
      L1  H    15    36       P1  2691  1.00
      P1  H  2887  2891       L1     8  1.00

>  <Gold.PLP.Chemscore.Internal.Correction>  (68) 
0.6134

>  <Gold.PLP.Constraint>  (68) 
-0.0000

>  <Gold.Protein.RotatedTorsions>  (68) 
[  681  677  676  673 ] final -174.01 input -179.99 | X-H torsion
[  702  698  697  694 ] final  -11.01 input  179.99 | X-H torsion
[ 2577 2569 2568 2566 ] final  109.49 input   -0.13 | X-H torsion
[ 2891 2887 2886 2883 ] final  150.86 input  179.98 | X-H torsion
[ 3175 3171 3170 3167 ] final    5.61 input -179.99 | X-H torsion
[ 5278 5270 5269 5267 ] final   40.92 input    0.55 | X-H torsion
[  641  637  636  633 ] final -100.40 input  179.99 | X-H torsion
[ 1886 1878 1877 1875 ] final -167.43 input    1.60 | X-H torsion
[  965  957  956  954 ] final  -78.41 input    0.45 | X-H torsion

>  <Gold.Protein.ActiveResidues>  (68) 
 LYS47   THR48   LEU49   GLY50   THR51   GLY52   SER53   PHE54   GLY55   ARG56  
 VAL57   MET58   LEU59   TYR69   ALA70   MET71   LYS72   ILE73   LEU74   GLU91  
 LEU95   VAL104  LYS105  MET118  VAL119  MET120  GLU121  TYR122  VAL123  PRO124 
 GLY125  GLY126  GLU127  MET128  PHE129  TYR164  ASP166  LEU167  LYS168  PRO169 
 GLU170  ASN171  LEU172  LEU173  ILE174  GLN181  VAL182  THR183  ASP184  PHE185 
 GLY186  PHE187  GLY200  THR201  ASN326  PHE327  TYR330  ARG18   ARG19   ASN20  
 ALA21   ILE22   HIS23  

>  <Gold.Protein.RotatedAtoms>  (68) 
   10.7712   18.9512    7.3226 H   0  0  0  0  0  0  0  0  0  0  0  0  # atno 641  bound_to 637 
   16.9297   13.9338    7.0840 H   0  0  0  0  0  0  0  0  0  0  0  0  # atno 681  bound_to 677 
   19.6015   11.8039   -0.5066 H   0  0  0  0  0  0  0  0  0  0  0  0  # atno 702  bound_to 698 
   -6.4347   16.3174   -1.6068 H   0  0  0  0  0  0  0  0  0  0  0  0  # atno 965  bound_to 957 
    0.6110   11.3453   11.0360 H   0  0  0  0  0  0  0  0  0  0  0  0  # atno 1886 bound_to 1878
    9.5724    2.0735   -2.5537 H   0  0  0  0  0  0  0  0  0  0  0  0  # atno 2577 bound_to 2569
    7.6945    6.9177    1.1640 H   0  0  0  0  0  0  0  0  0  0  0  0  # atno 2891 bound_to 2887
   19.0776    2.7064   -1.2674 H   0  0  0  0  0  0  0  0  0  0  0  0  # atno 3175 bound_to 3171
   12.7253   10.1119    9.2300 H   0  0  0  0  0  0  0  0  0  0  0  0  # atno 5278 bound_to 5270
   16.7718   12.7484    6.0323 LP  0  0  0  0  0  0  0  0  0  0  0  0  # atno 5914 bound_to 677 
   15.5833   13.0835    7.1008 LP  0  0  0  0  0  0  0  0  0  0  0  0  # atno 5915 bound_to 677 
   21.1237   11.5245   -0.8839 LP  0  0  0  0  0  0  0  0  0  0  0  0  # atno 5920 bound_to 698 
   19.9999   11.7462   -2.0478 LP  0  0  0  0  0  0  0  0  0  0  0  0  # atno 5921 bound_to 698 
    9.8963    3.3743   -3.4128 LP  0  0  0  0  0  0  0  0  0  0  0  0  # atno 5950 bound_to 2569
   11.0952    2.5067   -2.7226 LP  0  0  0  0  0  0  0  0  0  0  0  0  # atno 5951 bound_to 2569
    8.3283    5.8253    0.1937 LP  0  0  0  0  0  0  0  0  0  0  0  0  # atno 5982 bound_to 2887
    7.2485    5.3992    1.3423 LP  0  0  0  0  0  0  0  0  0  0  0  0  # atno 5983 bound_to 2887
   18.9315    2.8271    0.3136 LP  0  0  0  0  0  0  0  0  0  0  0  0  # atno 6000 bound_to 3171
   17.8793    1.9335   -0.5587 LP  0  0  0  0  0  0  0  0  0  0  0  0  # atno 6001 bound_to 3171
   13.5951    9.7847   10.5235 LP  0  0  0  0  0  0  0  0  0  0  0  0  # atno 6004 bound_to 5270
   14.3125   10.1431    9.1011 LP  0  0  0  0  0  0  0  0  0  0  0  0  # atno 6005 bound_to 5270
   11.0777   19.6629    8.7135 LP  0  0  0  0  0  0  0  0  0  0  0  0  # atno 6055 bound_to 637 
    9.5429   19.4797    8.1868 LP  0  0  0  0  0  0  0  0  0  0  0  0  # atno 6056 bound_to 637 
    1.8524   12.2710   10.6655 LP  0  0  0  0  0  0  0  0  0  0  0  0  # atno 6063 bound_to 1878
    1.8897   10.6645   10.3751 LP  0  0  0  0  0  0  0  0  0  0  0  0  # atno 6064 bound_to 1878
   -7.0274   17.0585   -0.3284 LP  0  0  0  0  0  0  0  0  0  0  0  0  # atno 6067 bound_to 957 
   -7.0036   15.4280   -0.4149 LP  0  0  0  0  0  0  0  0  0  0  0  0  # atno 6068 bound_to 957 

>  <STRIFE_LigEff_Score>  (68) 
2.3814

$$$$
unknown|pharmsElabsTestMulti|sdf|69|dock2
     RDKit          3D

 17 17  0  0  0  0  0  0  0  0999 V2000
    3.6505    9.1997    1.6941 C   0  0  0  0  0  0  0  0  0  0  0  0
    2.9283    9.1911    2.9662 N   0  0  0  0  0  0  0  0  0  0  0  0
    3.7740    9.7916    3.9957 C   0  0  0  0  0  0  0  0  0  0  0  0
    5.0533    9.0864    4.0671 N   0  0  0  0  0  0  0  0  0  0  0  0
    5.9816    9.8907    4.8647 C   0  0  0  0  0  0  0  0  0  0  0  0
    7.3386    9.4018    4.6864 N   0  0  0  0  0  0  0  0  0  0  0  0
    7.8013    8.8847    3.4376 C   0  0  0  0  0  0  0  0  0  0  0  0
    7.0377    8.8773    2.4294 O   0  0  0  0  0  0  0  0  0  0  0  0
    9.2156    8.3778    3.3260 C   0  0  0  0  0  0  0  0  0  0  0  0
    9.5693    8.1847    1.8568 C   0  0  0  0  0  0  0  0  0  0  0  0
   10.9389    7.5603    1.6669 C   0  0  0  0  0  0  0  0  0  0  0  0
   12.0245    8.0669    2.6352 C   0  0  0  0  0  0  0  0  0  0  0  0
   13.4989    8.0036    2.1016 C   0  0  0  0  0  0  0  0  0  0  0  0
   14.5969    7.8196    3.1600 C   0  0  0  0  0  0  0  0  0  0  0  0
   13.6612    7.0146    1.0297 N   0  0  0  0  0  0  0  0  0  0  0  0
   11.6707    9.1252    3.7012 C   0  0  0  0  0  0  0  0  0  0  0  0
   10.1773    9.3669    3.9933 C   0  0  0  0  0  0  0  0  0  0  0  0
  1  2  1  0
  2  3  1  0
  3  4  1  0
  4  5  1  0
  5  6  1  0
  6  7  1  0
  7  8  2  0
  7  9  1  0
  9 10  1  0
 10 11  1  0
 11 12  1  0
 12 13  1  0
 13 14  1  0
 13 15  1  0
 12 16  1  0
 16 17  1  0
 17  9  1  0
M  CHG  1  15   1
M  END
>  <EmbedRMS>  (69) 
0.17033072430706003

>  <Gold.Version>  (69) 
2020.3.0

>  <Gold.Id.Protein>  (69) 
unknown|1q8t_protein|pdb

>  <Gold.PLP.Fitness>  (69) 
50.6973

>  <Gold.PLP.PLP>  (69) 
-39.0307

>  <Gold.PLP.part.hbond>  (69) 
-3.5889

>  <Gold.PLP.part.metal>  (69) 
0.0000

>  <Gold.PLP.part.buried>  (69) 
-6.1283

>  <Gold.PLP.part.nonpolar>  (69) 
-29.6086

>  <Gold.PLP.part.repulsive>  (69) 
0.0604

>  <Gold.PLP.ligand.clash>  (69) 
0.0000

>  <Gold.PLP.ligand.torsion>  (69) 
1.0191

>  <Gold.PLP.Chemscore.Hbond>  (69) 
4.2685

>  <Gold.PLP.Chemscore.CHOScore>  (69) 
0.0000

>  <Gold.PLP.Chemscore.Metal>  (69) 
0.0000

>  <Gold.Chemscore.Hbonds>  (69) 
donor molecule, donor type, donor heavy atom, donor atom, acceptor molecule, acceptor atom, score
      L1  H     2    21       P1  1855  0.98
      L1  H    15    39       P1  2691  1.00
      L1  H    15    40       P1  2902  2.00
      P1  H  2887  2891       L1     8  0.29

>  <Gold.PLP.Chemscore.Internal.Correction>  (69) 
0.8993

>  <Gold.PLP.Constraint>  (69) 
-0.0000

>  <Gold.Protein.RotatedTorsions>  (69) 
[  681  677  676  673 ] final  151.16 input -179.99 | X-H torsion
[  702  698  697  694 ] final  163.49 input  179.99 | X-H torsion
[ 2577 2569 2568 2566 ] final  -97.76 input   -0.13 | X-H torsion
[ 2891 2887 2886 2883 ] final  164.46 input  179.98 | X-H torsion
[ 3175 3171 3170 3167 ] final -167.41 input -179.99 | X-H torsion
[ 5278 5270 5269 5267 ] final   25.01 input    0.55 | X-H torsion
[  641  637  636  633 ] final  -71.22 input  179.99 | X-H torsion
[ 1886 1878 1877 1875 ] final -174.93 input    1.60 | X-H torsion
[  965  957  956  954 ] final   12.82 input    0.45 | X-H torsion

>  <Gold.Protein.ActiveResidues>  (69) 
 LYS47   THR48   LEU49   GLY50   THR51   GLY52   SER53   PHE54   GLY55   ARG56  
 VAL57   MET58   LEU59   TYR69   ALA70   MET71   LYS72   ILE73   LEU74   GLU91  
 LEU95   VAL104  LYS105  MET118  VAL119  MET120  GLU121  TYR122  VAL123  PRO124 
 GLY125  GLY126  GLU127  MET128  PHE129  TYR164  ASP166  LEU167  LYS168  PRO169 
 GLU170  ASN171  LEU172  LEU173  ILE174  GLN181  VAL182  THR183  ASP184  PHE185 
 GLY186  PHE187  GLY200  THR201  ASN326  PHE327  TYR330  ARG18   ARG19   ASN20  
 ALA21   ILE22   HIS23  

>  <Gold.Protein.RotatedAtoms>  (69) 
   10.3225   18.9526    7.2762 H   0  0  0  0  0  0  0  0  0  0  0  0  # atno 641  bound_to 637 
   17.2131   13.7105    6.6872 H   0  0  0  0  0  0  0  0  0  0  0  0  # atno 681  bound_to 677 
   20.8018   11.6165   -1.8218 H   0  0  0  0  0  0  0  0  0  0  0  0  # atno 702  bound_to 698 
   -6.8003   15.3739   -0.8233 H   0  0  0  0  0  0  0  0  0  0  0  0  # atno 965  bound_to 957 
    0.6154   11.4610   11.0538 H   0  0  0  0  0  0  0  0  0  0  0  0  # atno 1886 bound_to 1878
   11.0173    2.9169   -3.0334 H   0  0  0  0  0  0  0  0  0  0  0  0  # atno 2577 bound_to 2569
    7.5568    6.8388    1.3047 H   0  0  0  0  0  0  0  0  0  0  0  0  # atno 2891 bound_to 2887
   18.2836    2.3220    0.2878 H   0  0  0  0  0  0  0  0  0  0  0  0  # atno 3175 bound_to 3171
   12.6483   10.0547    9.4585 H   0  0  0  0  0  0  0  0  0  0  0  0  # atno 5278 bound_to 5270
   16.2574   12.5524    6.1566 LP  0  0  0  0  0  0  0  0  0  0  0  0  # atno 5914 bound_to 677 
   15.7996   13.5145    7.3941 LP  0  0  0  0  0  0  0  0  0  0  0  0  # atno 5915 bound_to 677 
   19.3160   11.8529   -1.2984 LP  0  0  0  0  0  0  0  0  0  0  0  0  # atno 5920 bound_to 698 
   20.5450   11.6149   -0.2498 LP  0  0  0  0  0  0  0  0  0  0  0  0  # atno 5921 bound_to 698 
   10.0152    1.8763   -2.3640 LP  0  0  0  0  0  0  0  0  0  0  0  0  # atno 5950 bound_to 2569
    9.4549    3.1167   -3.2663 LP  0  0  0  0  0  0  0  0  0  0  0  0  # atno 5951 bound_to 2569
    8.3742    6.0437    0.1929 LP  0  0  0  0  0  0  0  0  0  0  0  0  # atno 5982 bound_to 2887
    7.3476    5.2638    1.1951 LP  0  0  0  0  0  0  0  0  0  0  0  0  # atno 5983 bound_to 2887
   18.2530    2.1144   -1.2907 LP  0  0  0  0  0  0  0  0  0  0  0  0  # atno 6000 bound_to 3171
   19.3935    3.0507   -0.5912 LP  0  0  0  0  0  0  0  0  0  0  0  0  # atno 6001 bound_to 3171
   13.8503    9.8001   10.4720 LP  0  0  0  0  0  0  0  0  0  0  0  0  # atno 6004 bound_to 5270
   14.1384   10.1879    8.9121 LP  0  0  0  0  0  0  0  0  0  0  0  0  # atno 6005 bound_to 5270
   11.3511   19.4742    8.3739 LP  0  0  0  0  0  0  0  0  0  0  0  0  # atno 6055 bound_to 637 
    9.7421   19.6669    8.5753 LP  0  0  0  0  0  0  0  0  0  0  0  0  # atno 6056 bound_to 637 
    1.9480   12.2130   10.6134 LP  0  0  0  0  0  0  0  0  0  0  0  0  # atno 6063 bound_to 1878
    1.7895   10.6007   10.4083 LP  0  0  0  0  0  0  0  0  0  0  0  0  # atno 6064 bound_to 1878
   -6.4848   16.7670   -1.5269 LP  0  0  0  0  0  0  0  0  0  0  0  0  # atno 6067 bound_to 957 
   -7.1613   16.7132   -0.0416 LP  0  0  0  0  0  0  0  0  0  0  0  0  # atno 6068 bound_to 957 

>  <STRIFE_LigEff_Score>  (69) 
2.9821941176470586

$$$$
unknown|pharmsElabsTestMulti|sdf|70|dock10
     RDKit          3D

 20 20  0  0  0  0  0  0  0  0999 V2000
    3.4843    9.8944    4.2747 C   0  0  0  0  0  0  0  0  0  0  0  0
    4.2638    9.4766    3.2766 C   0  0  0  0  0  0  0  0  0  0  0  0
    3.6178    8.1405    2.3363 Cl  0  0  0  0  0  0  0  0  0  0  0  0
    5.6468   10.0032    3.0639 C   0  0  0  0  0  0  0  0  0  0  0  0
    6.4460   10.4258    4.0717 C   0  0  0  0  0  0  0  0  0  0  0  0
    6.1649   10.3371    5.5454 C   0  0  0  0  0  0  0  0  0  0  0  0
    7.4696    9.4658    6.3855 Cl  0  0  0  0  0  0  0  0  0  0  0  0
    6.1648   10.1464    1.6386 C   0  0  0  0  0  0  0  0  0  0  0  0
    7.6328   10.0928    1.6119 N   0  0  0  0  0  0  0  0  0  0  0  0
    8.3172    8.9855    2.2214 C   0  0  0  0  0  0  0  0  0  0  0  0
    7.6501    8.1266    2.8468 O   0  0  0  0  0  0  0  0  0  0  0  0
    9.7956    8.7396    2.1937 C   0  0  0  0  0  0  0  0  0  0  0  0
   10.1970    7.5523    1.3332 C   0  0  0  0  0  0  0  0  0  0  0  0
   11.6529    7.1300    1.4930 C   0  0  0  0  0  0  0  0  0  0  0  0
   12.5847    8.2746    1.9322 C   0  0  0  0  0  0  0  0  0  0  0  0
   14.0595    7.7523    1.9544 C   0  0  0  0  0  0  0  0  0  0  0  0
   14.2855    6.8289    3.1653 C   0  0  0  0  0  0  0  0  0  0  0  0
   14.4201    7.0332    0.7246 N   0  0  0  0  0  0  0  0  0  0  0  0
   12.1134    8.8094    3.3085 C   0  0  0  0  0  0  0  0  0  0  0  0
   10.6084    9.1427    3.4093 C   0  0  0  0  0  0  0  0  0  0  0  0
  1  2  2  0
  2  3  1  0
  2  4  1  0
  4  5  2  0
  5  6  1  0
  6  7  1  0
  4  8  1  0
  8  9  1  0
  9 10  1  0
 10 11  2  0
 10 12  1  0
 12 13  1  0
 13 14  1  0
 14 15  1  0
 15 16  1  0
 16 17  1  0
 16 18  1  0
 15 19  1  0
 19 20  1  0
 20 12  1  0
M  CHG  1  18   1
M  END
>  <EmbedRMS>  (70) 
0.16997839536996281

>  <Gold.Version>  (70) 
2020.3.0

>  <Gold.Id.Protein>  (70) 
unknown|1q8t_protein|pdb

>  <Gold.PLP.Fitness>  (70) 
54.0128

>  <Gold.PLP.PLP>  (70) 
-43.6494

>  <Gold.PLP.part.hbond>  (70) 
-3.0000

>  <Gold.PLP.part.metal>  (70) 
0.0000

>  <Gold.PLP.part.buried>  (70) 
2.5350

>  <Gold.PLP.part.nonpolar>  (70) 
-44.7037

>  <Gold.PLP.part.repulsive>  (70) 
0.0839

>  <Gold.PLP.ligand.clash>  (70) 
0.0222

>  <Gold.PLP.ligand.torsion>  (70) 
1.4450

>  <Gold.PLP.Chemscore.Hbond>  (70) 
4.0000

>  <Gold.PLP.Chemscore.CHOScore>  (70) 
0.0000

>  <Gold.PLP.Chemscore.Metal>  (70) 
0.0000

>  <Gold.Chemscore.Hbonds>  (70) 
donor molecule, donor type, donor heavy atom, donor atom, acceptor molecule, acceptor atom, score
      L1  H    18    39       P1  2691  1.00
      L1  H    18    41       P1  2902  2.00
      P1  H  2887  2891       L1    11  1.00

>  <Gold.PLP.Chemscore.Internal.Correction>  (70) 
1.2756

>  <Gold.PLP.Constraint>  (70) 
-0.0000

>  <Gold.Protein.RotatedTorsions>  (70) 
[  681  677  676  673 ] final   92.71 input -179.99 | X-H torsion
[  702  698  697  694 ] final  124.92 input  179.99 | X-H torsion
[ 2577 2569 2568 2566 ] final -162.95 input   -0.13 | X-H torsion
[ 2891 2887 2886 2883 ] final -168.42 input  179.98 | X-H torsion
[ 3175 3171 3170 3167 ] final   59.63 input -179.99 | X-H torsion
[ 5278 5270 5269 5267 ] final -135.65 input    0.55 | X-H torsion
[  641  637  636  633 ] final   95.41 input  179.99 | X-H torsion
[ 1886 1878 1877 1875 ] final   27.45 input    1.60 | X-H torsion
[  965  957  956  954 ] final  -83.26 input    0.45 | X-H torsion

>  <Gold.Protein.ActiveResidues>  (70) 
 LYS47   THR48   LEU49   GLY50   THR51   GLY52   SER53   PHE54   GLY55   ARG56  
 VAL57   MET58   LEU59   TYR69   ALA70   MET71   LYS72   ILE73   LEU74   GLU91  
 LEU95   VAL104  LYS105  MET118  VAL119  MET120  GLU121  TYR122  VAL123  PRO124 
 GLY125  GLY126  GLU127  MET128  PHE129  TYR164  ASP166  LEU167  LYS168  PRO169 
 GLU170  ASN171  LEU172  LEU173  ILE174  GLN181  VAL182  THR183  ASP184  PHE185 
 GLY186  PHE187  GLY200  THR201  ASN326  PHE327  TYR330  ARG18   ARG19   ASN20  
 ALA21   ILE22   HIS23  

>  <Gold.Protein.RotatedAtoms>  (70) 
   10.4071   19.7567    8.8602 H   0  0  0  0  0  0  0  0  0  0  0  0  # atno 641  bound_to 637 
   17.0550   13.0527    6.1329 H   0  0  0  0  0  0  0  0  0  0  0  0  # atno 681  bound_to 677 
   20.2572   11.7171   -2.0308 H   0  0  0  0  0  0  0  0  0  0  0  0  # atno 702  bound_to 698 
   -6.4372   16.3929   -1.5999 H   0  0  0  0  0  0  0  0  0  0  0  0  # atno 965  bound_to 957 
    2.2203   11.7327   10.3925 H   0  0  0  0  0  0  0  0  0  0  0  0  # atno 1886 bound_to 1878
   10.8090    2.1360   -2.5065 H   0  0  0  0  0  0  0  0  0  0  0  0  # atno 2577 bound_to 2569
    7.3210    6.5585    1.5106 H   0  0  0  0  0  0  0  0  0  0  0  0  # atno 2891 bound_to 2887
   18.4317    2.2179   -1.3447 H   0  0  0  0  0  0  0  0  0  0  0  0  # atno 3175 bound_to 3171
   14.3100    9.9276   10.0445 H   0  0  0  0  0  0  0  0  0  0  0  0  # atno 5278 bound_to 5270
   15.6252   12.7887    6.7826 LP  0  0  0  0  0  0  0  0  0  0  0  0  # atno 5914 bound_to 677 
   16.5981   13.9705    7.3515 LP  0  0  0  0  0  0  0  0  0  0  0  0  # atno 5915 bound_to 677 
   19.4133   11.8239   -0.6841 LP  0  0  0  0  0  0  0  0  0  0  0  0  # atno 5920 bound_to 698 
   21.0206   11.5382   -0.6442 LP  0  0  0  0  0  0  0  0  0  0  0  0  # atno 5921 bound_to 698 
    9.2675    2.4143   -2.7923 LP  0  0  0  0  0  0  0  0  0  0  0  0  # atno 5950 bound_to 2569
   10.4220    3.4009   -3.3928 LP  0  0  0  0  0  0  0  0  0  0  0  0  # atno 5951 bound_to 2569
    8.3623    6.4703    0.3088 LP  0  0  0  0  0  0  0  0  0  0  0  0  # atno 5982 bound_to 2887
    7.6075    5.1322    0.8624 LP  0  0  0  0  0  0  0  0  0  0  0  0  # atno 5983 bound_to 2887
   19.3743    3.0642   -0.3799 LP  0  0  0  0  0  0  0  0  0  0  0  0  # atno 6000 bound_to 3171
   18.1163    2.2105    0.2161 LP  0  0  0  0  0  0  0  0  0  0  0  0  # atno 6001 bound_to 3171
   13.5222   10.2350    8.6948 LP  0  0  0  0  0  0  0  0  0  0  0  0  # atno 6004 bound_to 5270
   12.7181    9.8868   10.0728 LP  0  0  0  0  0  0  0  0  0  0  0  0  # atno 6005 bound_to 5270
    9.6885   19.1576    7.5719 LP  0  0  0  0  0  0  0  0  0  0  0  0  # atno 6055 bound_to 637 
   11.3156   19.1367    7.7090 LP  0  0  0  0  0  0  0  0  0  0  0  0  # atno 6056 bound_to 637 
    1.2342   10.5067   10.6371 LP  0  0  0  0  0  0  0  0  0  0  0  0  # atno 6063 bound_to 1878
    0.8137   12.0209   11.0808 LP  0  0  0  0  0  0  0  0  0  0  0  0  # atno 6064 bound_to 1878
   -7.0547   17.0121   -0.2694 LP  0  0  0  0  0  0  0  0  0  0  0  0  # atno 6067 bound_to 957 
   -6.9737   15.3950   -0.4812 LP  0  0  0  0  0  0  0  0  0  0  0  0  # atno 6068 bound_to 957 

>  <STRIFE_LigEff_Score>  (70) 
2.70064

$$$$
unknown|pharmsElabsTestMulti|sdf|100|dock9
     RDKit          3D

 20 21  0  0  0  0  0  0  0  0999 V2000
   14.5402    6.8045    4.2841 C   0  0  0  0  0  0  0  0  0  0  0  0
   14.0743    7.7743    3.2115 C   0  0  0  0  0  0  0  0  0  0  0  0
   15.0746    8.7376    2.7690 N   0  0  0  0  0  0  0  0  0  0  0  0
   12.6011    8.2689    3.3065 C   0  0  0  0  0  0  0  0  0  0  0  0
   11.4734    7.3014    2.9042 C   0  0  0  0  0  0  0  0  0  0  0  0
   10.2107    8.1335    2.6209 C   0  0  0  0  0  0  0  0  0  0  0  0
    9.8041    8.9519    3.8615 C   0  0  0  0  0  0  0  0  0  0  0  0
    8.6070    9.8135    3.5664 C   0  0  0  0  0  0  0  0  0  0  0  0
    8.1051   10.5458    4.4659 O   0  0  0  0  0  0  0  0  0  0  0  0
    8.0322    9.7788    2.2551 N   0  0  0  0  0  0  0  0  0  0  0  0
    6.8501   10.5486    1.8921 C   0  0  0  0  0  0  0  0  0  0  0  0
    5.6171    9.8620    2.3997 C   0  0  0  0  0  0  0  0  0  0  0  0
    4.7566    9.2023    1.5101 C   0  0  0  0  0  0  0  0  0  0  0  0
    3.6036    8.5739    1.9849 C   0  0  0  0  0  0  0  0  0  0  0  0
    3.2988    8.6046    3.3479 C   0  0  0  0  0  0  0  0  0  0  0  0
    4.1459    9.2700    4.2446 C   0  0  0  0  0  0  0  0  0  0  0  0
    3.8324    9.3034    5.6385 N   0  0  0  0  0  0  0  0  0  0  0  0
    5.3020    9.9022    3.7671 C   0  0  0  0  0  0  0  0  0  0  0  0
   10.9586    9.8072    4.4183 C   0  0  0  0  0  0  0  0  0  0  0  0
   12.2318    8.9733    4.6239 C   0  0  0  0  0  0  0  0  0  0  0  0
  1  2  1  0
  2  3  1  0
  2  4  1  0
  4  5  1  0
  5  6  1  0
  6  7  1  0
  7  8  1  0
  8  9  2  0
  8 10  1  0
 10 11  1  0
 11 12  1  0
 12 13  2  0
 13 14  1  0
 14 15  2  0
 15 16  1  0
 16 17  1  0
 16 18  2  0
  7 19  1  0
 19 20  1  0
 20  4  1  0
 18 12  1  0
M  CHG  1   3   1
M  END
>  <EmbedRMS>  (71) 
0.17309954011637427

>  <Gold.Version>  (71) 
2020.3.0

>  <Gold.Id.Protein>  (71) 
unknown|1q8t_protein|pdb

>  <Gold.PLP.Fitness>  (71) 
52.8301

>  <Gold.PLP.PLP>  (71) 
-47.9726

>  <Gold.PLP.part.hbond>  (71) 
-2.0000

>  <Gold.PLP.part.metal>  (71) 
0.0000

>  <Gold.PLP.part.buried>  (71) 
-6.5719

>  <Gold.PLP.part.nonpolar>  (71) 
-39.6618

>  <Gold.PLP.part.repulsive>  (71) 
0.1460

>  <Gold.PLP.ligand.clash>  (71) 
0.0000

>  <Gold.PLP.ligand.torsion>  (71) 
0.7699

>  <Gold.PLP.Chemscore.Hbond>  (71) 
2.0000

>  <Gold.PLP.Chemscore.CHOScore>  (71) 
0.0000

>  <Gold.PLP.Chemscore.Metal>  (71) 
0.0000

>  <Gold.Chemscore.Hbonds>  (71) 
donor molecule, donor type, donor heavy atom, donor atom, acceptor molecule, acceptor atom, score
      L1  H     3    27       P1   675  1.00
      L1  H    17    40       P1  1891  1.00

>  <Gold.PLP.Chemscore.Internal.Correction>  (71) 
0.3973

>  <Gold.PLP.Constraint>  (71) 
-0.0000

>  <Gold.Protein.RotatedTorsions>  (71) 
[  681  677  676  673 ] final  -63.88 input -179.99 | X-H torsion
[  702  698  697  694 ] final  140.53 input  179.99 | X-H torsion
[ 2577 2569 2568 2566 ] final  102.88 input   -0.13 | X-H torsion
[ 2891 2887 2886 2883 ] final  -64.74 input  179.98 | X-H torsion
[ 3175 3171 3170 3167 ] final   23.29 input -179.99 | X-H torsion
[ 5278 5270 5269 5267 ] final  176.54 input    0.55 | X-H torsion
[  641  637  636  633 ] final -153.94 input  179.99 | X-H torsion
[ 1886 1878 1877 1875 ] final  113.56 input    1.60 | X-H torsion
[  965  957  956  954 ] final   90.95 input    0.45 | X-H torsion

>  <Gold.Protein.ActiveResidues>  (71) 
 LYS47   THR48   LEU49   GLY50   THR51   GLY52   SER53   PHE54   GLY55   ARG56  
 VAL57   MET58   LEU59   TYR69   ALA70   MET71   LYS72   ILE73   LEU74   GLU91  
 LEU95   VAL104  LYS105  MET118  VAL119  MET120  GLU121  TYR122  VAL123  PRO124 
 GLY125  GLY126  GLU127  MET128  PHE129  TYR164  ASP166  LEU167  LYS168  PRO169 
 GLU170  ASN171  LEU172  LEU173  ILE174  GLN181  VAL182  THR183  ASP184  PHE185 
 GLY186  PHE187  GLY200  THR201  ASN326  PHE327  TYR330  ARG18   ARG19   ASN20  
 ALA21   ILE22   HIS23  

>  <Gold.Protein.RotatedAtoms>  (71) 
   11.3252   19.1928    7.8564 H   0  0  0  0  0  0  0  0  0  0  0  0  # atno 641  bound_to 637 
   15.6493   13.2194    7.1691 H   0  0  0  0  0  0  0  0  0  0  0  0  # atno 681  bound_to 677 
   20.4937   11.6744   -1.9919 H   0  0  0  0  0  0  0  0  0  0  0  0  # atno 702  bound_to 698 
   -7.1674   16.0559   -0.0025 H   0  0  0  0  0  0  0  0  0  0  0  0  # atno 965  bound_to 957 
    1.2555   12.2764   10.9106 H   0  0  0  0  0  0  0  0  0  0  0  0  # atno 1886 bound_to 1878
    9.5008    2.1320   -2.5995 H   0  0  0  0  0  0  0  0  0  0  0  0  # atno 2577 bound_to 2569
    7.4466    5.2338    1.0478 H   0  0  0  0  0  0  0  0  0  0  0  0  # atno 2891 bound_to 2887
   18.8818    2.5470   -1.3773 H   0  0  0  0  0  0  0  0  0  0  0  0  # atno 3175 bound_to 3171
   14.3808   10.1013    9.3428 H   0  0  0  0  0  0  0  0  0  0  0  0  # atno 5278 bound_to 5270
   17.0725   13.9142    7.0018 LP  0  0  0  0  0  0  0  0  0  0  0  0  # atno 5914 bound_to 677 
   16.6304   12.6695    6.0417 LP  0  0  0  0  0  0  0  0  0  0  0  0  # atno 5915 bound_to 677 
   19.3246   11.8442   -0.9234 LP  0  0  0  0  0  0  0  0  0  0  0  0  # atno 5920 bound_to 698 
   20.8606   11.5627   -0.4459 LP  0  0  0  0  0  0  0  0  0  0  0  0  # atno 5921 bound_to 698 
   10.0016    3.3996   -3.4227 LP  0  0  0  0  0  0  0  0  0  0  0  0  # atno 5950 bound_to 2569
   11.0654    2.4199   -2.6644 LP  0  0  0  0  0  0  0  0  0  0  0  0  # atno 5951 bound_to 2569
    7.4515    6.7780    1.4375 LP  0  0  0  0  0  0  0  0  0  0  0  0  # atno 5982 bound_to 2887
    8.3862    6.2187    0.2209 LP  0  0  0  0  0  0  0  0  0  0  0  0  # atno 5983 bound_to 2887
   19.1298    2.9515    0.1428 LP  0  0  0  0  0  0  0  0  0  0  0  0  # atno 6000 bound_to 3171
   17.8871    1.9768   -0.2722 LP  0  0  0  0  0  0  0  0  0  0  0  0  # atno 6001 bound_to 3171
   12.8263   10.1526    8.9997 LP  0  0  0  0  0  0  0  0  0  0  0  0  # atno 6004 bound_to 5270
   13.3395    9.7864   10.5061 LP  0  0  0  0  0  0  0  0  0  0  0  0  # atno 6005 bound_to 5270
   10.2529   19.7893    8.8709 LP  0  0  0  0  0  0  0  0  0  0  0  0  # atno 6055 bound_to 637 
    9.7842   19.0988    7.4672 LP  0  0  0  0  0  0  0  0  0  0  0  0  # atno 6056 bound_to 637 
    2.2632   11.2041   10.3024 LP  0  0  0  0  0  0  0  0  0  0  0  0  # atno 6063 bound_to 1878
    0.8005   10.7511   10.8700 LP  0  0  0  0  0  0  0  0  0  0  0  0  # atno 6064 bound_to 1878
   -6.5556   15.5879   -1.3960 LP  0  0  0  0  0  0  0  0  0  0  0  0  # atno 6067 bound_to 957 
   -6.7038   17.1740   -1.0370 LP  0  0  0  0  0  0  0  0  0  0  0  0  # atno 6068 bound_to 957 

>  <STRIFE_LigEff_Score>  (71) 
2.641505

$$$$
unknown|pharmsElabsTestMulti|sdf|101|dock5
     RDKit          3D

 15 15  0  0  0  0  0  0  0  0999 V2000
   14.1058    9.0325    2.2369 C   0  0  0  0  0  0  0  0  0  0  0  0
   13.1094    7.9270    1.9320 C   0  0  0  0  0  0  0  0  0  0  0  0
   13.4654    7.0610    0.8154 N   0  0  0  0  0  0  0  0  0  0  0  0
   11.6027    8.2735    2.1133 C   0  0  0  0  0  0  0  0  0  0  0  0
   10.6019    7.1210    2.3122 C   0  0  0  0  0  0  0  0  0  0  0  0
    9.1955    7.6502    1.9834 C   0  0  0  0  0  0  0  0  0  0  0  0
    8.8352    8.8429    2.8887 C   0  0  0  0  0  0  0  0  0  0  0  0
    7.4867    9.4017    2.5277 C   0  0  0  0  0  0  0  0  0  0  0  0
    7.3064    9.9945    1.4263 O   0  0  0  0  0  0  0  0  0  0  0  0
    6.4155    9.2760    3.4642 N   0  0  0  0  0  0  0  0  0  0  0  0
    5.0700    9.7530    3.1671 C   0  0  0  0  0  0  0  0  0  0  0  0
    4.0947    9.3178    4.2600 C   0  0  0  0  0  0  0  0  0  0  0  0
    2.7283    9.6785    3.8941 N   0  0  0  0  0  0  0  0  0  0  0  0
    9.9009    9.9555    2.8692 C   0  0  0  0  0  0  0  0  0  0  0  0
   11.3072    9.3948    3.1250 C   0  0  0  0  0  0  0  0  0  0  0  0
  1  2  1  0
  2  3  1  0
  2  4  1  0
  4  5  1  0
  5  6  1  0
  6  7  1  0
  7  8  1  0
  8  9  2  0
  8 10  1  0
 10 11  1  0
 11 12  1  0
 12 13  1  0
  7 14  1  0
 14 15  1  0
 15  4  1  0
M  CHG  1   3   1
M  END
>  <EmbedRMS>  (72) 
0.19998376465474313

>  <Gold.Version>  (72) 
2020.3.0

>  <Gold.Id.Protein>  (72) 
unknown|1q8t_protein|pdb

>  <Gold.PLP.Fitness>  (72) 
39.3151

>  <Gold.PLP.PLP>  (72) 
-27.8349

>  <Gold.PLP.part.hbond>  (72) 
-3.3079

>  <Gold.PLP.part.metal>  (72) 
0.0000

>  <Gold.PLP.part.buried>  (72) 
-0.2321

>  <Gold.PLP.part.nonpolar>  (72) 
-25.7117

>  <Gold.PLP.part.repulsive>  (72) 
0.0562

>  <Gold.PLP.ligand.clash>  (72) 
0.0000

>  <Gold.PLP.ligand.torsion>  (72) 
0.4633

>  <Gold.PLP.Chemscore.Hbond>  (72) 
3.9913

>  <Gold.PLP.Chemscore.CHOScore>  (72) 
0.0000

>  <Gold.PLP.Chemscore.Metal>  (72) 
0.0000

>  <Gold.Chemscore.Hbonds>  (72) 
donor molecule, donor type, donor heavy atom, donor atom, acceptor molecule, acceptor atom, score
      L1  H     3    20       P1  2902  2.00
      L1  H     3    22       P1  2691  0.99
      P1  H  1888  1903       L1    13  1.00

>  <Gold.PLP.Chemscore.Internal.Correction>  (72) 
0.4331

>  <Gold.PLP.Constraint>  (72) 
-0.0000

>  <Gold.Protein.RotatedTorsions>  (72) 
[  681  677  676  673 ] final  154.30 input -179.99 | X-H torsion
[  702  698  697  694 ] final -119.82 input  179.99 | X-H torsion
[ 2577 2569 2568 2566 ] final   72.01 input   -0.13 | X-H torsion
[ 2891 2887 2886 2883 ] final  -76.41 input  179.98 | X-H torsion
[ 3175 3171 3170 3167 ] final   80.44 input -179.99 | X-H torsion
[ 5278 5270 5269 5267 ] final  177.02 input    0.55 | X-H torsion
[  641  637  636  633 ] final  -13.74 input  179.99 | X-H torsion
[ 1886 1878 1877 1875 ] final  134.52 input    1.60 | X-H torsion
[  965  957  956  954 ] final  115.14 input    0.45 | X-H torsion

>  <Gold.Protein.ActiveResidues>  (72) 
 LYS47   THR48   LEU49   GLY50   THR51   GLY52   SER53   PHE54   GLY55   ARG56  
 VAL57   MET58   LEU59   TYR69   ALA70   MET71   LYS72   ILE73   LEU74   GLU91  
 LEU95   VAL104  LYS105  MET118  VAL119  MET120  GLU121  TYR122  VAL123  PRO124 
 GLY125  GLY126  GLU127  MET128  PHE129  TYR164  ASP166  LEU167  LYS168  PRO169 
 GLU170  ASN171  LEU172  LEU173  ILE174  GLN181  VAL182  THR183  ASP184  PHE185 
 GLY186  PHE187  GLY200  THR201  ASN326  PHE327  TYR330  ARG18   ARG19   ASN20  
 ALA21   ILE22   HIS23  

>  <Gold.Protein.RotatedAtoms>  (72) 
    9.6463   19.2244    7.7346 H   0  0  0  0  0  0  0  0  0  0  0  0  # atno 641  bound_to 637 
   17.1981   13.7388    6.7245 H   0  0  0  0  0  0  0  0  0  0  0  0  # atno 681  bound_to 677 
   21.0201   11.5568   -0.7330 H   0  0  0  0  0  0  0  0  0  0  0  0  # atno 702  bound_to 698 
   -7.1689   16.4310    0.0087 H   0  0  0  0  0  0  0  0  0  0  0  0  # atno 965  bound_to 957 
    0.9802   12.1314   11.0072 H   0  0  0  0  0  0  0  0  0  0  0  0  # atno 1886 bound_to 1878
    9.2974    2.4789   -2.8554 H   0  0  0  0  0  0  0  0  0  0  0  0  # atno 2577 bound_to 2569
    7.3491    5.3130    1.1797 H   0  0  0  0  0  0  0  0  0  0  0  0  # atno 2891 bound_to 2887
   18.2003    2.0688   -1.1745 H   0  0  0  0  0  0  0  0  0  0  0  0  # atno 3175 bound_to 3171
   14.3832   10.0996    9.3499 H   0  0  0  0  0  0  0  0  0  0  0  0  # atno 5278 bound_to 5270
   16.3039   12.5600    6.1354 LP  0  0  0  0  0  0  0  0  0  0  0  0  # atno 5914 bound_to 677 
   15.7688   13.4770    7.3761 LP  0  0  0  0  0  0  0  0  0  0  0  0  # atno 5915 bound_to 677 
   20.1787   11.7150   -2.0764 LP  0  0  0  0  0  0  0  0  0  0  0  0  # atno 5920 bound_to 698 
   19.4526   11.8156   -0.6172 LP  0  0  0  0  0  0  0  0  0  0  0  0  # atno 5921 bound_to 698 
   10.5008    3.3830   -3.3746 LP  0  0  0  0  0  0  0  0  0  0  0  0  # atno 5950 bound_to 2569
   10.7803    2.0711   -2.4432 LP  0  0  0  0  0  0  0  0  0  0  0  0  # atno 5951 bound_to 2569
    7.5681    6.8836    1.3278 LP  0  0  0  0  0  0  0  0  0  0  0  0  # atno 5982 bound_to 2887
    8.3722    6.0296    0.1917 LP  0  0  0  0  0  0  0  0  0  0  0  0  # atno 5983 bound_to 2887
   19.3862    3.0287   -0.7184 LP  0  0  0  0  0  0  0  0  0  0  0  0  # atno 6000 bound_to 3171
   18.3478    2.4028    0.3755 LP  0  0  0  0  0  0  0  0  0  0  0  0  # atno 6001 bound_to 3171
   12.8317   10.1540    8.9940 LP  0  0  0  0  0  0  0  0  0  0  0  0  # atno 6004 bound_to 5270
   13.3316    9.7867   10.5045 LP  0  0  0  0  0  0  0  0  0  0  0  0  # atno 6005 bound_to 5270
   11.2227   19.0717    7.5716 LP  0  0  0  0  0  0  0  0  0  0  0  0  # atno 6055 bound_to 637 
   10.5826   19.7831    8.8948 LP  0  0  0  0  0  0  0  0  0  0  0  0  # atno 6056 bound_to 637 
    2.3020   11.5424   10.3430 LP  0  0  0  0  0  0  0  0  0  0  0  0  # atno 6063 bound_to 1878
    1.0514   10.5655   10.7278 LP  0  0  0  0  0  0  0  0  0  0  0  0  # atno 6064 bound_to 1878
   -6.6965   15.3805   -1.0906 LP  0  0  0  0  0  0  0  0  0  0  0  0  # atno 6067 bound_to 957 
   -6.5613   16.9864   -1.3541 LP  0  0  0  0  0  0  0  0  0  0  0  0  # atno 6068 bound_to 957 

>  <STRIFE_LigEff_Score>  (72) 
2.6210066666666667

$$$$
unknown|pharmsElabsTestMulti|sdf|102|dock5
     RDKit          3D

 18 18  0  0  0  0  0  0  0  0999 V2000
    3.9000   10.0344    5.9064 C   0  0  0  0  0  0  0  0  0  0  0  0
    3.9158    9.6513    4.4633 C   0  0  0  0  0  0  0  0  0  0  0  0
    2.8735    9.7964    3.7685 O   0  0  0  0  0  0  0  0  0  0  0  0
    5.1207    9.1446    3.8728 N   0  0  0  0  0  0  0  0  0  0  0  0
    5.2081    8.7630    2.4648 C   0  0  0  0  0  0  0  0  0  0  0  0
    5.7758    9.9119    1.6169 C   0  0  0  0  0  0  0  0  0  0  0  0
    7.2206    9.7336    1.4094 N   0  0  0  0  0  0  0  0  0  0  0  0
    8.0819    9.4561    2.5261 C   0  0  0  0  0  0  0  0  0  0  0  0
    7.6031    9.4824    3.6870 O   0  0  0  0  0  0  0  0  0  0  0  0
    9.5353    9.0974    2.4415 C   0  0  0  0  0  0  0  0  0  0  0  0
    9.8319    7.5973    2.5088 C   0  0  0  0  0  0  0  0  0  0  0  0
   11.3313    7.2483    2.6068 C   0  0  0  0  0  0  0  0  0  0  0  0
   12.2013    8.3647    2.0081 C   0  0  0  0  0  0  0  0  0  0  0  0
   13.6911    8.0327    1.6860 C   0  0  0  0  0  0  0  0  0  0  0  0
   14.6088    9.2060    1.3863 C   0  0  0  0  0  0  0  0  0  0  0  0
   13.9561    6.8323    0.9005 N   0  0  0  0  0  0  0  0  0  0  0  0
   12.0156    9.6599    2.8249 C   0  0  0  0  0  0  0  0  0  0  0  0
   10.5445   10.1064    2.9661 C   0  0  0  0  0  0  0  0  0  0  0  0
  1  2  1  0
  2  3  2  0
  2  4  1  0
  4  5  1  0
  5  6  1  0
  6  7  1  0
  7  8  1  0
  8  9  2  0
  8 10  1  0
 10 11  1  0
 11 12  1  0
 12 13  1  0
 13 14  1  0
 14 15  1  0
 14 16  1  0
 13 17  1  0
 17 18  1  0
 18 10  1  0
M  CHG  1  16   1
M  END
>  <EmbedRMS>  (73) 
0.2509587523478319

>  <Gold.Version>  (73) 
2020.3.0

>  <Gold.Id.Protein>  (73) 
unknown|1q8t_protein|pdb

>  <Gold.PLP.Fitness>  (73) 
50.1695

>  <Gold.PLP.PLP>  (73) 
-39.2569

>  <Gold.PLP.part.hbond>  (73) 
-2.9484

>  <Gold.PLP.part.metal>  (73) 
0.0000

>  <Gold.PLP.part.buried>  (73) 
-5.5917

>  <Gold.PLP.part.nonpolar>  (73) 
-32.4768

>  <Gold.PLP.part.repulsive>  (73) 
0.2358

>  <Gold.PLP.ligand.clash>  (73) 
0.0000

>  <Gold.PLP.ligand.torsion>  (73) 
1.0502

>  <Gold.PLP.Chemscore.Hbond>  (73) 
3.9760

>  <Gold.PLP.Chemscore.CHOScore>  (73) 
0.0000

>  <Gold.PLP.Chemscore.Metal>  (73) 
0.0000

>  <Gold.Chemscore.Hbonds>  (73) 
donor molecule, donor type, donor heavy atom, donor atom, acceptor molecule, acceptor atom, score
      L1  H    16    38       P1  2902  1.98
      L1  H    16    40       P1  2691  0.99
      P1  H  1888  1903       L1     3  1.00

>  <Gold.PLP.Chemscore.Internal.Correction>  (73) 
1.0850

>  <Gold.PLP.Constraint>  (73) 
-0.0000

>  <Gold.Protein.RotatedTorsions>  (73) 
[  681  677  676  673 ] final   75.44 input -179.99 | X-H torsion
[  702  698  697  694 ] final   86.40 input  179.99 | X-H torsion
[ 2577 2569 2568 2566 ] final  -55.71 input   -0.13 | X-H torsion
[ 2891 2887 2886 2883 ] final -137.94 input  179.98 | X-H torsion
[ 3175 3171 3170 3167 ] final  165.77 input -179.99 | X-H torsion
[ 5278 5270 5269 5267 ] final -132.70 input    0.55 | X-H torsion
[  641  637  636  633 ] final  111.26 input  179.99 | X-H torsion
[ 1886 1878 1877 1875 ] final -146.78 input    1.60 | X-H torsion
[  965  957  956  954 ] final   97.75 input    0.45 | X-H torsion

>  <Gold.Protein.ActiveResidues>  (73) 
 LYS47   THR48   LEU49   GLY50   THR51   GLY52   SER53   PHE54   GLY55   ARG56  
 VAL57   MET58   LEU59   TYR69   ALA70   MET71   LYS72   ILE73   LEU74   GLU91  
 LEU95   VAL104  LYS105  MET118  VAL119  MET120  GLU121  TYR122  VAL123  PRO124 
 GLY125  GLY126  GLU127  MET128  PHE129  TYR164  ASP166  LEU167  LYS168  PRO169 
 GLU170  ASN171  LEU172  LEU173  ILE174  GLN181  VAL182  THR183  ASP184  PHE185 
 GLY186  PHE187  GLY200  THR201  ASN326  PHE327  TYR330  ARG18   ARG19   ASN20  
 ALA21   ILE22   HIS23  

>  <Gold.Protein.RotatedAtoms>  (73) 
   10.6531   19.7380    8.8506 H   0  0  0  0  0  0  0  0  0  0  0  0  # atno 641  bound_to 637 
   16.8685   12.8702    6.0675 H   0  0  0  0  0  0  0  0  0  0  0  0  # atno 681  bound_to 677 
   19.7025   11.8119   -1.8495 H   0  0  0  0  0  0  0  0  0  0  0  0  # atno 702  bound_to 698 
   -7.1745   16.1603    0.0152 H   0  0  0  0  0  0  0  0  0  0  0  0  # atno 965  bound_to 957 
    0.6710   11.0398   10.9574 H   0  0  0  0  0  0  0  0  0  0  0  0  # atno 1886 bound_to 1878
   10.5955    3.2999   -3.3303 H   0  0  0  0  0  0  0  0  0  0  0  0  # atno 2577 bound_to 2569
    7.1700    6.1178    1.5800 H   0  0  0  0  0  0  0  0  0  0  0  0  # atno 2891 bound_to 2887
   18.0401    2.1076    0.0283 H   0  0  0  0  0  0  0  0  0  0  0  0  # atno 3175 bound_to 3171
   14.2863    9.9179   10.0827 H   0  0  0  0  0  0  0  0  0  0  0  0  # atno 5278 bound_to 5270
   15.5768   12.9713    6.9936 LP  0  0  0  0  0  0  0  0  0  0  0  0  # atno 5914 bound_to 677 
   16.8428   13.9800    7.2093 LP  0  0  0  0  0  0  0  0  0  0  0  0  # atno 5915 bound_to 677 
   19.8660   11.7355   -0.2669 LP  0  0  0  0  0  0  0  0  0  0  0  0  # atno 5920 bound_to 698 
   21.1514   11.5267   -1.2522 LP  0  0  0  0  0  0  0  0  0  0  0  0  # atno 5921 bound_to 698 
   10.6777    2.0063   -2.4057 LP  0  0  0  0  0  0  0  0  0  0  0  0  # atno 5950 bound_to 2569
    9.2365    2.5834   -2.9120 LP  0  0  0  0  0  0  0  0  0  0  0  0  # atno 5951 bound_to 2569
    8.1923    6.8383    0.5939 LP  0  0  0  0  0  0  0  0  0  0  0  0  # atno 5982 bound_to 2887
    7.9365    5.2279    0.5043 LP  0  0  0  0  0  0  0  0  0  0  0  0  # atno 5983 bound_to 2887
   18.5906    2.3440   -1.4471 LP  0  0  0  0  0  0  0  0  0  0  0  0  # atno 6000 bound_to 3171
   19.3120    3.0467   -0.1616 LP  0  0  0  0  0  0  0  0  0  0  0  0  # atno 6001 bound_to 3171
   13.5706   10.2353    8.6957 LP  0  0  0  0  0  0  0  0  0  0  0  0  # atno 6004 bound_to 5270
   12.6946    9.8967   10.0316 LP  0  0  0  0  0  0  0  0  0  0  0  0  # atno 6005 bound_to 5270
    9.5745   19.2689    7.7774 LP  0  0  0  0  0  0  0  0  0  0  0  0  # atno 6055 bound_to 637 
   11.1705   19.0451    7.5137 LP  0  0  0  0  0  0  0  0  0  0  0  0  # atno 6056 bound_to 637 
    1.5580   12.3538   10.8094 LP  0  0  0  0  0  0  0  0  0  0  0  0  # atno 6063 bound_to 1878
    2.1209   10.9032   10.3138 LP  0  0  0  0  0  0  0  0  0  0  0  0  # atno 6064 bound_to 1878
   -6.5914   15.5155   -1.3187 LP  0  0  0  0  0  0  0  0  0  0  0  0  # atno 6067 bound_to 957 
   -6.6605   17.1364   -1.1329 LP  0  0  0  0  0  0  0  0  0  0  0  0  # atno 6068 bound_to 957 

>  <STRIFE_LigEff_Score>  (73) 
2.7871944444444443

$$$$
unknown|pharmsElabsTestMulti|sdf|103|dock5
     RDKit          3D

 17 17  0  0  0  0  0  0  0  0999 V2000
    3.7849    9.7996    5.5757 C   0  0  0  0  0  0  0  0  0  0  0  0
    3.7229    9.0285    4.2583 C   0  0  0  0  0  0  0  0  0  0  0  0
    5.0813    8.9992    3.5373 C   0  0  0  0  0  0  0  0  0  0  0  0
    4.8601    9.0173    2.1515 O   0  0  0  0  0  0  0  0  0  0  0  0
    6.0044   10.1659    3.9364 C   0  0  0  0  0  0  0  0  0  0  0  0
    7.4065    9.7565    3.9363 N   0  0  0  0  0  0  0  0  0  0  0  0
    8.0157    9.0770    2.8338 C   0  0  0  0  0  0  0  0  0  0  0  0
    7.3704    8.8990    1.7616 O   0  0  0  0  0  0  0  0  0  0  0  0
    9.4393    8.5935    2.9481 C   0  0  0  0  0  0  0  0  0  0  0  0
    9.8996    8.0521    1.5991 C   0  0  0  0  0  0  0  0  0  0  0  0
   11.2897    7.4454    1.6572 C   0  0  0  0  0  0  0  0  0  0  0  0
   12.2970    8.2087    2.5378 C   0  0  0  0  0  0  0  0  0  0  0  0
   13.8068    8.0627    2.1342 C   0  0  0  0  0  0  0  0  0  0  0  0
   14.7994    7.8432    3.2859 C   0  0  0  0  0  0  0  0  0  0  0  0
   14.0097    7.0482    1.0937 N   0  0  0  0  0  0  0  0  0  0  0  0
   11.8534    9.4851    3.2827 C   0  0  0  0  0  0  0  0  0  0  0  0
   10.3400    9.7447    3.4084 C   0  0  0  0  0  0  0  0  0  0  0  0
  1  2  1  0
  2  3  1  0
  3  4  1  0
  3  5  1  0
  5  6  1  0
  6  7  1  0
  7  8  2  0
  7  9  1  0
  9 10  1  0
 10 11  1  0
 11 12  1  0
 12 13  1  0
 13 14  1  0
 13 15  1  0
 12 16  1  0
 16 17  1  0
 17  9  1  0
M  CHG  1  15   1
M  END
>  <EmbedRMS>  (74) 
0.1692382603345377

>  <Gold.Version>  (74) 
2020.3.0

>  <Gold.Id.Protein>  (74) 
unknown|1q8t_protein|pdb

>  <Gold.PLP.Fitness>  (74) 
49.0563

>  <Gold.PLP.PLP>  (74) 
-39.8727

>  <Gold.PLP.part.hbond>  (74) 
-3.0000

>  <Gold.PLP.part.metal>  (74) 
0.0000

>  <Gold.PLP.part.buried>  (74) 
-3.1430

>  <Gold.PLP.part.nonpolar>  (74) 
-33.7188

>  <Gold.PLP.part.repulsive>  (74) 
0.0650

>  <Gold.PLP.ligand.clash>  (74) 
0.0000

>  <Gold.PLP.ligand.torsion>  (74) 
1.8060

>  <Gold.PLP.Chemscore.Hbond>  (74) 
4.0000

>  <Gold.PLP.Chemscore.CHOScore>  (74) 
0.0000

>  <Gold.PLP.Chemscore.Metal>  (74) 
0.0000

>  <Gold.Chemscore.Hbonds>  (74) 
donor molecule, donor type, donor heavy atom, donor atom, acceptor molecule, acceptor atom, score
      L1  H    15    39       P1  2691  1.00
      L1  H    15    40       P1  2902  2.00
      P1  H  2887  2891       L1     8  1.00

>  <Gold.PLP.Chemscore.Internal.Correction>  (74) 
0.7956

>  <Gold.PLP.Constraint>  (74) 
-0.0000

>  <Gold.Protein.RotatedTorsions>  (74) 
[  681  677  676  673 ] final   16.34 input -179.99 | X-H torsion
[  702  698  697  694 ] final  103.44 input  179.99 | X-H torsion
[ 2577 2569 2568 2566 ] final -172.20 input   -0.13 | X-H torsion
[ 2891 2887 2886 2883 ] final  154.87 input  179.98 | X-H torsion
[ 3175 3171 3170 3167 ] final  -25.52 input -179.99 | X-H torsion
[ 5278 5270 5269 5267 ] final   36.72 input    0.55 | X-H torsion
[  641  637  636  633 ] final   12.16 input  179.99 | X-H torsion
[ 1886 1878 1877 1875 ] final  -86.24 input    1.60 | X-H torsion
[  965  957  956  954 ] final -124.84 input    0.45 | X-H torsion

>  <Gold.Protein.ActiveResidues>  (74) 
 LYS47   THR48   LEU49   GLY50   THR51   GLY52   SER53   PHE54   GLY55   ARG56  
 VAL57   MET58   LEU59   TYR69   ALA70   MET71   LYS72   ILE73   LEU74   GLU91  
 LEU95   VAL104  LYS105  MET118  VAL119  MET120  GLU121  TYR122  VAL123  PRO124 
 GLY125  GLY126  GLU127  MET128  PHE129  TYR164  ASP166  LEU167  LYS168  PRO169 
 GLU170  ASN171  LEU172  LEU173  ILE174  GLN181  VAL182  THR183  ASP184  PHE185 
 GLY186  PHE187  GLY200  THR201  ASN326  PHE327  TYR330  ARG18   ARG19   ASN20  
 ALA21   ILE22   HIS23  

>  <Gold.Protein.RotatedAtoms>  (74) 
    9.5756   19.4072    8.0848 H   0  0  0  0  0  0  0  0  0  0  0  0  # atno 641  bound_to 637 
   16.0605   12.5918    6.2921 H   0  0  0  0  0  0  0  0  0  0  0  0  # atno 681  bound_to 677 
   19.9325   11.7736   -1.9766 H   0  0  0  0  0  0  0  0  0  0  0  0  # atno 702  bound_to 698 
   -6.5594   16.9500   -1.3196 H   0  0  0  0  0  0  0  0  0  0  0  0  # atno 965  bound_to 957 
    1.3265   10.5441   10.5839 H   0  0  0  0  0  0  0  0  0  0  0  0  # atno 1886 bound_to 1878
   10.6990    2.0555   -2.4587 H   0  0  0  0  0  0  0  0  0  0  0  0  # atno 2577 bound_to 2569
    7.6533    6.8993    1.2074 H   0  0  0  0  0  0  0  0  0  0  0  0  # atno 2891 bound_to 2887
   19.3135    2.9277   -0.9119 H   0  0  0  0  0  0  0  0  0  0  0  0  # atno 3175 bound_to 3171
   12.6987   10.0973    9.2881 H   0  0  0  0  0  0  0  0  0  0  0  0  # atno 5278 bound_to 5270
   15.9690   13.6789    7.4522 LP  0  0  0  0  0  0  0  0  0  0  0  0  # atno 5914 bound_to 677 
   17.3010   13.5653    6.5144 LP  0  0  0  0  0  0  0  0  0  0  0  0  # atno 5915 bound_to 677 
   19.6317   11.7799   -0.4124 LP  0  0  0  0  0  0  0  0  0  0  0  0  # atno 5920 bound_to 698 
   21.1437   11.5227   -0.9730 LP  0  0  0  0  0  0  0  0  0  0  0  0  # atno 5921 bound_to 698 
    9.2405    2.5363   -2.8790 LP  0  0  0  0  0  0  0  0  0  0  0  0  # atno 5950 bound_to 2569
   10.5648    3.3637   -3.3565 LP  0  0  0  0  0  0  0  0  0  0  0  0  # atno 5951 bound_to 2569
    8.3452    5.8888    0.1892 LP  0  0  0  0  0  0  0  0  0  0  0  0  # atno 5982 bound_to 2887
    7.2749    5.3551    1.3011 LP  0  0  0  0  0  0  0  0  0  0  0  0  # atno 5983 bound_to 2887
   18.5273    2.5413    0.4178 LP  0  0  0  0  0  0  0  0  0  0  0  0  # atno 6000 bound_to 3171
   18.0353    1.9863   -1.0370 LP  0  0  0  0  0  0  0  0  0  0  0  0  # atno 6001 bound_to 3171
   13.6638    9.7872   10.5167 LP  0  0  0  0  0  0  0  0  0  0  0  0  # atno 6004 bound_to 5270
   14.2719   10.1561    9.0467 LP  0  0  0  0  0  0  0  0  0  0  0  0  # atno 6005 bound_to 5270
   10.9001   18.9621    7.3216 LP  0  0  0  0  0  0  0  0  0  0  0  0  # atno 6055 bound_to 637 
   10.9796   19.7003    8.7760 LP  0  0  0  0  0  0  0  0  0  0  0  0  # atno 6056 bound_to 637 
    0.7518   11.9386   11.0940 LP  0  0  0  0  0  0  0  0  0  0  0  0  # atno 6063 bound_to 1878
    2.2371   11.8402   10.4224 LP  0  0  0  0  0  0  0  0  0  0  0  0  # atno 6064 bound_to 1878
   -7.2030   16.4399    0.0445 LP  0  0  0  0  0  0  0  0  0  0  0  0  # atno 6067 bound_to 957 
   -6.6967   15.3804   -1.0902 LP  0  0  0  0  0  0  0  0  0  0  0  0  # atno 6068 bound_to 957 

>  <STRIFE_LigEff_Score>  (74) 
2.885664705882353

$$$$
unknown|pharmsElabsTestMulti|sdf|104|dock6
     RDKit          3D

 18 18  0  0  0  0  0  0  0  0999 V2000
   14.4697    7.7980    3.3011 C   0  0  0  0  0  0  0  0  0  0  0  0
   13.1805    7.7028    2.4868 C   0  0  0  0  0  0  0  0  0  0  0  0
   13.1868    8.6055    1.3339 N   0  0  0  0  0  0  0  0  0  0  0  0
   11.8286    7.7155    3.2422 C   0  0  0  0  0  0  0  0  0  0  0  0
   10.6439    7.2300    2.3943 C   0  0  0  0  0  0  0  0  0  0  0  0
    9.2588    7.6272    2.8771 C   0  0  0  0  0  0  0  0  0  0  0  0
    9.2027    9.0474    3.3805 C   0  0  0  0  0  0  0  0  0  0  0  0
    7.8106    9.5756    3.5621 C   0  0  0  0  0  0  0  0  0  0  0  0
    7.1973    9.8180    2.4937 O   0  0  0  0  0  0  0  0  0  0  0  0
    7.1530    9.8316    4.8161 N   0  0  0  0  0  0  0  0  0  0  0  0
    5.8239   10.4606    4.7868 C   0  0  0  0  0  0  0  0  0  0  0  0
    4.7144    9.5056    5.2163 C   0  0  0  0  0  0  0  0  0  0  0  0
    3.6152    9.5405    4.2492 N   0  0  0  0  0  0  0  0  0  0  0  0
    3.7982    9.1526    2.8859 C   0  0  0  0  0  0  0  0  0  0  0  0
    4.9265    8.7692    2.4762 O   0  0  0  0  0  0  0  0  0  0  0  0
    2.7213    9.1999    2.0065 O   0  0  0  0  0  0  0  0  0  0  0  0
   10.2242    9.4338    4.4132 C   0  0  0  0  0  0  0  0  0  0  0  0
   11.6434    9.0631    3.9888 C   0  0  0  0  0  0  0  0  0  0  0  0
  1  2  1  0
  2  3  1  0
  2  4  1  0
  4  5  1  0
  5  6  1  0
  6  7  1  0
  7  8  1  0
  8  9  2  0
  8 10  1  0
 10 11  1  0
 11 12  1  0
 12 13  1  0
 13 14  1  0
 14 15  2  0
 14 16  1  0
  7 17  1  0
 17 18  1  0
 18  4  1  0
M  CHG  1   3   1
M  END
>  <EmbedRMS>  (75) 
0.2924325341636962

>  <Gold.Version>  (75) 
2020.3.0

>  <Gold.Id.Protein>  (75) 
unknown|1q8t_protein|pdb

>  <Gold.PLP.Fitness>  (75) 
47.6464

>  <Gold.PLP.PLP>  (75) 
-40.0537

>  <Gold.PLP.part.hbond>  (75) 
-1.9961

>  <Gold.PLP.part.metal>  (75) 
0.0000

>  <Gold.PLP.part.buried>  (75) 
-6.8776

>  <Gold.PLP.part.nonpolar>  (75) 
-30.7960

>  <Gold.PLP.part.repulsive>  (75) 
0.0966

>  <Gold.PLP.ligand.clash>  (75) 
0.0000

>  <Gold.PLP.ligand.torsion>  (75) 
0.9775

>  <Gold.PLP.Chemscore.Hbond>  (75) 
2.9440

>  <Gold.PLP.Chemscore.CHOScore>  (75) 
0.0000

>  <Gold.PLP.Chemscore.Metal>  (75) 
0.0000

>  <Gold.Chemscore.Hbonds>  (75) 
donor molecule, donor type, donor heavy atom, donor atom, acceptor molecule, acceptor atom, score
      L1  H     3    25       P1  2902  2.00
      L1  H    16    38       P1  1855  0.94

>  <Gold.PLP.Chemscore.Internal.Correction>  (75) 
0.7157

>  <Gold.PLP.Constraint>  (75) 
-0.0000

>  <Gold.Protein.RotatedTorsions>  (75) 
[  681  677  676  673 ] final  -32.66 input -179.99 | X-H torsion
[  702  698  697  694 ] final  -98.20 input  179.99 | X-H torsion
[ 2577 2569 2568 2566 ] final   30.80 input   -0.13 | X-H torsion
[ 2891 2887 2886 2883 ] final  146.08 input  179.98 | X-H torsion
[ 3175 3171 3170 3167 ] final   11.38 input -179.99 | X-H torsion
[ 5278 5270 5269 5267 ] final -129.32 input    0.55 | X-H torsion
[  641  637  636  633 ] final  -44.01 input  179.99 | X-H torsion
[ 1886 1878 1877 1875 ] final  -90.06 input    1.60 | X-H torsion
[  965  957  956  954 ] final    7.54 input    0.45 | X-H torsion

>  <Gold.Protein.ActiveResidues>  (75) 
 LYS47   THR48   LEU49   GLY50   THR51   GLY52   SER53   PHE54   GLY55   ARG56  
 VAL57   MET58   LEU59   TYR69   ALA70   MET71   LYS72   ILE73   LEU74   GLU91  
 LEU95   VAL104  LYS105  MET118  VAL119  MET120  GLU121  TYR122  VAL123  PRO124 
 GLY125  GLY126  GLU127  MET128  PHE129  TYR164  ASP166  LEU167  LYS168  PRO169 
 GLU170  ASN171  LEU172  LEU173  ILE174  GLN181  VAL182  THR183  ASP184  PHE185 
 GLY186  PHE187  GLY200  THR201  ASN326  PHE327  TYR330  ARG18   ARG19   ASN20  
 ALA21   ILE22   HIS23  

>  <Gold.Protein.RotatedAtoms>  (75) 
    9.9353   19.0446    7.4141 H   0  0  0  0  0  0  0  0  0  0  0  0  # atno 641  bound_to 637 
   15.6370   12.8734    6.8335 H   0  0  0  0  0  0  0  0  0  0  0  0  # atno 681  bound_to 677 
   20.8178   11.5875   -0.4662 H   0  0  0  0  0  0  0  0  0  0  0  0  # atno 702  bound_to 698 
   -6.7662   15.3804   -0.8982 H   0  0  0  0  0  0  0  0  0  0  0  0  # atno 965  bound_to 957 
    1.2725   10.5496   10.6086 H   0  0  0  0  0  0  0  0  0  0  0  0  # atno 1886 bound_to 1878
    9.4145    2.9915   -3.2027 H   0  0  0  0  0  0  0  0  0  0  0  0  # atno 2577 bound_to 2569
    7.7441    6.9342    1.1105 H   0  0  0  0  0  0  0  0  0  0  0  0  # atno 2891 bound_to 2887
   19.0174    2.6560   -1.3117 H   0  0  0  0  0  0  0  0  0  0  0  0  # atno 3175 bound_to 3171
   14.2566    9.9071   10.1252 H   0  0  0  0  0  0  0  0  0  0  0  0  # atno 5278 bound_to 5270
   16.6767   13.9804    7.3126 LP  0  0  0  0  0  0  0  0  0  0  0  0  # atno 5914 bound_to 677 
   17.0390   12.9675    6.0840 LP  0  0  0  0  0  0  0  0  0  0  0  0  # atno 5915 bound_to 677 
   20.5239   11.6530   -2.0304 LP  0  0  0  0  0  0  0  0  0  0  0  0  # atno 5920 bound_to 698 
   19.3202   11.8454   -0.9438 LP  0  0  0  0  0  0  0  0  0  0  0  0  # atno 5921 bound_to 698 
   11.0027    3.0446   -3.1028 LP  0  0  0  0  0  0  0  0  0  0  0  0  # atno 5950 bound_to 2569
   10.1551    1.8698   -2.3492 LP  0  0  0  0  0  0  0  0  0  0  0  0  # atno 5951 bound_to 2569
    8.3043    5.7509    0.2036 LP  0  0  0  0  0  0  0  0  0  0  0  0  # atno 5982 bound_to 2887
    7.2202    5.4561    1.3887 LP  0  0  0  0  0  0  0  0  0  0  0  0  # atno 5983 bound_to 2887
   19.0002    2.8717    0.2659 LP  0  0  0  0  0  0  0  0  0  0  0  0  # atno 6000 bound_to 3171
   17.8739    1.9418   -0.4644 LP  0  0  0  0  0  0  0  0  0  0  0  0  # atno 6001 bound_to 3171
   13.6261   10.2349    8.6998 LP  0  0  0  0  0  0  0  0  0  0  0  0  # atno 6004 bound_to 5270
   12.6703    9.9084    9.9829 LP  0  0  0  0  0  0  0  0  0  0  0  0  # atno 6005 bound_to 5270
   11.4049   19.2716    7.9830 LP  0  0  0  0  0  0  0  0  0  0  0  0  # atno 6055 bound_to 637 
   10.0960   19.7726    8.8209 LP  0  0  0  0  0  0  0  0  0  0  0  0  # atno 6056 bound_to 637 
    0.7883   11.9893   11.0865 LP  0  0  0  0  0  0  0  0  0  0  0  0  # atno 6063 bound_to 1878
    2.2575   11.7838   10.4038 LP  0  0  0  0  0  0  0  0  0  0  0  0  # atno 6064 bound_to 1878
   -6.5046   16.8386   -1.4818 LP  0  0  0  0  0  0  0  0  0  0  0  0  # atno 6067 bound_to 957 
   -7.1774   16.6348   -0.0078 LP  0  0  0  0  0  0  0  0  0  0  0  0  # atno 6068 bound_to 957 

>  <STRIFE_LigEff_Score>  (75) 
2.647022222222222

$$$$
unknown|pharmsElabsTestMulti|sdf|71|dock1
     RDKit          3D

 17 17  0  0  0  0  0  0  0  0999 V2000
   14.5434    9.0444    1.6929 C   0  0  0  0  0  0  0  0  0  0  0  0
   13.6138    7.8671    1.9828 C   0  0  0  0  0  0  0  0  0  0  0  0
   13.3825    7.0401    0.7967 N   0  0  0  0  0  0  0  0  0  0  0  0
   12.3146    8.1330    2.7826 C   0  0  0  0  0  0  0  0  0  0  0  0
   11.1588    7.1928    2.4108 C   0  0  0  0  0  0  0  0  0  0  0  0
    9.7621    7.6553    2.7902 C   0  0  0  0  0  0  0  0  0  0  0  0
    9.5504    9.1276    2.5447 C   0  0  0  0  0  0  0  0  0  0  0  0
    8.1139    9.5531    2.6036 C   0  0  0  0  0  0  0  0  0  0  0  0
    7.6821    9.7973    3.7560 O   0  0  0  0  0  0  0  0  0  0  0  0
    7.2244    9.6802    1.4806 N   0  0  0  0  0  0  0  0  0  0  0  0
    5.7958    9.9558    1.6940 C   0  0  0  0  0  0  0  0  0  0  0  0
    5.1734    8.8961    2.6161 C   0  0  0  0  0  0  0  0  0  0  0  0
    5.2196    9.3183    4.0151 N   0  0  0  0  0  0  0  0  0  0  0  0
    4.0307    9.6593    4.7344 C   0  0  0  0  0  0  0  0  0  0  0  0
    2.9020    9.6147    4.1759 O   0  0  0  0  0  0  0  0  0  0  0  0
   10.5663   10.0591    3.1454 C   0  0  0  0  0  0  0  0  0  0  0  0
   11.9974    9.6519    2.8020 C   0  0  0  0  0  0  0  0  0  0  0  0
  1  2  1  0
  2  3  1  0
  2  4  1  0
  4  5  1  0
  5  6  1  0
  6  7  1  0
  7  8  1  0
  8  9  2  0
  8 10  1  0
 10 11  1  0
 11 12  1  0
 12 13  1  0
 13 14  1  0
 14 15  2  0
  7 16  1  0
 16 17  1  0
 17  4  1  0
M  CHG  1   3   1
M  END
>  <EmbedRMS>  (76) 
0.30207850723488733

>  <Gold.Version>  (76) 
2020.3.0

>  <Gold.Id.Protein>  (76) 
unknown|1q8t_protein|pdb

>  <Gold.PLP.Fitness>  (76) 
43.7348

>  <Gold.PLP.PLP>  (76) 
-35.0926

>  <Gold.PLP.part.hbond>  (76) 
-2.5725

>  <Gold.PLP.part.metal>  (76) 
0.0000

>  <Gold.PLP.part.buried>  (76) 
-6.2420

>  <Gold.PLP.part.nonpolar>  (76) 
-27.1795

>  <Gold.PLP.part.repulsive>  (76) 
0.2096

>  <Gold.PLP.ligand.clash>  (76) 
0.0000

>  <Gold.PLP.ligand.torsion>  (76) 
1.8114

>  <Gold.PLP.Chemscore.Hbond>  (76) 
3.8320

>  <Gold.PLP.Chemscore.CHOScore>  (76) 
0.0000

>  <Gold.PLP.Chemscore.Metal>  (76) 
0.0000

>  <Gold.Chemscore.Hbonds>  (76) 
donor molecule, donor type, donor heavy atom, donor atom, acceptor molecule, acceptor atom, score
      L1  H     3    22       P1  2902  1.98
      L1  H     3    24       P1  2691  0.85
      P1  H  1888  1903       L1    15  1.00

>  <Gold.PLP.Chemscore.Internal.Correction>  (76) 
0.7689

>  <Gold.PLP.Constraint>  (76) 
-0.0000

>  <Gold.Protein.RotatedTorsions>  (76) 
[  681  677  676  673 ] final -110.64 input -179.99 | X-H torsion
[  702  698  697  694 ] final   11.83 input  179.99 | X-H torsion
[ 2577 2569 2568 2566 ] final -113.02 input   -0.13 | X-H torsion
[ 2891 2887 2886 2883 ] final -129.95 input  179.98 | X-H torsion
[ 3175 3171 3170 3167 ] final  -95.74 input -179.99 | X-H torsion
[ 5278 5270 5269 5267 ] final  -54.78 input    0.55 | X-H torsion
[  641  637  636  633 ] final  121.59 input  179.99 | X-H torsion
[ 1886 1878 1877 1875 ] final  -24.94 input    1.60 | X-H torsion
[  965  957  956  954 ] final -176.75 input    0.45 | X-H torsion

>  <Gold.Protein.ActiveResidues>  (76) 
 LYS47   THR48   LEU49   GLY50   THR51   GLY52   SER53   PHE54   GLY55   ARG56  
 VAL57   MET58   LEU59   TYR69   ALA70   MET71   LYS72   ILE73   LEU74   GLU91  
 LEU95   VAL104  LYS105  MET118  VAL119  MET120  GLU121  TYR122  VAL123  PRO124 
 GLY125  GLY126  GLU127  MET128  PHE129  TYR164  ASP166  LEU167  LYS168  PRO169 
 GLU170  ASN171  LEU172  LEU173  ILE174  GLN181  VAL182  THR183  ASP184  PHE185 
 GLY186  PHE187  GLY200  THR201  ASN326  PHE327  TYR330  ARG18   ARG19   ASN20  
 ALA21   ILE22   HIS23  

>  <Gold.Protein.RotatedAtoms>  (76) 
   10.8069   19.7097    8.8119 H   0  0  0  0  0  0  0  0  0  0  0  0  # atno 641  bound_to 637 
   16.0726   13.7340    7.4170 H   0  0  0  0  0  0  0  0  0  0  0  0  # atno 681  bound_to 677 
   19.4116   11.8433   -0.8038 H   0  0  0  0  0  0  0  0  0  0  0  0  # atno 702  bound_to 698 
   -6.8722   17.1462   -0.6282 H   0  0  0  0  0  0  0  0  0  0  0  0  # atno 965  bound_to 957 
    2.0958   10.9558   10.3149 H   0  0  0  0  0  0  0  0  0  0  0  0  # atno 1886 bound_to 1878
   11.0686    2.7279   -2.8985 H   0  0  0  0  0  0  0  0  0  0  0  0  # atno 2577 bound_to 2569
    7.1561    5.9946    1.5665 H   0  0  0  0  0  0  0  0  0  0  0  0  # atno 2891 bound_to 2887
   19.1244    2.9203    0.1010 H   0  0  0  0  0  0  0  0  0  0  0  0  # atno 3175 bound_to 3171
   13.2184    9.8213   10.4290 H   0  0  0  0  0  0  0  0  0  0  0  0  # atno 5278 bound_to 5270
   17.3002   13.4836    6.4338 LP  0  0  0  0  0  0  0  0  0  0  0  0  # atno 5914 bound_to 677 
   15.9571   12.5585    6.3487 LP  0  0  0  0  0  0  0  0  0  0  0  0  # atno 5915 bound_to 677 
   20.9563   11.5478   -0.5510 LP  0  0  0  0  0  0  0  0  0  0  0  0  # atno 5920 bound_to 698 
   20.3671   11.6815   -2.0681 LP  0  0  0  0  0  0  0  0  0  0  0  0  # atno 5921 bound_to 698 
    9.7769    1.9301   -2.4188 LP  0  0  0  0  0  0  0  0  0  0  0  0  # atno 5950 bound_to 2569
    9.6393    3.2619   -3.3536 LP  0  0  0  0  0  0  0  0  0  0  0  0  # atno 5951 bound_to 2569
    8.1252    6.9022    0.6869 LP  0  0  0  0  0  0  0  0  0  0  0  0  # atno 5982 bound_to 2887
    8.0183    5.2938    0.4254 LP  0  0  0  0  0  0  0  0  0  0  0  0  # atno 5983 bound_to 2887
   17.8896    1.9806   -0.2569 LP  0  0  0  0  0  0  0  0  0  0  0  0  # atno 6000 bound_to 3171
   18.8720    2.5548   -1.4282 LP  0  0  0  0  0  0  0  0  0  0  0  0  # atno 6001 bound_to 3171
   14.4598   10.0563    9.4592 LP  0  0  0  0  0  0  0  0  0  0  0  0  # atno 6004 bound_to 5270
   12.9290   10.1773    8.9038 LP  0  0  0  0  0  0  0  0  0  0  0  0  # atno 6005 bound_to 5270
    9.5366   19.3458    7.9238 LP  0  0  0  0  0  0  0  0  0  0  0  0  # atno 6055 bound_to 637 
   11.0464   18.9980    7.4080 LP  0  0  0  0  0  0  0  0  0  0  0  0  # atno 6056 bound_to 637 
    0.6485   10.9900   10.9778 LP  0  0  0  0  0  0  0  0  0  0  0  0  # atno 6063 bound_to 1878
    1.5305   12.3554   10.8218 LP  0  0  0  0  0  0  0  0  0  0  0  0  # atno 6064 bound_to 1878
   -7.1179   15.6446   -0.1592 LP  0  0  0  0  0  0  0  0  0  0  0  0  # atno 6067 bound_to 957 
   -6.4524   15.9690   -1.6147 LP  0  0  0  0  0  0  0  0  0  0  0  0  # atno 6068 bound_to 957 

>  <STRIFE_LigEff_Score>  (76) 
2.572635294117647

$$$$
unknown|pharmsElabsTestMulti|sdf|72|dock10
     RDKit          3D

 17 17  0  0  0  0  0  0  0  0999 V2000
    3.3267    8.4733    2.0590 C   0  0  0  0  0  0  0  0  0  0  0  0
    4.2640    9.4043    2.6721 N   0  0  0  0  0  0  0  0  0  0  0  0
    4.1886    9.7436    4.0610 C   0  0  0  0  0  0  0  0  0  0  0  0
    3.2988    9.2359    4.7959 O   0  0  0  0  0  0  0  0  0  0  0  0
    5.1612   10.7128    4.6473 C   0  0  0  0  0  0  0  0  0  0  0  0
    6.4912   10.1135    4.8342 N   0  0  0  0  0  0  0  0  0  0  0  0
    7.2939    9.8591    3.6687 C   0  0  0  0  0  0  0  0  0  0  0  0
    6.8053   10.0886    2.5339 O   0  0  0  0  0  0  0  0  0  0  0  0
    8.7081    9.3577    3.6635 C   0  0  0  0  0  0  0  0  0  0  0  0
    8.8869    7.9386    3.1172 C   0  0  0  0  0  0  0  0  0  0  0  0
   10.3103    7.3672    3.2822 C   0  0  0  0  0  0  0  0  0  0  0  0
   11.3540    8.4923    3.3648 C   0  0  0  0  0  0  0  0  0  0  0  0
   12.8532    8.1105    3.1630 C   0  0  0  0  0  0  0  0  0  0  0  0
   13.4703    7.1757    4.1896 C   0  0  0  0  0  0  0  0  0  0  0  0
   13.7487    9.1492    2.6650 N   0  0  0  0  0  0  0  0  0  0  0  0
   11.0948    9.3477    4.6219 C   0  0  0  0  0  0  0  0  0  0  0  0
    9.6578    9.9043    4.7170 C   0  0  0  0  0  0  0  0  0  0  0  0
  1  2  1  0
  2  3  1  0
  3  4  2  0
  3  5  1  0
  5  6  1  0
  6  7  1  0
  7  8  2  0
  7  9  1  0
  9 10  1  0
 10 11  1  0
 11 12  1  0
 12 13  1  0
 13 14  1  0
 13 15  1  0
 12 16  1  0
 16 17  1  0
 17  9  1  0
M  CHG  1  15   1
M  END
>  <EmbedRMS>  (77) 
0.2569057114362328

>  <Gold.Version>  (77) 
2020.3.0

>  <Gold.Id.Protein>  (77) 
unknown|1q8t_protein|pdb

>  <Gold.PLP.Fitness>  (77) 
43.1298

>  <Gold.PLP.PLP>  (77) 
-38.1947

>  <Gold.PLP.part.hbond>  (77) 
-2.0000

>  <Gold.PLP.part.metal>  (77) 
0.0000

>  <Gold.PLP.part.buried>  (77) 
-6.3302

>  <Gold.PLP.part.nonpolar>  (77) 
-30.5029

>  <Gold.PLP.part.repulsive>  (77) 
0.1760

>  <Gold.PLP.ligand.clash>  (77) 
0.0000

>  <Gold.PLP.ligand.torsion>  (77) 
0.8282

>  <Gold.PLP.Chemscore.Hbond>  (77) 
1.8640

>  <Gold.PLP.Chemscore.CHOScore>  (77) 
0.0000

>  <Gold.PLP.Chemscore.Metal>  (77) 
0.0000

>  <Gold.Chemscore.Hbonds>  (77) 
donor molecule, donor type, donor heavy atom, donor atom, acceptor molecule, acceptor atom, score
      L1  H    15    36       P1   675  0.86
      P1  H  1888  1903       L1     4  1.00

>  <Gold.PLP.Chemscore.Internal.Correction>  (77) 
0.9996

>  <Gold.PLP.Constraint>  (77) 
-0.0000

>  <Gold.Protein.RotatedTorsions>  (77) 
[  681  677  676  673 ] final  -58.63 input -179.99 | X-H torsion
[  702  698  697  694 ] final   45.09 input  179.99 | X-H torsion
[ 2577 2569 2568 2566 ] final  128.31 input   -0.13 | X-H torsion
[ 2891 2887 2886 2883 ] final  154.36 input  179.98 | X-H torsion
[ 3175 3171 3170 3167 ] final -142.41 input -179.99 | X-H torsion
[ 5278 5270 5269 5267 ] final   34.51 input    0.55 | X-H torsion
[  641  637  636  633 ] final  -97.85 input  179.99 | X-H torsion
[ 1886 1878 1877 1875 ] final  170.83 input    1.60 | X-H torsion
[  965  957  956  954 ] final  139.35 input    0.45 | X-H torsion

>  <Gold.Protein.ActiveResidues>  (77) 
 LYS47   THR48   LEU49   GLY50   THR51   GLY52   SER53   PHE54   GLY55   ARG56  
 VAL57   MET58   LEU59   TYR69   ALA70   MET71   LYS72   ILE73   LEU74   GLU91  
 LEU95   VAL104  LYS105  MET118  VAL119  MET120  GLU121  TYR122  VAL123  PRO124 
 GLY125  GLY126  GLU127  MET128  PHE129  TYR164  ASP166  LEU167  LYS168  PRO169 
 GLU170  ASN171  LEU172  LEU173  ILE174  GLN181  VAL182  THR183  ASP184  PHE185 
 GLY186  PHE187  GLY200  THR201  ASN326  PHE327  TYR330  ARG18   ARG19   ASN20  
 ALA21   ILE22   HIS23  

>  <Gold.Protein.RotatedAtoms>  (77) 
   10.7333   18.9471    7.3104 H   0  0  0  0  0  0  0  0  0  0  0  0  # atno 641  bound_to 637 
   15.6304   13.1572    7.1191 H   0  0  0  0  0  0  0  0  0  0  0  0  # atno 681  bound_to 677 
   19.3688   11.8608   -1.3147 H   0  0  0  0  0  0  0  0  0  0  0  0  # atno 702  bound_to 698 
   -7.1065   16.7778   -0.1211 H   0  0  0  0  0  0  0  0  0  0  0  0  # atno 965  bound_to 957 
    0.6618   11.6774   11.0702 H   0  0  0  0  0  0  0  0  0  0  0  0  # atno 1886 bound_to 1878
    9.8168    1.9501   -2.4501 H   0  0  0  0  0  0  0  0  0  0  0  0  # atno 2577 bound_to 2569
    7.6585    6.9018    1.2020 H   0  0  0  0  0  0  0  0  0  0  0  0  # atno 2891 bound_to 2887
   18.5817    2.5541    0.3747 H   0  0  0  0  0  0  0  0  0  0  0  0  # atno 3175 bound_to 3171
   12.6864   10.0894    9.3195 H   0  0  0  0  0  0  0  0  0  0  0  0  # atno 5278 bound_to 5270
   17.0162   13.9398    7.0621 LP  0  0  0  0  0  0  0  0  0  0  0  0  # atno 5914 bound_to 677 
   16.7066   12.7094    6.0340 LP  0  0  0  0  0  0  0  0  0  0  0  0  # atno 5915 bound_to 677 
   20.5203   11.6191   -0.2411 LP  0  0  0  0  0  0  0  0  0  0  0  0  # atno 5920 bound_to 698 
   20.8481   11.5918   -1.8406 LP  0  0  0  0  0  0  0  0  0  0  0  0  # atno 5921 bound_to 698 
    9.6216    3.2509   -3.3473 LP  0  0  0  0  0  0  0  0  0  0  0  0  # atno 5950 bound_to 2569
   11.1126    2.7601   -2.8972 LP  0  0  0  0  0  0  0  0  0  0  0  0  # atno 5951 bound_to 2569
    8.3432    5.8807    0.1896 LP  0  0  0  0  0  0  0  0  0  0  0  0  # atno 5982 bound_to 2887
    7.2715    5.3604    1.3064 LP  0  0  0  0  0  0  0  0  0  0  0  0  # atno 5983 bound_to 2887
   18.0107    1.9738   -0.9939 LP  0  0  0  0  0  0  0  0  0  0  0  0  # atno 6000 bound_to 3171
   19.3220    2.9469   -0.9793 LP  0  0  0  0  0  0  0  0  0  0  0  0  # atno 6001 bound_to 3171
   13.6997    9.7889   10.5111 LP  0  0  0  0  0  0  0  0  0  0  0  0  # atno 6004 bound_to 5270
   14.2489   10.1626    9.0193 LP  0  0  0  0  0  0  0  0  0  0  0  0  # atno 6005 bound_to 5270
   11.1092   19.6488    8.6893 LP  0  0  0  0  0  0  0  0  0  0  0  0  # atno 6055 bound_to 637 
    9.5513   19.4981    8.2238 LP  0  0  0  0  0  0  0  0  0  0  0  0  # atno 6056 bound_to 637 
    2.1043   12.0667   10.5196 LP  0  0  0  0  0  0  0  0  0  0  0  0  # atno 6063 bound_to 1878
    1.5843   10.5191   10.4849 LP  0  0  0  0  0  0  0  0  0  0  0  0  # atno 6064 bound_to 1878
   -6.8593   15.3292   -0.7339 LP  0  0  0  0  0  0  0  0  0  0  0  0  # atno 6067 bound_to 957 
   -6.4642   16.6725   -1.5741 LP  0  0  0  0  0  0  0  0  0  0  0  0  # atno 6068 bound_to 957 

>  <STRIFE_LigEff_Score>  (77) 
2.5370470588235294

$$$$
unknown|pharmsElabsTestMulti|sdf|73|dock10
     RDKit          3D

 17 18  0  0  0  0  0  0  0  0999 V2000
   13.8300    7.0265    3.5822 C   0  0  0  0  0  0  0  0  0  0  0  0
   13.5545    7.8029    2.2794 C   0  0  0  0  0  0  0  0  0  0  0  0
   13.8200    6.9263    1.1313 N   0  0  0  0  0  0  0  0  0  0  0  0
   12.0952    8.3473    2.2785 C   0  0  0  0  0  0  0  0  0  0  0  0
   11.1235    7.2490    1.7991 C   0  0  0  0  0  0  0  0  0  0  0  0
    9.7203    7.8189    1.6440 C   0  0  0  0  0  0  0  0  0  0  0  0
    9.2214    8.3668    2.9849 C   0  0  0  0  0  0  0  0  0  0  0  0
    7.8306    8.9113    2.8393 C   0  0  0  0  0  0  0  0  0  0  0  0
    7.2517    8.8882    1.7163 O   0  0  0  0  0  0  0  0  0  0  0  0
    7.1749    9.4601    3.9920 N   0  0  0  0  0  0  0  0  0  0  0  0
    5.8161   10.0017    3.9942 C   0  0  0  0  0  0  0  0  0  0  0  0
    5.2358   10.0995    5.4036 C   0  0  0  0  0  0  0  0  0  0  0  0
    3.7600    9.7937    5.2423 C   0  0  0  0  0  0  0  0  0  0  0  0
    3.6661    8.8385    4.0637 C   0  0  0  0  0  0  0  0  0  0  0  0
    4.8535    9.1497    3.1622 C   0  0  0  0  0  0  0  0  0  0  0  0
   10.1786    9.4301    3.5496 C   0  0  0  0  0  0  0  0  0  0  0  0
   11.6135    8.8852    3.6489 C   0  0  0  0  0  0  0  0  0  0  0  0
  1  2  1  0
  2  3  1  0
  2  4  1  0
  4  5  1  0
  5  6  1  0
  6  7  1  0
  7  8  1  0
  8  9  2  0
  8 10  1  0
 10 11  1  0
 11 12  1  0
 12 13  1  0
 13 14  1  0
 14 15  1  0
  7 16  1  0
 16 17  1  0
 17  4  1  0
 15 11  1  0
M  CHG  1   3   1
M  END
>  <EmbedRMS>  (78) 
0.031527461887508344

>  <Gold.Version>  (78) 
2020.3.0

>  <Gold.Id.Protein>  (78) 
unknown|1q8t_protein|pdb

>  <Gold.PLP.Fitness>  (78) 
56.0831

>  <Gold.PLP.PLP>  (78) 
-45.4353

>  <Gold.PLP.part.hbond>  (78) 
-3.0000

>  <Gold.PLP.part.metal>  (78) 
0.0000

>  <Gold.PLP.part.buried>  (78) 
-0.9862

>  <Gold.PLP.part.nonpolar>  (78) 
-41.1762

>  <Gold.PLP.part.repulsive>  (78) 
0.0691

>  <Gold.PLP.ligand.clash>  (78) 
0.0000

>  <Gold.PLP.ligand.torsion>  (78) 
0.6797

>  <Gold.PLP.Chemscore.Hbond>  (78) 
3.9913

>  <Gold.PLP.Chemscore.CHOScore>  (78) 
0.0000

>  <Gold.PLP.Chemscore.Metal>  (78) 
0.0000

>  <Gold.Chemscore.Hbonds>  (78) 
donor molecule, donor type, donor heavy atom, donor atom, acceptor molecule, acceptor atom, score
      L1  H     3    23       P1  2902  2.00
      L1  H     3    24       P1  2691  1.00
      P1  H  2887  2891       L1     9  0.99

>  <Gold.PLP.Chemscore.Internal.Correction>  (78) 
0.0334

>  <Gold.PLP.Constraint>  (78) 
-0.0000

>  <Gold.Protein.RotatedTorsions>  (78) 
[  681  677  676  673 ] final -152.51 input -179.99 | X-H torsion
[  702  698  697  694 ] final   66.31 input  179.99 | X-H torsion
[ 2577 2569 2568 2566 ] final -124.84 input   -0.13 | X-H torsion
[ 2891 2887 2886 2883 ] final  145.93 input  179.98 | X-H torsion
[ 3175 3171 3170 3167 ] final -110.97 input -179.99 | X-H torsion
[ 5278 5270 5269 5267 ] final  -44.98 input    0.55 | X-H torsion
[  641  637  636  633 ] final  -73.10 input  179.99 | X-H torsion
[ 1886 1878 1877 1875 ] final   77.05 input    1.60 | X-H torsion
[  965  957  956  954 ] final   99.27 input    0.45 | X-H torsion

>  <Gold.Protein.ActiveResidues>  (78) 
 LYS47   THR48   LEU49   GLY50   THR51   GLY52   SER53   PHE54   GLY55   ARG56  
 VAL57   MET58   LEU59   TYR69   ALA70   MET71   LYS72   ILE73   LEU74   GLU91  
 LEU95   VAL104  LYS105  MET118  VAL119  MET120  GLU121  TYR122  VAL123  PRO124 
 GLY125  GLY126  GLU127  MET128  PHE129  TYR164  ASP166  LEU167  LYS168  PRO169 
 GLU170  ASN171  LEU172  LEU173  ILE174  GLN181  VAL182  THR183  ASP184  PHE185 
 GLY186  PHE187  GLY200  THR201  ASN326  PHE327  TYR330  ARG18   ARG19   ASN20  
 ALA21   ILE22   HIS23  

>  <Gold.Protein.RotatedAtoms>  (78) 
   10.3515   18.9493    7.2730 H   0  0  0  0  0  0  0  0  0  0  0  0  # atno 641  bound_to 637 
   16.6562   13.9552    7.2747 H   0  0  0  0  0  0  0  0  0  0  0  0  # atno 681  bound_to 677 
   19.4924   11.8447   -1.6202 H   0  0  0  0  0  0  0  0  0  0  0  0  # atno 702  bound_to 698 
   -7.1753   16.1839    0.0177 H   0  0  0  0  0  0  0  0  0  0  0  0  # atno 965  bound_to 957 
    1.7674   12.2576   10.6817 H   0  0  0  0  0  0  0  0  0  0  0  0  # atno 1886 bound_to 1878
   11.0652    2.5764   -2.7935 H   0  0  0  0  0  0  0  0  0  0  0  0  # atno 2577 bound_to 2569
    7.7456    6.9346    1.1089 H   0  0  0  0  0  0  0  0  0  0  0  0  # atno 2891 bound_to 2887
   18.9660    2.8222    0.2480 H   0  0  0  0  0  0  0  0  0  0  0  0  # atno 3175 bound_to 3171
   13.0799    9.8356   10.3652 H   0  0  0  0  0  0  0  0  0  0  0  0  # atno 5278 bound_to 5270
   17.0405   12.9692    6.0847 LP  0  0  0  0  0  0  0  0  0  0  0  0  # atno 5914 bound_to 677 
   15.6025   12.8401    6.8476 LP  0  0  0  0  0  0  0  0  0  0  0  0  # atno 5915 bound_to 677 
   20.1817   11.6782   -0.1938 LP  0  0  0  0  0  0  0  0  0  0  0  0  # atno 5920 bound_to 698 
   21.0568   11.5495   -1.5665 LP  0  0  0  0  0  0  0  0  0  0  0  0  # atno 5921 bound_to 698 
    9.6109    2.0067   -2.4841 LP  0  0  0  0  0  0  0  0  0  0  0  0  # atno 5950 bound_to 2569
    9.8089    3.3449   -3.3988 LP  0  0  0  0  0  0  0  0  0  0  0  0  # atno 5951 bound_to 2569
    8.3036    5.7487    0.2040 LP  0  0  0  0  0  0  0  0  0  0  0  0  # atno 5982 bound_to 2887
    7.2194    5.4579    1.3900 LP  0  0  0  0  0  0  0  0  0  0  0  0  # atno 5983 bound_to 2887
   17.8752    1.9378   -0.5026 LP  0  0  0  0  0  0  0  0  0  0  0  0  # atno 6000 bound_to 3171
   19.0531    2.7009   -1.3373 LP  0  0  0  0  0  0  0  0  0  0  0  0  # atno 6001 bound_to 3171
   14.4731   10.0179    9.6152 LP  0  0  0  0  0  0  0  0  0  0  0  0  # atno 6004 bound_to 5270
   13.0614   10.2006    8.8149 LP  0  0  0  0  0  0  0  0  0  0  0  0  # atno 6005 bound_to 5270
   11.3397   19.4878    8.3992 LP  0  0  0  0  0  0  0  0  0  0  0  0  # atno 6055 bound_to 637 
    9.7228   19.6568    8.5533 LP  0  0  0  0  0  0  0  0  0  0  0  0  # atno 6056 bound_to 637 
    1.9460   10.7089   10.3578 LP  0  0  0  0  0  0  0  0  0  0  0  0  # atno 6063 bound_to 1878
    0.5788   11.2662   11.0556 LP  0  0  0  0  0  0  0  0  0  0  0  0  # atno 6064 bound_to 1878
   -6.5999   15.5008   -1.3004 LP  0  0  0  0  0  0  0  0  0  0  0  0  # atno 6067 bound_to 957 
   -6.6512   17.1264   -1.1537 LP  0  0  0  0  0  0  0  0  0  0  0  0  # atno 6068 bound_to 957 

>  <STRIFE_LigEff_Score>  (78) 
3.299005882352941

$$$$
unknown|pharmsElabsTestMulti|sdf|74|dock1
     RDKit          3D

 14 14  0  0  0  0  0  0  0  0999 V2000
    3.8787    9.8032    5.5978 C   0  0  0  0  0  0  0  0  0  0  0  0
    4.7368   10.1013    4.3744 C   0  0  0  0  0  0  0  0  0  0  0  0
    6.0782    9.5535    4.5461 N   0  0  0  0  0  0  0  0  0  0  0  0
    7.0494    9.5514    3.4927 C   0  0  0  0  0  0  0  0  0  0  0  0
    6.7885   10.1019    2.3862 O   0  0  0  0  0  0  0  0  0  0  0  0
    8.3936    8.9143    3.7221 C   0  0  0  0  0  0  0  0  0  0  0  0
    8.6946    7.8951    2.6248 C   0  0  0  0  0  0  0  0  0  0  0  0
    9.9795    7.1299    2.9087 C   0  0  0  0  0  0  0  0  0  0  0  0
   11.1819    7.9898    3.3821 C   0  0  0  0  0  0  0  0  0  0  0  0
   12.5035    7.9564    2.5890 C   0  0  0  0  0  0  0  0  0  0  0  0
   13.8058    8.2133    3.3470 C   0  0  0  0  0  0  0  0  0  0  0  0
   12.4387    8.7670    1.3651 N   0  0  0  0  0  0  0  0  0  0  0  0
   10.8662    9.3803    4.0138 C   0  0  0  0  0  0  0  0  0  0  0  0
    9.4886    9.9758    3.7289 C   0  0  0  0  0  0  0  0  0  0  0  0
  1  2  1  0
  2  3  1  0
  3  4  1  0
  4  5  2  0
  4  6  1  0
  6  7  1  0
  7  8  1  0
  8  9  1  0
  9 10  1  0
 10 11  1  0
 10 12  1  0
  9 13  1  0
 13 14  1  0
 14  6  1  0
M  CHG  1  12   1
M  END
>  <EmbedRMS>  (79) 
0.22880006867790334

>  <Gold.Version>  (79) 
2020.3.0

>  <Gold.Id.Protein>  (79) 
unknown|1q8t_protein|pdb

>  <Gold.PLP.Fitness>  (79) 
35.3194

>  <Gold.PLP.PLP>  (79) 
-29.7314

>  <Gold.PLP.part.hbond>  (79) 
-1.0000

>  <Gold.PLP.part.metal>  (79) 
0.0000

>  <Gold.PLP.part.buried>  (79) 
-0.9069

>  <Gold.PLP.part.nonpolar>  (79) 
-27.5289

>  <Gold.PLP.part.repulsive>  (79) 
0.0000

>  <Gold.PLP.ligand.clash>  (79) 
0.0000

>  <Gold.PLP.ligand.torsion>  (79) 
0.3847

>  <Gold.PLP.Chemscore.Hbond>  (79) 
1.9840

>  <Gold.PLP.Chemscore.CHOScore>  (79) 
0.0000

>  <Gold.PLP.Chemscore.Metal>  (79) 
0.0000

>  <Gold.Chemscore.Hbonds>  (79) 
donor molecule, donor type, donor heavy atom, donor atom, acceptor molecule, acceptor atom, score
      L1  H    12    31       P1  2902  1.98

>  <Gold.PLP.Chemscore.Internal.Correction>  (79) 
0.4055

>  <Gold.PLP.Constraint>  (79) 
-0.0000

>  <Gold.Protein.RotatedTorsions>  (79) 
[  681  677  676  673 ] final  148.04 input -179.99 | X-H torsion
[  702  698  697  694 ] final  176.87 input  179.99 | X-H torsion
[ 2577 2569 2568 2566 ] final  158.93 input   -0.13 | X-H torsion
[ 2891 2887 2886 2883 ] final   55.38 input  179.98 | X-H torsion
[ 3175 3171 3170 3167 ] final   25.08 input -179.99 | X-H torsion
[ 5278 5270 5269 5267 ] final  129.62 input    0.55 | X-H torsion
[  641  637  636  633 ] final  117.72 input  179.99 | X-H torsion
[ 1886 1878 1877 1875 ] final  167.53 input    1.60 | X-H torsion
[  965  957  956  954 ] final -140.56 input    0.45 | X-H torsion

>  <Gold.Protein.ActiveResidues>  (79) 
 LYS47   THR48   LEU49   GLY50   THR51   GLY52   SER53   PHE54   GLY55   ARG56  
 VAL57   MET58   LEU59   TYR69   ALA70   MET71   LYS72   ILE73   LEU74   GLU91  
 LEU95   VAL104  LYS105  MET118  VAL119  MET120  GLU121  TYR122  VAL123  PRO124 
 GLY125  GLY126  GLU127  MET128  PHE129  TYR164  ASP166  LEU167  LYS168  PRO169 
 GLU170  ASN171  LEU172  LEU173  ILE174  GLN181  VAL182  THR183  ASP184  PHE185 
 GLY186  PHE187  GLY200  THR201  ASN326  PHE327  TYR330  ARG18   ARG19   ASN20  
 ALA21   ILE22   HIS23  

>  <Gold.Protein.RotatedAtoms>  (79) 
   10.7503   19.7217    8.8293 H   0  0  0  0  0  0  0  0  0  0  0  0  # atno 641  bound_to 637 
   17.2255   13.6812    6.6504 H   0  0  0  0  0  0  0  0  0  0  0  0  # atno 681  bound_to 677 
   20.9425   11.5886   -1.6699 H   0  0  0  0  0  0  0  0  0  0  0  0  # atno 702  bound_to 698 
   -6.6439   17.0819   -1.1313 H   0  0  0  0  0  0  0  0  0  0  0  0  # atno 965  bound_to 957 
    0.6795   11.7258   11.0707 H   0  0  0  0  0  0  0  0  0  0  0  0  # atno 1886 bound_to 1878
   10.2837    1.9085   -2.3870 H   0  0  0  0  0  0  0  0  0  0  0  0  # atno 2577 bound_to 2569
    8.3427    6.2151    0.2449 H   0  0  0  0  0  0  0  0  0  0  0  0  # atno 2891 bound_to 2887
   18.8605    2.5303   -1.3839 H   0  0  0  0  0  0  0  0  0  0  0  0  # atno 3175 bound_to 3171
   13.9055   10.2241    8.8251 H   0  0  0  0  0  0  0  0  0  0  0  0  # atno 5278 bound_to 5270
   16.2119   12.5469    6.1794 LP  0  0  0  0  0  0  0  0  0  0  0  0  # atno 5914 bound_to 677 
   15.8320   13.5508    7.4100 LP  0  0  0  0  0  0  0  0  0  0  0  0  # atno 5915 bound_to 677 
   19.3788   11.8459   -1.5089 LP  0  0  0  0  0  0  0  0  0  0  0  0  # atno 5920 bound_to 698 
   20.3342   11.6512   -0.1990 LP  0  0  0  0  0  0  0  0  0  0  0  0  # atno 5921 bound_to 698 
    9.3120    2.9202   -3.1404 LP  0  0  0  0  0  0  0  0  0  0  0  0  # atno 5950 bound_to 2569
   10.9306    3.1345   -3.1705 LP  0  0  0  0  0  0  0  0  0  0  0  0  # atno 5951 bound_to 2569
    7.4442    5.1871    1.0648 LP  0  0  0  0  0  0  0  0  0  0  0  0  # atno 5982 bound_to 2887
    7.4504    6.7767    1.4385 LP  0  0  0  0  0  0  0  0  0  0  0  0  # atno 5983 bound_to 2887
   19.1474    2.9619    0.1217 LP  0  0  0  0  0  0  0  0  0  0  0  0  # atno 6000 bound_to 3171
   17.8919    1.9840   -0.2442 LP  0  0  0  0  0  0  0  0  0  0  0  0  # atno 6001 bound_to 3171
   12.5916    9.9795    9.6914 LP  0  0  0  0  0  0  0  0  0  0  0  0  # atno 6004 bound_to 5270
   14.0743    9.8303   10.3591 LP  0  0  0  0  0  0  0  0  0  0  0  0  # atno 6005 bound_to 5270
    9.5473   19.3168    7.8682 LP  0  0  0  0  0  0  0  0  0  0  0  0  # atno 6055 bound_to 637 
   11.0953   19.0143    7.4453 LP  0  0  0  0  0  0  0  0  0  0  0  0  # atno 6056 bound_to 637 
    2.1349   12.0268   10.4993 LP  0  0  0  0  0  0  0  0  0  0  0  0  # atno 6063 bound_to 1878
    1.5350   10.5080   10.5047 LP  0  0  0  0  0  0  0  0  0  0  0  0  # atno 6064 bound_to 1878
   -7.2099   16.1822    0.0542 LP  0  0  0  0  0  0  0  0  0  0  0  0  # atno 6067 bound_to 957 
   -6.6009   15.4991   -1.2983 LP  0  0  0  0  0  0  0  0  0  0  0  0  # atno 6068 bound_to 957 

>  <STRIFE_LigEff_Score>  (79) 
2.522814285714286

$$$$
unknown|pharmsElabsTestMulti|sdf|75|dock3
     RDKit          3D

 20 21  0  0  0  0  0  0  0  0999 V2000
    5.2501   10.1766    5.6275 C   0  0  0  0  0  0  0  0  0  0  0  0
    4.9402    9.7311    4.2302 C   0  0  0  0  0  0  0  0  0  0  0  0
    3.6985    9.1493    3.9374 C   0  0  0  0  0  0  0  0  0  0  0  0
    3.3975    8.7571    2.6317 C   0  0  0  0  0  0  0  0  0  0  0  0
    4.3237    8.9594    1.6063 C   0  0  0  0  0  0  0  0  0  0  0  0
    5.5657    9.5507    1.8783 C   0  0  0  0  0  0  0  0  0  0  0  0
    6.5332    9.7999    0.7473 C   0  0  0  0  0  0  0  0  0  0  0  0
    7.9092    9.9153    1.2545 N   0  0  0  0  0  0  0  0  0  0  0  0
    8.4606    8.8919    2.1011 C   0  0  0  0  0  0  0  0  0  0  0  0
    7.7307    7.9368    2.4583 O   0  0  0  0  0  0  0  0  0  0  0  0
    9.8657    8.8441    2.6257 C   0  0  0  0  0  0  0  0  0  0  0  0
   10.7961    7.9741    1.7951 C   0  0  0  0  0  0  0  0  0  0  0  0
   12.1481    7.7060    2.4468 C   0  0  0  0  0  0  0  0  0  0  0  0
   12.5906    8.8057    3.4298 C   0  0  0  0  0  0  0  0  0  0  0  0
   14.0308    8.4790    3.9475 C   0  0  0  0  0  0  0  0  0  0  0  0
   14.1054    7.0260    4.4507 C   0  0  0  0  0  0  0  0  0  0  0  0
   15.0592    8.6872    2.9189 N   0  0  0  0  0  0  0  0  0  0  0  0
   11.5484    8.9103    4.5722 C   0  0  0  0  0  0  0  0  0  0  0  0
   10.0762    9.0211    4.1176 C   0  0  0  0  0  0  0  0  0  0  0  0
    5.8688    9.9388    3.1966 C   0  0  0  0  0  0  0  0  0  0  0  0
  1  2  1  0
  2  3  2  0
  3  4  1  0
  4  5  2  0
  5  6  1  0
  6  7  1  0
  7  8  1  0
  8  9  1  0
  9 10  2  0
  9 11  1  0
 11 12  1  0
 12 13  1  0
 13 14  1  0
 14 15  1  0
 15 16  1  0
 15 17  1  0
 14 18  1  0
 18 19  1  0
  6 20  2  0
 20  2  1  0
 19 11  1  0
M  CHG  1  17   1
M  END
>  <EmbedRMS>  (80) 
0.16810927383701896

>  <Gold.Version>  (80) 
2020.3.0

>  <Gold.Id.Protein>  (80) 
unknown|1q8t_protein|pdb

>  <Gold.PLP.Fitness>  (80) 
52.6926

>  <Gold.PLP.PLP>  (80) 
-48.0733

>  <Gold.PLP.part.hbond>  (80) 
-1.8257

>  <Gold.PLP.part.metal>  (80) 
0.0000

>  <Gold.PLP.part.buried>  (80) 
-1.1029

>  <Gold.PLP.part.nonpolar>  (80) 
-45.8666

>  <Gold.PLP.part.repulsive>  (80) 
0.0142

>  <Gold.PLP.ligand.clash>  (80) 
0.0000

>  <Gold.PLP.ligand.torsion>  (80) 
0.8751

>  <Gold.PLP.Chemscore.Hbond>  (80) 
1.8800

>  <Gold.PLP.Chemscore.CHOScore>  (80) 
0.0000

>  <Gold.PLP.Chemscore.Metal>  (80) 
0.0000

>  <Gold.Chemscore.Hbonds>  (80) 
donor molecule, donor type, donor heavy atom, donor atom, acceptor molecule, acceptor atom, score
      L1  H    17    42       P1   675  0.88
      P1  H  2887  2891       L1    10  1.00

>  <Gold.PLP.Chemscore.Internal.Correction>  (80) 
0.7296

>  <Gold.PLP.Constraint>  (80) 
-0.0000

>  <Gold.Protein.RotatedTorsions>  (80) 
[  681  677  676  673 ] final  -37.79 input -179.99 | X-H torsion
[  702  698  697  694 ] final   50.86 input  179.99 | X-H torsion
[ 2577 2569 2568 2566 ] final   67.72 input   -0.13 | X-H torsion
[ 2891 2887 2886 2883 ] final  164.89 input  179.98 | X-H torsion
[ 3175 3171 3170 3167 ] final  -60.11 input -179.99 | X-H torsion
[ 5278 5270 5269 5267 ] final  148.34 input    0.55 | X-H torsion
[  641  637  636  633 ] final   -6.61 input  179.99 | X-H torsion
[ 1886 1878 1877 1875 ] final -160.67 input    1.60 | X-H torsion
[  965  957  956  954 ] final  -69.85 input    0.45 | X-H torsion

>  <Gold.Protein.ActiveResidues>  (80) 
 LYS47   THR48   LEU49   GLY50   THR51   GLY52   SER53   PHE54   GLY55   ARG56  
 VAL57   MET58   LEU59   TYR69   ALA70   MET71   LYS72   ILE73   LEU74   GLU91  
 LEU95   VAL104  LYS105  MET118  VAL119  MET120  GLU121  TYR122  VAL123  PRO124 
 GLY125  GLY126  GLU127  MET128  PHE129  TYR164  ASP166  LEU167  LYS168  PRO169 
 GLU170  ASN171  LEU172  LEU173  ILE174  GLN181  VAL182  THR183  ASP184  PHE185 
 GLY186  PHE187  GLY200  THR201  ASN326  PHE327  TYR330  ARG18   ARG19   ASN20  
 ALA21   ILE22   HIS23  

>  <Gold.Protein.RotatedAtoms>  (80) 
    9.6091   19.2738    7.8272 H   0  0  0  0  0  0  0  0  0  0  0  0  # atno 641  bound_to 637 
   15.6224   12.9247    6.8935 H   0  0  0  0  0  0  0  0  0  0  0  0  # atno 681  bound_to 677 
   19.3912   11.8585   -1.4020 H   0  0  0  0  0  0  0  0  0  0  0  0  # atno 702  bound_to 698 
   -6.4369   16.1839   -1.6048 H   0  0  0  0  0  0  0  0  0  0  0  0  # atno 965  bound_to 957 
    0.6191   11.2421   11.0148 H   0  0  0  0  0  0  0  0  0  0  0  0  # atno 1886 bound_to 1878
    9.2884    2.5332   -2.8937 H   0  0  0  0  0  0  0  0  0  0  0  0  # atno 2577 bound_to 2569
    7.5525    6.8355    1.3089 H   0  0  0  0  0  0  0  0  0  0  0  0  # atno 2891 bound_to 2887
   19.3483    3.0220   -0.3888 H   0  0  0  0  0  0  0  0  0  0  0  0  # atno 3175 bound_to 3171
   14.1468   10.1873    8.9844 H   0  0  0  0  0  0  0  0  0  0  0  0  # atno 5278 bound_to 5270
   16.7501   13.9840    7.2708 LP  0  0  0  0  0  0  0  0  0  0  0  0  # atno 5914 bound_to 677 
   16.9810   12.9098    6.0627 LP  0  0  0  0  0  0  0  0  0  0  0  0  # atno 5915 bound_to 677 
   20.4303   11.6345   -0.2156 LP  0  0  0  0  0  0  0  0  0  0  0  0  # atno 5920 bound_to 698 
   20.9146   11.5788   -1.7741 LP  0  0  0  0  0  0  0  0  0  0  0  0  # atno 5921 bound_to 698 
   10.5660    3.3633   -3.3561 LP  0  0  0  0  0  0  0  0  0  0  0  0  # atno 5950 bound_to 2569
   10.7246    2.0338   -2.4213 LP  0  0  0  0  0  0  0  0  0  0  0  0  # atno 5951 bound_to 2569
    8.3751    6.0508    0.1935 LP  0  0  0  0  0  0  0  0  0  0  0  0  # atno 5982 bound_to 2887
    7.3512    5.2601    1.1900 LP  0  0  0  0  0  0  0  0  0  0  0  0  # atno 5983 bound_to 2887
   18.1189    2.2128    0.2188 LP  0  0  0  0  0  0  0  0  0  0  0  0  # atno 6000 bound_to 3171
   18.4070    2.2157   -1.3885 LP  0  0  0  0  0  0  0  0  0  0  0  0  # atno 6001 bound_to 3171
   12.6136   10.0530    9.3945 LP  0  0  0  0  0  0  0  0  0  0  0  0  # atno 6004 bound_to 5270
   13.7984    9.7955   10.4884 LP  0  0  0  0  0  0  0  0  0  0  0  0  # atno 6005 bound_to 5270
   11.1467   19.0345    7.4904 LP  0  0  0  0  0  0  0  0  0  0  0  0  # atno 6055 bound_to 637 
   10.6978   19.7683    8.8784 LP  0  0  0  0  0  0  0  0  0  0  0  0  # atno 6056 bound_to 637 
    1.7601   12.3109   10.7130 LP  0  0  0  0  0  0  0  0  0  0  0  0  # atno 6063 bound_to 1878
    1.9734   10.7332   10.3498 LP  0  0  0  0  0  0  0  0  0  0  0  0  # atno 6064 bound_to 1878
   -6.9759   17.1264   -0.4402 LP  0  0  0  0  0  0  0  0  0  0  0  0  # atno 6067 bound_to 957 
   -7.0529   15.5008   -0.3052 LP  0  0  0  0  0  0  0  0  0  0  0  0  # atno 6068 bound_to 957 

>  <STRIFE_LigEff_Score>  (80) 
2.63463

$$$$
unknown|pharmsElabsTestMulti|sdf|76|dock8
     RDKit          3D

 18 19  0  0  0  0  0  0  0  0999 V2000
   13.8222    6.9011    3.2905 C   0  0  0  0  0  0  0  0  0  0  0  0
   13.6613    7.8416    2.0795 C   0  0  0  0  0  0  0  0  0  0  0  0
   13.9131    7.0874    0.8457 N   0  0  0  0  0  0  0  0  0  0  0  0
   12.2475    8.4908    2.0921 C   0  0  0  0  0  0  0  0  0  0  0  0
   11.1733    7.3854    2.0796 C   0  0  0  0  0  0  0  0  0  0  0  0
    9.7971    8.0004    1.9309 C   0  0  0  0  0  0  0  0  0  0  0  0
    9.5164    8.9412    3.1050 C   0  0  0  0  0  0  0  0  0  0  0  0
    8.1495    9.5048    2.9516 C   0  0  0  0  0  0  0  0  0  0  0  0
    7.8231   10.0439    1.8534 O   0  0  0  0  0  0  0  0  0  0  0  0
    7.2136    9.3959    4.0400 N   0  0  0  0  0  0  0  0  0  0  0  0
    5.9154   10.0622    4.0432 C   0  0  0  0  0  0  0  0  0  0  0  0
    5.2997   10.1007    5.4462 C   0  0  0  0  0  0  0  0  0  0  0  0
    3.8680    9.5723    5.3104 C   0  0  0  0  0  0  0  0  0  0  0  0
    3.5974    9.3204    3.8269 C   0  0  0  0  0  0  0  0  0  0  0  0
    4.9452    9.2609    3.1889 C   0  0  0  0  0  0  0  0  0  0  0  0
    5.1612    9.2722    1.6999 C   0  0  0  0  0  0  0  0  0  0  0  0
   10.5775   10.0500    3.2078 C   0  0  0  0  0  0  0  0  0  0  0  0
   11.9880    9.4421    3.2884 C   0  0  0  0  0  0  0  0  0  0  0  0
  1  2  1  0
  2  3  1  0
  2  4  1  0
  4  5  1  0
  5  6  1  0
  6  7  1  0
  7  8  1  0
  8  9  2  0
  8 10  1  0
 10 11  1  0
 11 12  1  0
 12 13  1  0
 13 14  1  0
 14 15  1  0
 15 16  1  0
  7 17  1  0
 17 18  1  0
 18  4  1  0
 15 11  1  0
M  CHG  1   3   1
M  END
>  <EmbedRMS>  (81) 
0.19421576803170287

>  <Gold.Version>  (81) 
2020.3.0

>  <Gold.Id.Protein>  (81) 
unknown|1q8t_protein|pdb

>  <Gold.PLP.Fitness>  (81) 
57.2187

>  <Gold.PLP.PLP>  (81) 
-49.0461

>  <Gold.PLP.part.hbond>  (81) 
-2.0000

>  <Gold.PLP.part.metal>  (81) 
0.0000

>  <Gold.PLP.part.buried>  (81) 
-3.7717

>  <Gold.PLP.part.nonpolar>  (81) 
-43.5489

>  <Gold.PLP.part.repulsive>  (81) 
0.0662

>  <Gold.PLP.ligand.clash>  (81) 
0.0000

>  <Gold.PLP.ligand.torsion>  (81) 
0.4298

>  <Gold.PLP.Chemscore.Hbond>  (81) 
3.0000

>  <Gold.PLP.Chemscore.CHOScore>  (81) 
0.0000

>  <Gold.PLP.Chemscore.Metal>  (81) 
0.0000

>  <Gold.Chemscore.Hbonds>  (81) 
donor molecule, donor type, donor heavy atom, donor atom, acceptor molecule, acceptor atom, score
      L1  H     3    24       P1  2691  1.00
      L1  H     3    25       P1  2902  2.00

>  <Gold.PLP.Chemscore.Internal.Correction>  (81) 
0.0322

>  <Gold.PLP.Constraint>  (81) 
-0.0000

>  <Gold.Protein.RotatedTorsions>  (81) 
[  681  677  676  673 ] final   83.49 input -179.99 | X-H torsion
[  702  698  697  694 ] final -149.40 input  179.99 | X-H torsion
[ 2577 2569 2568 2566 ] final  109.31 input   -0.13 | X-H torsion
[ 2891 2887 2886 2883 ] final -159.80 input  179.98 | X-H torsion
[ 3175 3171 3170 3167 ] final -121.00 input -179.99 | X-H torsion
[ 5278 5270 5269 5267 ] final  121.80 input    0.55 | X-H torsion
[  641  637  636  633 ] final  -35.93 input  179.99 | X-H torsion
[ 1886 1878 1877 1875 ] final  -37.47 input    1.60 | X-H torsion
[  965  957  956  954 ] final  -81.43 input    0.45 | X-H torsion

>  <Gold.Protein.ActiveResidues>  (81) 
 LYS47   THR48   LEU49   GLY50   THR51   GLY52   SER53   PHE54   GLY55   ARG56  
 VAL57   MET58   LEU59   TYR69   ALA70   MET71   LYS72   ILE73   LEU74   GLU91  
 LEU95   VAL104  LYS105  MET118  VAL119  MET120  GLU121  TYR122  VAL123  PRO124 
 GLY125  GLY126  GLU127  MET128  PHE129  TYR164  ASP166  LEU167  LYS168  PRO169 
 GLU170  ASN171  LEU172  LEU173  ILE174  GLN181  VAL182  THR183  ASP184  PHE185 
 GLY186  PHE187  GLY200  THR201  ASN326  PHE327  TYR330  ARG18   ARG19   ASN20  
 ALA21   ILE22   HIS23  

>  <Gold.Protein.RotatedAtoms>  (81) 
    9.8397   19.0862    7.4852 H   0  0  0  0  0  0  0  0  0  0  0  0  # atno 641  bound_to 637 
   16.9614   12.9516    6.0907 H   0  0  0  0  0  0  0  0  0  0  0  0  # atno 681  bound_to 677 
   21.1142   11.5488   -1.1807 H   0  0  0  0  0  0  0  0  0  0  0  0  # atno 702  bound_to 698 
   -6.4359   16.3644   -1.6032 H   0  0  0  0  0  0  0  0  0  0  0  0  # atno 965  bound_to 957 
    1.9750   10.8046   10.3424 H   0  0  0  0  0  0  0  0  0  0  0  0  # atno 1886 bound_to 1878
    9.5704    2.0750   -2.5549 H   0  0  0  0  0  0  0  0  0  0  0  0  # atno 2577 bound_to 2569
    7.2638    6.4429    1.5492 H   0  0  0  0  0  0  0  0  0  0  0  0  # atno 2891 bound_to 2887
   18.8485    2.7441    0.3161 H   0  0  0  0  0  0  0  0  0  0  0  0  # atno 3175 bound_to 3171
   13.7913   10.2334    8.7826 H   0  0  0  0  0  0  0  0  0  0  0  0  # atno 5278 bound_to 5270
   15.5898   12.8819    6.8969 LP  0  0  0  0  0  0  0  0  0  0  0  0  # atno 5914 bound_to 677 
   16.7320   13.9837    7.2816 LP  0  0  0  0  0  0  0  0  0  0  0  0  # atno 5915 bound_to 677 
   19.7279   11.7921   -1.9266 LP  0  0  0  0  0  0  0  0  0  0  0  0  # atno 5920 bound_to 698 
   19.8045   11.7470   -0.2960 LP  0  0  0  0  0  0  0  0  0  0  0  0  # atno 5921 bound_to 698 
    9.8991    3.3751   -3.4132 LP  0  0  0  0  0  0  0  0  0  0  0  0  # atno 5950 bound_to 2569
   11.0946    2.5044   -2.7210 LP  0  0  0  0  0  0  0  0  0  0  0  0  # atno 5951 bound_to 2569
    8.3299    6.5911    0.3753 LP  0  0  0  0  0  0  0  0  0  0  0  0  # atno 5982 bound_to 2887
    7.7002    5.1330    0.7553 LP  0  0  0  0  0  0  0  0  0  0  0  0  # atno 5983 bound_to 2887
   17.8948    1.9309   -0.6662 LP  0  0  0  0  0  0  0  0  0  0  0  0  # atno 6000 bound_to 3171
   19.1570    2.7899   -1.2454 LP  0  0  0  0  0  0  0  0  0  0  0  0  # atno 6001 bound_to 3171
   12.6120    9.9493    9.8147 LP  0  0  0  0  0  0  0  0  0  0  0  0  # atno 6004 bound_to 5270
   14.1740    9.8507   10.2806 LP  0  0  0  0  0  0  0  0  0  0  0  0  # atno 6005 bound_to 5270
   11.3804   19.2133    7.8661 LP  0  0  0  0  0  0  0  0  0  0  0  0  # atno 6055 bound_to 637 
   10.2212   19.7871    8.8630 LP  0  0  0  0  0  0  0  0  0  0  0  0  # atno 6056 bound_to 637 
    0.5913   11.1792   11.0353 LP  0  0  0  0  0  0  0  0  0  0  0  0  # atno 6063 bound_to 1878
    1.7149   12.3255   10.7354 LP  0  0  0  0  0  0  0  0  0  0  0  0  # atno 6064 bound_to 1878
   -7.0446   17.0303   -0.2913 LP  0  0  0  0  0  0  0  0  0  0  0  0  # atno 6067 bound_to 957 
   -6.9852   15.4067   -0.4559 LP  0  0  0  0  0  0  0  0  0  0  0  0  # atno 6068 bound_to 957 

>  <STRIFE_LigEff_Score>  (81) 
3.1788166666666666

$$$$
unknown|pharmsElabsTestMulti|sdf|77|dock1
     RDKit          3D

 18 18  0  0  0  0  0  0  0  0999 V2000
    4.3117    9.8011    5.5647 C   0  0  0  0  0  0  0  0  0  0  0  0
    3.5055    9.5010    4.3132 C   0  0  0  0  0  0  0  0  0  0  0  0
    4.3829    8.9616    3.2551 N   0  0  0  0  0  0  0  0  0  0  0  0
    3.6540    8.9601    1.9775 C   0  0  0  0  0  0  0  0  0  0  0  0
    5.6194    9.7646    3.1241 C   0  0  0  0  0  0  0  0  0  0  0  0
    6.3714    9.3775    1.8515 C   0  0  0  0  0  0  0  0  0  0  0  0
    7.6592    8.7755    2.1811 N   0  0  0  0  0  0  0  0  0  0  0  0
    8.5445    9.3424    3.1558 C   0  0  0  0  0  0  0  0  0  0  0  0
    8.2190   10.3936    3.7769 O   0  0  0  0  0  0  0  0  0  0  0  0
    9.8577    8.6681    3.4497 C   0  0  0  0  0  0  0  0  0  0  0  0
   10.1102    7.5400    2.4531 C   0  0  0  0  0  0  0  0  0  0  0  0
   11.3561    6.7454    2.8149 C   0  0  0  0  0  0  0  0  0  0  0  0
   12.6001    7.5898    3.1986 C   0  0  0  0  0  0  0  0  0  0  0  0
   13.9140    7.4157    2.4131 C   0  0  0  0  0  0  0  0  0  0  0  0
   15.2295    7.4876    3.1871 C   0  0  0  0  0  0  0  0  0  0  0  0
   13.9612    8.2632    1.2135 N   0  0  0  0  0  0  0  0  0  0  0  0
   12.3574    9.0497    3.6819 C   0  0  0  0  0  0  0  0  0  0  0  0
   11.0010    9.6732    3.3669 C   0  0  0  0  0  0  0  0  0  0  0  0
  1  2  1  0
  2  3  1  0
  3  4  1  0
  3  5  1  0
  5  6  1  0
  6  7  1  0
  7  8  1  0
  8  9  2  0
  8 10  1  0
 10 11  1  0
 11 12  1  0
 12 13  1  0
 13 14  1  0
 14 15  1  0
 14 16  1  0
 13 17  1  0
 17 18  1  0
 18 10  1  0
M  CHG  1  16   1
M  END
>  <EmbedRMS>  (82) 
0.20452304749766187

>  <Gold.Version>  (82) 
2020.3.0

>  <Gold.Id.Protein>  (82) 
unknown|1q8t_protein|pdb

>  <Gold.PLP.Fitness>  (82) 
48.6955

>  <Gold.PLP.PLP>  (82) 
-41.4100

>  <Gold.PLP.part.hbond>  (82) 
-2.0000

>  <Gold.PLP.part.metal>  (82) 
0.0000

>  <Gold.PLP.part.buried>  (82) 
-0.4307

>  <Gold.PLP.part.nonpolar>  (82) 
-40.0915

>  <Gold.PLP.part.repulsive>  (82) 
0.0369

>  <Gold.PLP.ligand.clash>  (82) 
0.0000

>  <Gold.PLP.ligand.torsion>  (82) 
1.1953

>  <Gold.PLP.Chemscore.Hbond>  (82) 
3.0000

>  <Gold.PLP.Chemscore.CHOScore>  (82) 
0.0000

>  <Gold.PLP.Chemscore.Metal>  (82) 
0.0000

>  <Gold.Chemscore.Hbonds>  (82) 
donor molecule, donor type, donor heavy atom, donor atom, acceptor molecule, acceptor atom, score
      L1  H     7    31       P1  2887  1.00
      L1  H    16    42       P1  2902  2.00

>  <Gold.PLP.Chemscore.Internal.Correction>  (82) 
0.6761

>  <Gold.PLP.Constraint>  (82) 
-0.0000

>  <Gold.Protein.RotatedTorsions>  (82) 
[  681  677  676  673 ] final -178.47 input -179.99 | X-H torsion
[  702  698  697  694 ] final   73.55 input  179.99 | X-H torsion
[ 2577 2569 2568 2566 ] final -163.69 input   -0.13 | X-H torsion
[ 2891 2887 2886 2883 ] final  -48.39 input  179.98 | X-H torsion
[ 3175 3171 3170 3167 ] final   55.76 input -179.99 | X-H torsion
[ 5278 5270 5269 5267 ] final -142.94 input    0.55 | X-H torsion
[  641  637  636  633 ] final   90.79 input  179.99 | X-H torsion
[ 1886 1878 1877 1875 ] final  -56.06 input    1.60 | X-H torsion
[  965  957  956  954 ] final  116.68 input    0.45 | X-H torsion

>  <Gold.Protein.ActiveResidues>  (82) 
 LYS47   THR48   LEU49   GLY50   THR51   GLY52   SER53   PHE54   GLY55   ARG56  
 VAL57   MET58   LEU59   TYR69   ALA70   MET71   LYS72   ILE73   LEU74   GLU91  
 LEU95   VAL104  LYS105  MET118  VAL119  MET120  GLU121  TYR122  VAL123  PRO124 
 GLY125  GLY126  GLU127  MET128  PHE129  TYR164  ASP166  LEU167  LYS168  PRO169 
 GLU170  ASN171  LEU172  LEU173  ILE174  GLN181  VAL182  THR183  ASP184  PHE185 
 GLY186  PHE187  GLY200  THR201  ASN326  PHE327  TYR330  ARG18   ARG19   ASN20  
 ALA21   ILE22   HIS23  

>  <Gold.Protein.RotatedAtoms>  (82) 
   10.3354   19.7563    8.8516 H   0  0  0  0  0  0  0  0  0  0  0  0  # atno 641  bound_to 637 
   16.9789   13.9175    7.0374 H   0  0  0  0  0  0  0  0  0  0  0  0  # atno 681  bound_to 677 
   19.5589   11.8347   -1.7113 H   0  0  0  0  0  0  0  0  0  0  0  0  # atno 702  bound_to 698 
   -7.1668   16.4546    0.0045 H   0  0  0  0  0  0  0  0  0  0  0  0  # atno 965  bound_to 957 
    1.7502   10.6366   10.4128 H   0  0  0  0  0  0  0  0  0  0  0  0  # atno 1886 bound_to 1878
   10.8007    2.1290   -2.5022 H   0  0  0  0  0  0  0  0  0  0  0  0  # atno 2577 bound_to 2569
    7.6032    5.1810    0.8538 H   0  0  0  0  0  0  0  0  0  0  0  0  # atno 2891 bound_to 2887
   18.4787    2.2501   -1.3649 H   0  0  0  0  0  0  0  0  0  0  0  0  # atno 3175 bound_to 3171
   14.3597    9.9526    9.9450 H   0  0  0  0  0  0  0  0  0  0  0  0  # atno 5278 bound_to 5270
   16.7090   12.7107    6.0339 LP  0  0  0  0  0  0  0  0  0  0  0  0  # atno 5914 bound_to 677 
   15.5944   13.1383    7.1482 LP  0  0  0  0  0  0  0  0  0  0  0  0  # atno 5915 bound_to 677 
   20.0651   11.6991   -0.2071 LP  0  0  0  0  0  0  0  0  0  0  0  0  # atno 5920 bound_to 698 
   21.1034   11.5392   -1.4573 LP  0  0  0  0  0  0  0  0  0  0  0  0  # atno 5921 bound_to 698 
    9.2645    2.4239   -2.7992 LP  0  0  0  0  0  0  0  0  0  0  0  0  # atno 5950 bound_to 2569
   10.4337    3.3986   -3.3903 LP  0  0  0  0  0  0  0  0  0  0  0  0  # atno 5951 bound_to 2569
    7.3107    6.5815    1.5535 LP  0  0  0  0  0  0  0  0  0  0  0  0  # atno 5982 bound_to 2887
    8.3622    6.4708    0.3090 LP  0  0  0  0  0  0  0  0  0  0  0  0  # atno 5983 bound_to 2887
   19.3611    3.0626   -0.3176 LP  0  0  0  0  0  0  0  0  0  0  0  0  # atno 6000 bound_to 3171
   18.0799    2.1781    0.1751 LP  0  0  0  0  0  0  0  0  0  0  0  0  # atno 6001 bound_to 3171
   13.4026   10.2318    8.7029 LP  0  0  0  0  0  0  0  0  0  0  0  0  # atno 6004 bound_to 5270
   12.7854    9.8637   10.1693 LP  0  0  0  0  0  0  0  0  0  0  0  0  # atno 6005 bound_to 5270
    9.7334   19.1277    7.5183 LP  0  0  0  0  0  0  0  0  0  0  0  0  # atno 6055 bound_to 637 
   11.3461   19.1670    7.7717 LP  0  0  0  0  0  0  0  0  0  0  0  0  # atno 6056 bound_to 637 
    0.5811   11.4785   11.0908 LP  0  0  0  0  0  0  0  0  0  0  0  0  # atno 6063 bound_to 1878
    1.9618   12.2030   10.6057 LP  0  0  0  0  0  0  0  0  0  0  0  0  # atno 6064 bound_to 1878
   -6.7065   15.3724   -1.0688 LP  0  0  0  0  0  0  0  0  0  0  0  0  # atno 6067 bound_to 957 
   -6.5535   16.9697   -1.3715 LP  0  0  0  0  0  0  0  0  0  0  0  0  # atno 6068 bound_to 957 

>  <STRIFE_LigEff_Score>  (82) 
2.705305555555556

$$$$
unknown|pharmsElabsTestMulti|sdf|78|dock5
     RDKit          3D

 17 17  0  0  0  0  0  0  0  0999 V2000
   13.7201    7.7871    3.8134 C   0  0  0  0  0  0  0  0  0  0  0  0
   12.9929    8.2314    2.5355 C   0  0  0  0  0  0  0  0  0  0  0  0
   13.4088    7.3968    1.4026 N   0  0  0  0  0  0  0  0  0  0  0  0
   11.4327    8.3639    2.6361 C   0  0  0  0  0  0  0  0  0  0  0  0
   10.6319    7.7455    1.4747 C   0  0  0  0  0  0  0  0  0  0  0  0
    9.2865    8.3930    1.2094 C   0  0  0  0  0  0  0  0  0  0  0  0
    8.5576    8.7650    2.4939 C   0  0  0  0  0  0  0  0  0  0  0  0
    7.1891    9.2881    2.1547 C   0  0  0  0  0  0  0  0  0  0  0  0
    6.7875    9.2953    0.9554 O   0  0  0  0  0  0  0  0  0  0  0  0
    6.3581    9.8021    3.1961 N   0  0  0  0  0  0  0  0  0  0  0  0
    5.0156   10.2943    2.9349 C   0  0  0  0  0  0  0  0  0  0  0  0
    3.8783    9.3550    3.4469 C   0  0  0  0  0  0  0  0  0  0  0  0
    3.3915    8.4719    2.3181 C   0  0  0  0  0  0  0  0  0  0  0  0
    3.9263    9.2181    4.9549 C   0  0  0  0  0  0  0  0  0  0  0  0
    2.6970    9.7612    3.5577 O   0  0  0  0  0  0  0  0  0  0  0  0
    9.3368    9.8253    3.2786 C   0  0  0  0  0  0  0  0  0  0  0  0
   10.8435    9.5466    3.4330 C   0  0  0  0  0  0  0  0  0  0  0  0
  1  2  1  0
  2  3  1  0
  2  4  1  0
  4  5  1  0
  5  6  1  0
  6  7  1  0
  7  8  1  0
  8  9  2  0
  8 10  1  0
 10 11  1  0
 11 12  1  0
 12 13  1  0
 12 14  1  0
 12 15  1  0
  7 16  1  0
 16 17  1  0
 17  4  1  0
M  CHG  1   3   1
M  END
>  <EmbedRMS>  (83) 
0.6861464654853324

>  <Gold.Version>  (83) 
2020.3.0

>  <Gold.Id.Protein>  (83) 
unknown|1q8t_protein|pdb

>  <Gold.PLP.Fitness>  (83) 
53.5079

>  <Gold.PLP.PLP>  (83) 
-42.7334

>  <Gold.PLP.part.hbond>  (83) 
-4.4200

>  <Gold.PLP.part.metal>  (83) 
0.0000

>  <Gold.PLP.part.buried>  (83) 
-2.9379

>  <Gold.PLP.part.nonpolar>  (83) 
-35.8837

>  <Gold.PLP.part.repulsive>  (83) 
0.0193

>  <Gold.PLP.ligand.clash>  (83) 
0.0000

>  <Gold.PLP.ligand.torsion>  (83) 
1.2641

>  <Gold.PLP.Chemscore.Hbond>  (83) 
4.1213

>  <Gold.PLP.Chemscore.CHOScore>  (83) 
0.0000

>  <Gold.PLP.Chemscore.Metal>  (83) 
0.0000

>  <Gold.Chemscore.Hbonds>  (83) 
donor molecule, donor type, donor heavy atom, donor atom, acceptor molecule, acceptor atom, score
      L1  H     3    22       P1  2902  2.00
      L1  H     3    23       P1  2691  1.00
      L1  H    15    40       P1  1855  0.24
      P1  H  1888  1903       L1    15  0.88

>  <Gold.PLP.Chemscore.Internal.Correction>  (83) 
0.9387

>  <Gold.PLP.Constraint>  (83) 
-0.0000

>  <Gold.Protein.RotatedTorsions>  (83) 
[  681  677  676  673 ] final -135.31 input -179.99 | X-H torsion
[  702  698  697  694 ] final -129.45 input  179.99 | X-H torsion
[ 2577 2569 2568 2566 ] final  146.79 input   -0.13 | X-H torsion
[ 2891 2887 2886 2883 ] final  144.89 input  179.98 | X-H torsion
[ 3175 3171 3170 3167 ] final -153.09 input -179.99 | X-H torsion
[ 5278 5270 5269 5267 ] final  -50.37 input    0.55 | X-H torsion
[  641  637  636  633 ] final   52.93 input  179.99 | X-H torsion
[ 1886 1878 1877 1875 ] final  -24.45 input    1.60 | X-H torsion
[  965  957  956  954 ] final  -57.38 input    0.45 | X-H torsion

>  <Gold.Protein.ActiveResidues>  (83) 
 LYS47   THR48   LEU49   GLY50   THR51   GLY52   SER53   PHE54   GLY55   ARG56  
 VAL57   MET58   LEU59   TYR69   ALA70   MET71   LYS72   ILE73   LEU74   GLU91  
 LEU95   VAL104  LYS105  MET118  VAL119  MET120  GLU121  TYR122  VAL123  PRO124 
 GLY125  GLY126  GLU127  MET128  PHE129  TYR164  ASP166  LEU167  LYS168  PRO169 
 GLU170  ASN171  LEU172  LEU173  ILE174  GLN181  VAL182  THR183  ASP184  PHE185 
 GLY186  PHE187  GLY200  THR201  ASN326  PHE327  TYR330  ARG18   ARG19   ASN20  
 ALA21   ILE22   HIS23  

>  <Gold.Protein.RotatedAtoms>  (83) 
    9.8208   19.6571    8.6010 H   0  0  0  0  0  0  0  0  0  0  0  0  # atno 641  bound_to 637 
   16.4129   13.9038    7.3745 H   0  0  0  0  0  0  0  0  0  0  0  0  # atno 681  bound_to 677 
   21.0757   11.5497   -0.8727 H   0  0  0  0  0  0  0  0  0  0  0  0  # atno 702  bound_to 698 
   -6.4547   15.9934   -1.5697 H   0  0  0  0  0  0  0  0  0  0  0  0  # atno 965  bound_to 957 
    2.0999   10.9622   10.3142 H   0  0  0  0  0  0  0  0  0  0  0  0  # atno 1886 bound_to 1878
   10.0946    1.9001   -2.3950 H   0  0  0  0  0  0  0  0  0  0  0  0  # atno 2577 bound_to 2569
    7.7564    6.9374    1.0970 H   0  0  0  0  0  0  0  0  0  0  0  0  # atno 2891 bound_to 2887
   18.4495    2.4540    0.3578 H   0  0  0  0  0  0  0  0  0  0  0  0  # atno 3175 bound_to 3171
   13.1547    9.8270   10.4031 H   0  0  0  0  0  0  0  0  0  0  0  0  # atno 5278 bound_to 5270
   17.1967   13.1770    6.1940 LP  0  0  0  0  0  0  0  0  0  0  0  0  # atno 5914 bound_to 677 
   15.7024   12.6864    6.6333 LP  0  0  0  0  0  0  0  0  0  0  0  0  # atno 5915 bound_to 677 
   20.0244   11.7420   -2.0539 LP  0  0  0  0  0  0  0  0  0  0  0  0  # atno 5920 bound_to 698 
   19.5485   11.7962   -0.4927 LP  0  0  0  0  0  0  0  0  0  0  0  0  # atno 5921 bound_to 698 
    9.4094    3.0665   -3.2348 LP  0  0  0  0  0  0  0  0  0  0  0  0  # atno 5950 bound_to 2569
   11.0323    2.9971   -3.0677 LP  0  0  0  0  0  0  0  0  0  0  0  0  # atno 5951 bound_to 2569
    8.2978    5.7328    0.2068 LP  0  0  0  0  0  0  0  0  0  0  0  0  # atno 5982 bound_to 2887
    7.2138    5.4709    1.3997 LP  0  0  0  0  0  0  0  0  0  0  0  0  # atno 5983 bound_to 2887
   18.1021    2.0230   -1.1353 LP  0  0  0  0  0  0  0  0  0  0  0  0  # atno 6000 bound_to 3171
   19.3697    3.0031   -0.8202 LP  0  0  0  0  0  0  0  0  0  0  0  0  # atno 6001 bound_to 3171
   14.4692   10.0391    9.5291 LP  0  0  0  0  0  0  0  0  0  0  0  0  # atno 6004 bound_to 5270
   12.9866   10.1884    8.8611 LP  0  0  0  0  0  0  0  0  0  0  0  0  # atno 6005 bound_to 5270
   10.2487   18.9554    7.2373 LP  0  0  0  0  0  0  0  0  0  0  0  0  # atno 6055 bound_to 637 
   11.3728   19.4437    8.3166 LP  0  0  0  0  0  0  0  0  0  0  0  0  # atno 6056 bound_to 637 
    0.6515   10.9830   10.9753 LP  0  0  0  0  0  0  0  0  0  0  0  0  # atno 6063 bound_to 1878
    1.5232   12.3557   10.8251 LP  0  0  0  0  0  0  0  0  0  0  0  0  # atno 6064 bound_to 1878
   -6.8948   17.1908   -0.6170 LP  0  0  0  0  0  0  0  0  0  0  0  0  # atno 6067 bound_to 957 
   -7.1152   15.6370   -0.1654 LP  0  0  0  0  0  0  0  0  0  0  0  0  # atno 6068 bound_to 957 

>  <STRIFE_LigEff_Score>  (83) 
3.1475235294117647

$$$$
unknown|pharmsElabsTestMulti|sdf|79|dock9
     RDKit          3D

 18 18  0  0  0  0  0  0  0  0999 V2000
    4.6968    9.2096    1.8004 C   0  0  0  0  0  0  0  0  0  0  0  0
    3.4202    9.3686    2.6169 C   0  0  0  0  0  0  0  0  0  0  0  0
    3.5932    8.7386    3.9928 C   0  0  0  0  0  0  0  0  0  0  0  0
    4.0204    9.7508    4.9621 N   0  0  0  0  0  0  0  0  0  0  0  0
    5.4291    9.5410    5.3182 C   0  0  0  0  0  0  0  0  0  0  0  0
    6.3467   10.3319    4.3871 C   0  0  0  0  0  0  0  0  0  0  0  0
    7.6692    9.7183    4.3462 N   0  0  0  0  0  0  0  0  0  0  0  0
    8.1262    8.9300    3.2433 C   0  0  0  0  0  0  0  0  0  0  0  0
    7.3566    8.6920    2.2688 O   0  0  0  0  0  0  0  0  0  0  0  0
    9.5368    8.3951    3.2451 C   0  0  0  0  0  0  0  0  0  0  0  0
    9.9145    7.9593    1.8343 C   0  0  0  0  0  0  0  0  0  0  0  0
   11.2795    7.2987    1.7743 C   0  0  0  0  0  0  0  0  0  0  0  0
   12.3555    7.9461    2.6663 C   0  0  0  0  0  0  0  0  0  0  0  0
   13.8380    7.7809    2.1779 C   0  0  0  0  0  0  0  0  0  0  0  0
   14.8843    7.4974    3.2663 C   0  0  0  0  0  0  0  0  0  0  0  0
   13.9610    6.8008    1.0929 N   0  0  0  0  0  0  0  0  0  0  0  0
   11.9969    9.1682    3.5379 C   0  0  0  0  0  0  0  0  0  0  0  0
   10.5016    9.4697    3.7589 C   0  0  0  0  0  0  0  0  0  0  0  0
  1  2  1  0
  2  3  1  0
  3  4  1  0
  4  5  1  0
  5  6  1  0
  6  7  1  0
  7  8  1  0
  8  9  2  0
  8 10  1  0
 10 11  1  0
 11 12  1  0
 12 13  1  0
 13 14  1  0
 14 15  1  0
 14 16  1  0
 13 17  1  0
 17 18  1  0
 18 10  1  0
M  CHG  1  16   1
M  END
>  <EmbedRMS>  (84) 
0.16499967102600221

>  <Gold.Version>  (84) 
2020.3.0

>  <Gold.Id.Protein>  (84) 
unknown|1q8t_protein|pdb

>  <Gold.PLP.Fitness>  (84) 
52.9251

>  <Gold.PLP.PLP>  (84) 
-44.3166

>  <Gold.PLP.part.hbond>  (84) 
-2.9096

>  <Gold.PLP.part.metal>  (84) 
0.0000

>  <Gold.PLP.part.buried>  (84) 
-4.0276

>  <Gold.PLP.part.nonpolar>  (84) 
-37.4654

>  <Gold.PLP.part.repulsive>  (84) 
0.0843

>  <Gold.PLP.ligand.clash>  (84) 
0.0036

>  <Gold.PLP.ligand.torsion>  (84) 
2.1448

>  <Gold.PLP.Chemscore.Hbond>  (84) 
4.0000

>  <Gold.PLP.Chemscore.CHOScore>  (84) 
0.0000

>  <Gold.PLP.Chemscore.Metal>  (84) 
0.0000

>  <Gold.Chemscore.Hbonds>  (84) 
donor molecule, donor type, donor heavy atom, donor atom, acceptor molecule, acceptor atom, score
      L1  H    16    43       P1  2691  1.00
      L1  H    16    44       P1  2902  2.00
      P1  H  2887  2891       L1     9  1.00

>  <Gold.PLP.Chemscore.Internal.Correction>  (84) 
0.9017

>  <Gold.PLP.Constraint>  (84) 
-0.0000

>  <Gold.Protein.RotatedTorsions>  (84) 
[  681  677  676  673 ] final  173.50 input -179.99 | X-H torsion
[  702  698  697  694 ] final  122.43 input  179.99 | X-H torsion
[ 2577 2569 2568 2566 ] final -139.32 input   -0.13 | X-H torsion
[ 2891 2887 2886 2883 ] final  157.90 input  179.98 | X-H torsion
[ 3175 3171 3170 3167 ] final  -21.86 input -179.99 | X-H torsion
[ 5278 5270 5269 5267 ] final   64.97 input    0.55 | X-H torsion
[  641  637  636  633 ] final  -29.93 input  179.99 | X-H torsion
[ 1886 1878 1877 1875 ] final -156.78 input    1.60 | X-H torsion
[  965  957  956  954 ] final -102.77 input    0.45 | X-H torsion

>  <Gold.Protein.ActiveResidues>  (84) 
 LYS47   THR48   LEU49   GLY50   THR51   GLY52   SER53   PHE54   GLY55   ARG56  
 VAL57   MET58   LEU59   TYR69   ALA70   MET71   LYS72   ILE73   LEU74   GLU91  
 LEU95   VAL104  LYS105  MET118  VAL119  MET120  GLU121  TYR122  VAL123  PRO124 
 GLY125  GLY126  GLU127  MET128  PHE129  TYR164  ASP166  LEU167  LYS168  PRO169 
 GLU170  ASN171  LEU172  LEU173  ILE174  GLN181  VAL182  THR183  ASP184  PHE185 
 GLY186  PHE187  GLY200  THR201  ASN326  PHE327  TYR330  ARG18   ARG19   ASN20  
 ALA21   ILE22   HIS23  

>  <Gold.Protein.RotatedAtoms>  (84) 
    9.7767   19.1206    7.5455 H   0  0  0  0  0  0  0  0  0  0  0  0  # atno 641  bound_to 637 
   17.0590   13.8784    6.9490 H   0  0  0  0  0  0  0  0  0  0  0  0  # atno 681  bound_to 677 
   20.2188   11.7239   -2.0309 H   0  0  0  0  0  0  0  0  0  0  0  0  # atno 702  bound_to 698 
   -6.4731   16.6817   -1.5148 H   0  0  0  0  0  0  0  0  0  0  0  0  # atno 965  bound_to 957 
    0.6289   11.1839   11.0005 H   0  0  0  0  0  0  0  0  0  0  0  0  # atno 1886 bound_to 1878
   11.0099    2.3948   -2.6715 H   0  0  0  0  0  0  0  0  0  0  0  0  # atno 2577 bound_to 2569
    7.6223    6.8826    1.2392 H   0  0  0  0  0  0  0  0  0  0  0  0  # atno 2891 bound_to 2887
   19.2949    2.9074   -0.9620 H   0  0  0  0  0  0  0  0  0  0  0  0  # atno 3175 bound_to 3171
   12.9556   10.1845    8.9452 H   0  0  0  0  0  0  0  0  0  0  0  0  # atno 5278 bound_to 5270
   16.5918   12.6514    6.0477 LP  0  0  0  0  0  0  0  0  0  0  0  0  # atno 5914 bound_to 677 
   15.6274   13.2387    7.2274 LP  0  0  0  0  0  0  0  0  0  0  0  0  # atno 5915 bound_to 677 
   19.4333   11.8196   -0.6485 LP  0  0  0  0  0  0  0  0  0  0  0  0  # atno 5920 bound_to 698 
   21.0410   11.5352   -0.6797 LP  0  0  0  0  0  0  0  0  0  0  0  0  # atno 5921 bound_to 698 
    9.4409    2.1369   -2.5870 LP  0  0  0  0  0  0  0  0  0  0  0  0  # atno 5950 bound_to 2569
   10.0371    3.4058   -3.4244 LP  0  0  0  0  0  0  0  0  0  0  0  0  # atno 5951 bound_to 2569
    8.3562    5.9375    0.1882 LP  0  0  0  0  0  0  0  0  0  0  0  0  # atno 5982 bound_to 2887
    7.2965    5.3239    1.2686 LP  0  0  0  0  0  0  0  0  0  0  0  0  # atno 5983 bound_to 2887
   18.5755    2.5772    0.4197 LP  0  0  0  0  0  0  0  0  0  0  0  0  # atno 6000 bound_to 3171
   18.0066    1.9718   -0.9862 LP  0  0  0  0  0  0  0  0  0  0  0  0  # atno 6001 bound_to 3171
   13.2062    9.7942   10.4689 LP  0  0  0  0  0  0  0  0  0  0  0  0  # atno 6004 bound_to 5270
   14.4591   10.0572    9.4553 LP  0  0  0  0  0  0  0  0  0  0  0  0  # atno 6005 bound_to 5270
   11.3504   19.1719    7.7817 LP  0  0  0  0  0  0  0  0  0  0  0  0  # atno 6055 bound_to 637 
   10.3175   19.7923    8.8838 LP  0  0  0  0  0  0  0  0  0  0  0  0  # atno 6056 bound_to 637 
    1.7050   12.3283   10.7403 LP  0  0  0  0  0  0  0  0  0  0  0  0  # atno 6063 bound_to 1878
    2.0183   10.7771   10.3376 LP  0  0  0  0  0  0  0  0  0  0  0  0  # atno 6064 bound_to 1878
   -7.1456   16.7758   -0.0747 LP  0  0  0  0  0  0  0  0  0  0  0  0  # atno 6067 bound_to 957 
   -6.8450   15.3270   -0.7655 LP  0  0  0  0  0  0  0  0  0  0  0  0  # atno 6068 bound_to 957 

>  <STRIFE_LigEff_Score>  (84) 
2.9402833333333334

$$$$
unknown|pharmsElabsTestMulti|sdf|80|dock9
     RDKit          3D

 15 15  0  0  0  0  0  0  0  0999 V2000
    3.7137   10.0047    5.2423 C   0  0  0  0  0  0  0  0  0  0  0  0
    5.2257    9.8271    5.3647 C   0  0  0  0  0  0  0  0  0  0  0  0
    5.8976    9.7770    3.9910 C   0  0  0  0  0  0  0  0  0  0  0  0
    7.3039    9.4139    4.1197 N   0  0  0  0  0  0  0  0  0  0  0  0
    8.1504    9.2504    2.9817 C   0  0  0  0  0  0  0  0  0  0  0  0
    7.7067    9.4668    1.8186 O   0  0  0  0  0  0  0  0  0  0  0  0
    9.5828    8.8486    3.1972 C   0  0  0  0  0  0  0  0  0  0  0  0
    9.8897    7.5122    2.4965 C   0  0  0  0  0  0  0  0  0  0  0  0
   11.3718    7.1363    2.6644 C   0  0  0  0  0  0  0  0  0  0  0  0
   12.2214    8.2710    2.0639 C   0  0  0  0  0  0  0  0  0  0  0  0
   13.7011    7.9713    1.6854 C   0  0  0  0  0  0  0  0  0  0  0  0
   14.5903    9.1703    1.4034 C   0  0  0  0  0  0  0  0  0  0  0  0
   13.9534    6.8018    0.8531 N   0  0  0  0  0  0  0  0  0  0  0  0
   12.0019    9.5631    2.8701 C   0  0  0  0  0  0  0  0  0  0  0  0
   10.5295    9.9852    2.7665 C   0  0  0  0  0  0  0  0  0  0  0  0
  1  2  1  0
  2  3  1  0
  3  4  1  0
  4  5  1  0
  5  6  2  0
  5  7  1  0
  7  8  1  0
  8  9  1  0
  9 10  1  0
 10 11  1  0
 11 12  1  0
 11 13  1  0
 10 14  1  0
 14 15  1  0
 15  7  1  0
M  CHG  1  13   1
M  END
>  <EmbedRMS>  (85) 
0.2000484947854372

>  <Gold.Version>  (85) 
2020.3.0

>  <Gold.Id.Protein>  (85) 
unknown|1q8t_protein|pdb

>  <Gold.PLP.Fitness>  (85) 
42.8876

>  <Gold.PLP.PLP>  (85) 
-34.0506

>  <Gold.PLP.part.hbond>  (85) 
-1.8567

>  <Gold.PLP.part.metal>  (85) 
0.0000

>  <Gold.PLP.part.buried>  (85) 
-2.1311

>  <Gold.PLP.part.nonpolar>  (85) 
-30.1292

>  <Gold.PLP.part.repulsive>  (85) 
0.0911

>  <Gold.PLP.ligand.clash>  (85) 
0.0000

>  <Gold.PLP.ligand.torsion>  (85) 
0.2696

>  <Gold.PLP.Chemscore.Hbond>  (85) 
2.9920

>  <Gold.PLP.Chemscore.CHOScore>  (85) 
0.0000

>  <Gold.PLP.Chemscore.Metal>  (85) 
0.0000

>  <Gold.Chemscore.Hbonds>  (85) 
donor molecule, donor type, donor heavy atom, donor atom, acceptor molecule, acceptor atom, score
      L1  H    13    35       P1  2691  0.99
      L1  H    13    36       P1  2902  2.00

>  <Gold.PLP.Chemscore.Internal.Correction>  (85) 
0.4001

>  <Gold.PLP.Constraint>  (85) 
-0.0000

>  <Gold.Protein.RotatedTorsions>  (85) 
[  681  677  676  673 ] final -151.99 input -179.99 | X-H torsion
[  702  698  697  694 ] final  -21.96 input  179.99 | X-H torsion
[ 2577 2569 2568 2566 ] final   84.58 input   -0.13 | X-H torsion
[ 2891 2887 2886 2883 ] final -171.91 input  179.98 | X-H torsion
[ 3175 3171 3170 3167 ] final  106.14 input -179.99 | X-H torsion
[ 5278 5270 5269 5267 ] final  -21.51 input    0.55 | X-H torsion
[  641  637  636  633 ] final -171.65 input  179.99 | X-H torsion
[ 1886 1878 1877 1875 ] final   96.71 input    1.60 | X-H torsion
[  965  957  956  954 ] final  -18.30 input    0.45 | X-H torsion

>  <Gold.Protein.ActiveResidues>  (85) 
 LYS47   THR48   LEU49   GLY50   THR51   GLY52   SER53   PHE54   GLY55   ARG56  
 VAL57   MET58   LEU59   TYR69   ALA70   MET71   LYS72   ILE73   LEU74   GLU91  
 LEU95   VAL104  LYS105  MET118  VAL119  MET120  GLU121  TYR122  VAL123  PRO124 
 GLY125  GLY126  GLU127  MET128  PHE129  TYR164  ASP166  LEU167  LYS168  PRO169 
 GLU170  ASN171  LEU172  LEU173  ILE174  GLN181  VAL182  THR183  ASP184  PHE185 
 GLY186  PHE187  GLY200  THR201  ASN326  PHE327  TYR330  ARG18   ARG19   ASN20  
 ALA21   ILE22   HIS23  

>  <Gold.Protein.RotatedAtoms>  (85) 
   11.3628   19.3154    8.1005 H   0  0  0  0  0  0  0  0  0  0  0  0  # atno 641  bound_to 637 
   16.6490   13.9545    7.2785 H   0  0  0  0  0  0  0  0  0  0  0  0  # atno 681  bound_to 677 
   19.7302   11.7790   -0.3967 H   0  0  0  0  0  0  0  0  0  0  0  0  # atno 702  bound_to 698 
   -6.6093   15.5180   -1.2399 H   0  0  0  0  0  0  0  0  0  0  0  0  # atno 965  bound_to 957 
    1.4955   12.3120   10.8109 H   0  0  0  0  0  0  0  0  0  0  0  0  # atno 1886 bound_to 1878
    9.3519    2.3261   -2.7452 H   0  0  0  0  0  0  0  0  0  0  0  0  # atno 2577 bound_to 2569
    7.3470    6.6023    1.4910 H   0  0  0  0  0  0  0  0  0  0  0  0  # atno 2891 bound_to 2887
   17.9972    1.9610   -0.8491 H   0  0  0  0  0  0  0  0  0  0  0  0  # atno 3175 bound_to 3171
   12.8087    9.8912   10.1283 H   0  0  0  0  0  0  0  0  0  0  0  0  # atno 5278 bound_to 5270
   17.0461   12.9752    6.0872 LP  0  0  0  0  0  0  0  0  0  0  0  0  # atno 5914 bound_to 677 
   15.6045   12.8348    6.8412 LP  0  0  0  0  0  0  0  0  0  0  0  0  # atno 5915 bound_to 677 
   21.1550   11.5224   -1.0611 LP  0  0  0  0  0  0  0  0  0  0  0  0  # atno 5920 bound_to 698 
   19.8333   11.7745   -1.9863 LP  0  0  0  0  0  0  0  0  0  0  0  0  # atno 5921 bound_to 698 
   10.3007    3.4167   -3.4126 LP  0  0  0  0  0  0  0  0  0  0  0  0  # atno 5950 bound_to 2569
   10.9231    2.1984   -2.5211 LP  0  0  0  0  0  0  0  0  0  0  0  0  # atno 5951 bound_to 2569
    8.3716    6.4185    0.2856 LP  0  0  0  0  0  0  0  0  0  0  0  0  # atno 5982 bound_to 2887
    7.5708    5.1379    0.9063 LP  0  0  0  0  0  0  0  0  0  0  0  0  # atno 5983 bound_to 2887
   19.2664    2.8905   -1.0958 LP  0  0  0  0  0  0  0  0  0  0  0  0  # atno 6000 bound_to 3171
   18.6814    2.6545    0.4105 LP  0  0  0  0  0  0  0  0  0  0  0  0  # atno 6001 bound_to 3171
   14.3941    9.9273    9.9792 LP  0  0  0  0  0  0  0  0  0  0  0  0  # atno 6004 bound_to 5270
   13.4258   10.2327    8.7002 LP  0  0  0  0  0  0  0  0  0  0  0  0  # atno 6005 bound_to 5270
    9.9843   19.7514    8.7673 LP  0  0  0  0  0  0  0  0  0  0  0  0  # atno 6055 bound_to 637 
   10.0132   19.0076    7.3138 LP  0  0  0  0  0  0  0  0  0  0  0  0  # atno 6056 bound_to 637 
    2.1521   10.9513   10.3083 LP  0  0  0  0  0  0  0  0  0  0  0  0  # atno 6063 bound_to 1878
    0.6589   10.9665   10.9692 LP  0  0  0  0  0  0  0  0  0  0  0  0  # atno 6064 bound_to 1878
   -6.6364   17.1090   -1.1864 LP  0  0  0  0  0  0  0  0  0  0  0  0  # atno 6067 bound_to 957 
   -7.2107   16.2195    0.0567 LP  0  0  0  0  0  0  0  0  0  0  0  0  # atno 6068 bound_to 957 

>  <STRIFE_LigEff_Score>  (85) 
2.859173333333333

$$$$
unknown|pharmsElabsTestMulti|sdf|81|dock6
     RDKit          3D

 18 18  0  0  0  0  0  0  0  0999 V2000
    3.6078    8.5465    2.0025 C   0  0  0  0  0  0  0  0  0  0  0  0
    3.6798    9.6808    3.0172 C   0  0  0  0  0  0  0  0  0  0  0  0
    3.5755    9.1286    4.4328 C   0  0  0  0  0  0  0  0  0  0  0  0
    4.1931   10.0562    5.3840 N   0  0  0  0  0  0  0  0  0  0  0  0
    5.6333    9.7886    5.4821 C   0  0  0  0  0  0  0  0  0  0  0  0
    6.3732   10.3562    4.2717 C   0  0  0  0  0  0  0  0  0  0  0  0
    7.7172    9.7947    4.1971 N   0  0  0  0  0  0  0  0  0  0  0  0
    8.1714    9.0109    3.0898 C   0  0  0  0  0  0  0  0  0  0  0  0
    7.3825    8.7302    2.1424 O   0  0  0  0  0  0  0  0  0  0  0  0
    9.6016    8.5321    3.0541 C   0  0  0  0  0  0  0  0  0  0  0  0
    9.8990    7.9280    1.6868 C   0  0  0  0  0  0  0  0  0  0  0  0
   11.2851    7.3149    1.6096 C   0  0  0  0  0  0  0  0  0  0  0  0
   12.3903    8.1126    2.3271 C   0  0  0  0  0  0  0  0  0  0  0  0
   13.8410    7.9380    1.7536 C   0  0  0  0  0  0  0  0  0  0  0  0
   14.9735    7.8448    2.7873 C   0  0  0  0  0  0  0  0  0  0  0  0
   13.9337    6.8245    0.8026 N   0  0  0  0  0  0  0  0  0  0  0  0
   12.0384    9.4253    3.0585 C   0  0  0  0  0  0  0  0  0  0  0  0
   10.5501    9.6991    3.3509 C   0  0  0  0  0  0  0  0  0  0  0  0
  1  2  1  0
  2  3  1  0
  3  4  1  0
  4  5  1  0
  5  6  1  0
  6  7  1  0
  7  8  1  0
  8  9  2  0
  8 10  1  0
 10 11  1  0
 11 12  1  0
 12 13  1  0
 13 14  1  0
 14 15  1  0
 14 16  1  0
 13 17  1  0
 17 18  1  0
 18 10  1  0
M  CHG  1  16   1
M  END
>  <EmbedRMS>  (86) 
0.16499967102600221

>  <Gold.Version>  (86) 
2020.3.0

>  <Gold.Id.Protein>  (86) 
unknown|1q8t_protein|pdb

>  <Gold.PLP.Fitness>  (86) 
54.1910

>  <Gold.PLP.PLP>  (86) 
-43.9405

>  <Gold.PLP.part.hbond>  (86) 
-2.8843

>  <Gold.PLP.part.metal>  (86) 
0.0000

>  <Gold.PLP.part.buried>  (86) 
-3.1824

>  <Gold.PLP.part.nonpolar>  (86) 
-37.8416

>  <Gold.PLP.part.repulsive>  (86) 
0.0900

>  <Gold.PLP.ligand.clash>  (86) 
0.0000

>  <Gold.PLP.ligand.torsion>  (86) 
1.2813

>  <Gold.PLP.Chemscore.Hbond>  (86) 
3.9425

>  <Gold.PLP.Chemscore.CHOScore>  (86) 
0.0000

>  <Gold.PLP.Chemscore.Metal>  (86) 
0.0000

>  <Gold.Chemscore.Hbonds>  (86) 
donor molecule, donor type, donor heavy atom, donor atom, acceptor molecule, acceptor atom, score
      L1  H    16    42       P1  2902  2.00
      L1  H    16    44       P1  2691  1.00
      P1  H  2887  2891       L1     9  0.94

>  <Gold.PLP.Chemscore.Internal.Correction>  (86) 
0.9856

>  <Gold.PLP.Constraint>  (86) 
-0.0000

>  <Gold.Protein.RotatedTorsions>  (86) 
[  681  677  676  673 ] final  107.15 input -179.99 | X-H torsion
[  702  698  697  694 ] final   91.20 input  179.99 | X-H torsion
[ 2577 2569 2568 2566 ] final  -55.27 input   -0.13 | X-H torsion
[ 2891 2887 2886 2883 ] final  142.07 input  179.98 | X-H torsion
[ 3175 3171 3170 3167 ] final -135.38 input -179.99 | X-H torsion
[ 5278 5270 5269 5267 ] final   61.15 input    0.55 | X-H torsion
[  641  637  636  633 ] final  -66.50 input  179.99 | X-H torsion
[ 1886 1878 1877 1875 ] final    6.57 input    1.60 | X-H torsion
[  965  957  956  954 ] final  -10.17 input    0.45 | X-H torsion

>  <Gold.Protein.ActiveResidues>  (86) 
 LYS47   THR48   LEU49   GLY50   THR51   GLY52   SER53   PHE54   GLY55   ARG56  
 VAL57   MET58   LEU59   TYR69   ALA70   MET71   LYS72   ILE73   LEU74   GLU91  
 LEU95   VAL104  LYS105  MET118  VAL119  MET120  GLU121  TYR122  VAL123  PRO124 
 GLY125  GLY126  GLU127  MET128  PHE129  TYR164  ASP166  LEU167  LYS168  PRO169 
 GLU170  ASN171  LEU172  LEU173  ILE174  GLN181  VAL182  THR183  ASP184  PHE185 
 GLY186  PHE187  GLY200  THR201  ASN326  PHE327  TYR330  ARG18   ARG19   ASN20  
 ALA21   ILE22   HIS23  

>  <Gold.Protein.RotatedAtoms>  (86) 
   10.2504   18.9626    7.2879 H   0  0  0  0  0  0  0  0  0  0  0  0  # atno 641  bound_to 637 
   17.1684   13.2213    6.2298 H   0  0  0  0  0  0  0  0  0  0  0  0  # atno 681  bound_to 677 
   19.7633   11.8020   -1.8922 H   0  0  0  0  0  0  0  0  0  0  0  0  # atno 702  bound_to 698 
   -6.6558   15.4565   -1.1390 H   0  0  0  0  0  0  0  0  0  0  0  0  # atno 965  bound_to 957 
    2.2508   11.4166   10.3252 H   0  0  0  0  0  0  0  0  0  0  0  0  # atno 1886 bound_to 1878
   10.5894    3.3024   -3.3325 H   0  0  0  0  0  0  0  0  0  0  0  0  # atno 2577 bound_to 2569
    7.7857    6.9434    1.0646 H   0  0  0  0  0  0  0  0  0  0  0  0  # atno 2891 bound_to 2887
   18.6702    2.6190    0.3689 H   0  0  0  0  0  0  0  0  0  0  0  0  # atno 3175 bound_to 3171
   12.9112   10.1746    8.9837 H   0  0  0  0  0  0  0  0  0  0  0  0  # atno 5278 bound_to 5270
   15.7223   12.6684    6.6031 LP  0  0  0  0  0  0  0  0  0  0  0  0  # atno 5914 bound_to 677 
   16.3816   13.9134    7.4290 LP  0  0  0  0  0  0  0  0  0  0  0  0  # atno 5915 bound_to 677 
   19.7959   11.7486   -0.3005 LP  0  0  0  0  0  0  0  0  0  0  0  0  # atno 5920 bound_to 698 
   21.1575   11.5241   -1.1736 LP  0  0  0  0  0  0  0  0  0  0  0  0  # atno 5921 bound_to 698 
   10.6839    2.0097   -2.4076 LP  0  0  0  0  0  0  0  0  0  0  0  0  # atno 5950 bound_to 2569
    9.2368    2.5774   -2.9078 LP  0  0  0  0  0  0  0  0  0  0  0  0  # atno 5951 bound_to 2569
    8.2814    5.6903    0.2157 LP  0  0  0  0  0  0  0  0  0  0  0  0  # atno 5982 bound_to 2887
    7.1994    5.5071    1.4250 LP  0  0  0  0  0  0  0  0  0  0  0  0  # atno 5983 bound_to 2887
   17.9621    1.9512   -0.8914 LP  0  0  0  0  0  0  0  0  0  0  0  0  # atno 6000 bound_to 3171
   19.2774    2.9013   -1.0758 LP  0  0  0  0  0  0  0  0  0  0  0  0  # atno 6001 bound_to 3171
   13.2658    9.7901   10.4881 LP  0  0  0  0  0  0  0  0  0  0  0  0  # atno 6004 bound_to 5270
   14.4463   10.0718    9.3956 LP  0  0  0  0  0  0  0  0  0  0  0  0  # atno 6005 bound_to 5270
   11.3753   19.4396    8.3087 LP  0  0  0  0  0  0  0  0  0  0  0  0  # atno 6055 bound_to 637 
    9.7937   19.6910    8.6281 LP  0  0  0  0  0  0  0  0  0  0  0  0  # atno 6056 bound_to 637 
    0.9482   10.6235   10.7831 LP  0  0  0  0  0  0  0  0  0  0  0  0  # atno 6063 bound_to 1878
    1.0677   12.2368   11.0056 LP  0  0  0  0  0  0  0  0  0  0  0  0  # atno 6064 bound_to 1878
   -6.5895   17.0401   -1.2910 LP  0  0  0  0  0  0  0  0  0  0  0  0  # atno 6067 bound_to 957 
   -7.2086   16.3532    0.0550 LP  0  0  0  0  0  0  0  0  0  0  0  0  # atno 6068 bound_to 957 

>  <STRIFE_LigEff_Score>  (86) 
3.0106111111111113

$$$$
unknown|pharmsElabsTestMulti|sdf|82|dock6
     RDKit          3D

 17 17  0  0  0  0  0  0  0  0999 V2000
    4.0093    9.8093    5.6348 C   0  0  0  0  0  0  0  0  0  0  0  0
    4.2861    9.5684    4.2254 N   0  0  0  0  0  0  0  0  0  0  0  0
    5.5817    9.1622    3.7710 C   0  0  0  0  0  0  0  0  0  0  0  0
    6.5249    8.9993    4.5915 O   0  0  0  0  0  0  0  0  0  0  0  0
    5.8267    8.9383    2.3154 C   0  0  0  0  0  0  0  0  0  0  0  0
    7.1976    8.4749    2.0526 N   0  0  0  0  0  0  0  0  0  0  0  0
    8.2913    9.2917    2.5041 C   0  0  0  0  0  0  0  0  0  0  0  0
    8.0396   10.4005    3.0391 O   0  0  0  0  0  0  0  0  0  0  0  0
    9.7475    8.9381    2.4264 C   0  0  0  0  0  0  0  0  0  0  0  0
   10.0650    7.4586    2.6598 C   0  0  0  0  0  0  0  0  0  0  0  0
   11.5708    7.1379    2.7565 C   0  0  0  0  0  0  0  0  0  0  0  0
   12.4104    8.1830    2.0051 C   0  0  0  0  0  0  0  0  0  0  0  0
   13.8956    7.8291    1.6839 C   0  0  0  0  0  0  0  0  0  0  0  0
   14.8465    8.9916    1.4536 C   0  0  0  0  0  0  0  0  0  0  0  0
   14.1402    6.6627    0.8423 N   0  0  0  0  0  0  0  0  0  0  0  0
   12.2303    9.5646    2.6667 C   0  0  0  0  0  0  0  0  0  0  0  0
   10.7582   10.0118    2.7957 C   0  0  0  0  0  0  0  0  0  0  0  0
  1  2  1  0
  2  3  1  0
  3  4  2  0
  3  5  1  0
  5  6  1  0
  6  7  1  0
  7  8  2  0
  7  9  1  0
  9 10  1  0
 10 11  1  0
 11 12  1  0
 12 13  1  0
 13 14  1  0
 13 15  1  0
 12 16  1  0
 16 17  1  0
 17  9  1  0
M  CHG  1  15   1
M  END
>  <EmbedRMS>  (87) 
0.2569057114362328

>  <Gold.Version>  (87) 
2020.3.0

>  <Gold.Id.Protein>  (87) 
unknown|1q8t_protein|pdb

>  <Gold.PLP.Fitness>  (87) 
41.9364

>  <Gold.PLP.PLP>  (87) 
-30.7080

>  <Gold.PLP.part.hbond>  (87) 
-2.8540

>  <Gold.PLP.part.metal>  (87) 
0.0000

>  <Gold.PLP.part.buried>  (87) 
-1.3625

>  <Gold.PLP.part.nonpolar>  (87) 
-27.3180

>  <Gold.PLP.part.repulsive>  (87) 
0.1592

>  <Gold.PLP.ligand.clash>  (87) 
0.0000

>  <Gold.PLP.ligand.torsion>  (87) 
0.7768

>  <Gold.PLP.Chemscore.Hbond>  (87) 
3.9260

>  <Gold.PLP.Chemscore.CHOScore>  (87) 
0.0000

>  <Gold.PLP.Chemscore.Metal>  (87) 
0.0000

>  <Gold.Chemscore.Hbonds>  (87) 
donor molecule, donor type, donor heavy atom, donor atom, acceptor molecule, acceptor atom, score
      L1  H     6    24       P1  2887  0.95
      L1  H    15    35       P1  2691  0.99
      L1  H    15    36       P1  2902  1.98

>  <Gold.PLP.Chemscore.Internal.Correction>  (87) 
1.0040

>  <Gold.PLP.Constraint>  (87) 
-0.0000

>  <Gold.Protein.RotatedTorsions>  (87) 
[  681  677  676  673 ] final  -49.76 input -179.99 | X-H torsion
[  702  698  697  694 ] final  123.41 input  179.99 | X-H torsion
[ 2577 2569 2568 2566 ] final  173.40 input   -0.13 | X-H torsion
[ 2891 2887 2886 2883 ] final    8.23 input  179.98 | X-H torsion
[ 3175 3171 3170 3167 ] final  177.12 input -179.99 | X-H torsion
[ 5278 5270 5269 5267 ] final  155.37 input    0.55 | X-H torsion
[  641  637  636  633 ] final -100.05 input  179.99 | X-H torsion
[ 1886 1878 1877 1875 ] final   53.25 input    1.60 | X-H torsion
[  965  957  956  954 ] final   37.62 input    0.45 | X-H torsion

>  <Gold.Protein.ActiveResidues>  (87) 
 LYS47   THR48   LEU49   GLY50   THR51   GLY52   SER53   PHE54   GLY55   ARG56  
 VAL57   MET58   LEU59   TYR69   ALA70   MET71   LYS72   ILE73   LEU74   GLU91  
 LEU95   VAL104  LYS105  MET118  VAL119  MET120  GLU121  TYR122  VAL123  PRO124 
 GLY125  GLY126  GLU127  MET128  PHE129  TYR164  ASP166  LEU167  LYS168  PRO169 
 GLU170  ASN171  LEU172  LEU173  ILE174  GLN181  VAL182  THR183  ASP184  PHE185 
 GLY186  PHE187  GLY200  THR201  ASN326  PHE327  TYR330  ARG18   ARG19   ASN20  
 ALA21   ILE22   HIS23  

>  <Gold.Protein.RotatedAtoms>  (87) 
   10.7660   18.9506    7.3208 H   0  0  0  0  0  0  0  0  0  0  0  0  # atno 641  bound_to 637 
   15.6138   13.0545    7.0275 H   0  0  0  0  0  0  0  0  0  0  0  0  # atno 681  bound_to 677 
   20.2339   11.7212   -2.0311 H   0  0  0  0  0  0  0  0  0  0  0  0  # atno 702  bound_to 698 
   -6.9563   15.4441   -0.4790 H   0  0  0  0  0  0  0  0  0  0  0  0  # atno 965  bound_to 957 
    2.0414   12.0637   10.5279 H   0  0  0  0  0  0  0  0  0  0  0  0  # atno 1886 bound_to 1878
   10.5021    1.9609   -2.4074 H   0  0  0  0  0  0  0  0  0  0  0  0  # atno 2577 bound_to 2569
    8.1500    5.5274    0.3034 H   0  0  0  0  0  0  0  0  0  0  0  0  # atno 2891 bound_to 2887
   18.1298    2.1909    0.1565 H   0  0  0  0  0  0  0  0  0  0  0  0  # atno 3175 bound_to 3171
   14.2217   10.1688    9.0627 H   0  0  0  0  0  0  0  0  0  0  0  0  # atno 5278 bound_to 5270
   16.9103   13.9701    7.1577 LP  0  0  0  0  0  0  0  0  0  0  0  0  # atno 5914 bound_to 677 
   16.8300   12.7872    6.0348 LP  0  0  0  0  0  0  0  0  0  0  0  0  # atno 5915 bound_to 677 
   19.4253   11.8213   -0.6623 LP  0  0  0  0  0  0  0  0  0  0  0  0  # atno 5920 bound_to 698 
   21.0332   11.5363   -0.6657 LP  0  0  0  0  0  0  0  0  0  0  0  0  # atno 5921 bound_to 698 
    9.2468    2.7305   -3.0134 LP  0  0  0  0  0  0  0  0  0  0  0  0  # atno 5950 bound_to 2569
   10.7659    3.2691   -3.2760 LP  0  0  0  0  0  0  0  0  0  0  0  0  # atno 5951 bound_to 2569
    7.1492    5.7023    1.5299 LP  0  0  0  0  0  0  0  0  0  0  0  0  # atno 5982 bound_to 2887
    7.9482    6.9853    0.9118 LP  0  0  0  0  0  0  0  0  0  0  0  0  # atno 5983 bound_to 2887
   18.4421    2.2396   -1.4042 LP  0  0  0  0  0  0  0  0  0  0  0  0  # atno 6000 bound_to 3171
   19.3661    3.0635   -0.3393 LP  0  0  0  0  0  0  0  0  0  0  0  0  # atno 6001 bound_to 3171
   12.6474   10.0798    9.2872 LP  0  0  0  0  0  0  0  0  0  0  0  0  # atno 6004 bound_to 5270
   13.6857    9.7882   10.5134 LP  0  0  0  0  0  0  0  0  0  0  0  0  # atno 6005 bound_to 5270
   11.0822   19.6609    8.7102 LP  0  0  0  0  0  0  0  0  0  0  0  0  # atno 6055 bound_to 637 
    9.5439   19.4823    8.1920 LP  0  0  0  0  0  0  0  0  0  0  0  0  # atno 6056 bound_to 637 
    1.6203   10.5292   10.4707 LP  0  0  0  0  0  0  0  0  0  0  0  0  # atno 6063 bound_to 1878
    0.6161   11.6500   11.1046 LP  0  0  0  0  0  0  0  0  0  0  0  0  # atno 6064 bound_to 1878
   -6.4318   16.3853   -1.6512 LP  0  0  0  0  0  0  0  0  0  0  0  0  # atno 6067 bound_to 957 
   -7.0499   17.0210   -0.2799 LP  0  0  0  0  0  0  0  0  0  0  0  0  # atno 6068 bound_to 957 

>  <STRIFE_LigEff_Score>  (87) 
2.466847058823529

$$$$
unknown|pharmsElabsTestMulti|sdf|83|dock2
     RDKit          3D

 18 18  0  0  0  0  0  0  0  0999 V2000
   14.4162    7.5025    3.2551 C   0  0  0  0  0  0  0  0  0  0  0  0
   14.0755    8.0603    1.8591 C   0  0  0  0  0  0  0  0  0  0  0  0
   14.3447    7.0276    0.8499 N   0  0  0  0  0  0  0  0  0  0  0  0
   12.5961    8.5471    1.8229 C   0  0  0  0  0  0  0  0  0  0  0  0
   11.6390    7.3413    1.9281 C   0  0  0  0  0  0  0  0  0  0  0  0
   10.1982    7.7921    1.7208 C   0  0  0  0  0  0  0  0  0  0  0  0
    9.8051    8.8230    2.7823 C   0  0  0  0  0  0  0  0  0  0  0  0
    8.3831    9.2817    2.5855 C   0  0  0  0  0  0  0  0  0  0  0  0
    8.0206    9.8151    1.5040 O   0  0  0  0  0  0  0  0  0  0  0  0
    7.5183    9.3009    3.7159 N   0  0  0  0  0  0  0  0  0  0  0  0
    6.1202    9.7011    3.7674 C   0  0  0  0  0  0  0  0  0  0  0  0
    5.4648   10.3058    2.5216 C   0  0  0  0  0  0  0  0  0  0  0  0
    5.4419    9.2892    1.5567 O   0  0  0  0  0  0  0  0  0  0  0  0
    5.5395   10.1812    5.1083 C   0  0  0  0  0  0  0  0  0  0  0  0
    4.0255   10.0913    5.3000 C   0  0  0  0  0  0  0  0  0  0  0  0
    3.3450    8.9024    4.1135 S   0  0  0  0  0  0  0  0  0  0  0  0
   10.7707   10.0245    2.7885 C   0  0  0  0  0  0  0  0  0  0  0  0
   12.2336    9.5712    2.9255 C   0  0  0  0  0  0  0  0  0  0  0  0
  1  2  1  0
  2  3  1  0
  2  4  1  0
  4  5  1  0
  5  6  1  0
  6  7  1  0
  7  8  1  0
  8  9  2  0
  8 10  1  0
 10 11  1  0
 11 12  1  0
 12 13  1  0
 11 14  1  0
 14 15  1  0
 15 16  1  0
  7 17  1  0
 17 18  1  0
 18  4  1  0
M  CHG  1   3   1
M  END
>  <EmbedRMS>  (88) 
0.1964435552690657

>  <Gold.Version>  (88) 
2020.3.0

>  <Gold.Id.Protein>  (88) 
unknown|1q8t_protein|pdb

>  <Gold.PLP.Fitness>  (88) 
49.4127

>  <Gold.PLP.PLP>  (88) 
-41.3430

>  <Gold.PLP.part.hbond>  (88) 
-2.0000

>  <Gold.PLP.part.metal>  (88) 
0.0000

>  <Gold.PLP.part.buried>  (88) 
-1.9538

>  <Gold.PLP.part.nonpolar>  (88) 
-37.7516

>  <Gold.PLP.part.repulsive>  (88) 
0.0803

>  <Gold.PLP.ligand.clash>  (88) 
0.0143

>  <Gold.PLP.ligand.torsion>  (88) 
1.0818

>  <Gold.PLP.Chemscore.Hbond>  (88) 
3.0000

>  <Gold.PLP.Chemscore.CHOScore>  (88) 
0.0000

>  <Gold.PLP.Chemscore.Metal>  (88) 
0.0000

>  <Gold.Chemscore.Hbonds>  (88) 
donor molecule, donor type, donor heavy atom, donor atom, acceptor molecule, acceptor atom, score
      L1  H     3    23       P1  2902  2.00
      L1  H     3    24       P1  2691  1.00

>  <Gold.PLP.Chemscore.Internal.Correction>  (88) 
1.2477

>  <Gold.PLP.Constraint>  (88) 
-0.0000

>  <Gold.Protein.RotatedTorsions>  (88) 
[  681  677  676  673 ] final  -14.62 input -179.99 | X-H torsion
[  702  698  697  694 ] final -175.30 input  179.99 | X-H torsion
[ 2577 2569 2568 2566 ] final  116.32 input   -0.13 | X-H torsion
[ 2891 2887 2886 2883 ] final  -10.15 input  179.98 | X-H torsion
[ 3175 3171 3170 3167 ] final   54.86 input -179.99 | X-H torsion
[ 5278 5270 5269 5267 ] final -116.54 input    0.55 | X-H torsion
[  641  637  636  633 ] final -159.12 input  179.99 | X-H torsion
[ 1886 1878 1877 1875 ] final   87.59 input    1.60 | X-H torsion
[  965  957  956  954 ] final -107.85 input    0.45 | X-H torsion

>  <Gold.Protein.ActiveResidues>  (88) 
 LYS47   THR48   LEU49   GLY50   THR51   GLY52   SER53   PHE54   GLY55   ARG56  
 VAL57   MET58   LEU59   TYR69   ALA70   MET71   LYS72   ILE73   LEU74   GLU91  
 LEU95   VAL104  LYS105  MET118  VAL119  MET120  GLU121  TYR122  VAL123  PRO124 
 GLY125  GLY126  GLU127  MET128  PHE129  TYR164  ASP166  LEU167  LYS168  PRO169 
 GLU170  ASN171  LEU172  LEU173  ILE174  GLN181  VAL182  THR183  ASP184  PHE185 
 GLY186  PHE187  GLY200  THR201  ASN326  PHE327  TYR330  ARG18   ARG19   ASN20  
 ALA21   ILE22   HIS23  

>  <Gold.Protein.RotatedAtoms>  (88) 
   11.3450   19.2277    7.9268 H   0  0  0  0  0  0  0  0  0  0  0  0  # atno 641  bound_to 637 
   15.7376   12.7210    6.6202 H   0  0  0  0  0  0  0  0  0  0  0  0  # atno 681  bound_to 677 
   21.0073   11.5752   -1.5671 H   0  0  0  0  0  0  0  0  0  0  0  0  # atno 702  bound_to 698 
   -6.4890   16.7505   -1.4784 H   0  0  0  0  0  0  0  0  0  0  0  0  # atno 965  bound_to 957 
    1.6246   12.2995   10.7518 H   0  0  0  0  0  0  0  0  0  0  0  0  # atno 1886 bound_to 1878
    9.6549    2.0209   -2.5111 H   0  0  0  0  0  0  0  0  0  0  0  0  # atno 2577 bound_to 2569
    7.9913    5.3328    0.4406 H   0  0  0  0  0  0  0  0  0  0  0  0  # atno 2891 bound_to 2887
   18.4898    2.2577   -1.3690 H   0  0  0  0  0  0  0  0  0  0  0  0  # atno 3175 bound_to 3171
   14.1227    9.8704   10.2682 H   0  0  0  0  0  0  0  0  0  0  0  0  # atno 5278 bound_to 5270
   16.4083   13.9227    7.4217 LP  0  0  0  0  0  0  0  0  0  0  0  0  # atno 5914 bound_to 677 
   17.2016   13.1856    6.1995 LP  0  0  0  0  0  0  0  0  0  0  0  0  # atno 5915 bound_to 677 
   19.4371   11.8377   -1.6232 LP  0  0  0  0  0  0  0  0  0  0  0  0  # atno 5920 bound_to 698 
   20.2077   11.6735   -0.1929 LP  0  0  0  0  0  0  0  0  0  0  0  0  # atno 5921 bound_to 698 
    9.7915    3.3380   -3.3953 LP  0  0  0  0  0  0  0  0  0  0  0  0  # atno 5950 bound_to 2569
   11.1132    2.5984   -2.7849 LP  0  0  0  0  0  0  0  0  0  0  0  0  # atno 5951 bound_to 2569
    7.1376    5.9916    1.6127 LP  0  0  0  0  0  0  0  0  0  0  0  0  # atno 5982 bound_to 2887
    8.1269    6.9008    0.6846 LP  0  0  0  0  0  0  0  0  0  0  0  0  # atno 5983 bound_to 2887
   19.3576    3.0619   -0.3032 LP  0  0  0  0  0  0  0  0  0  0  0  0  # atno 6000 bound_to 3171
   18.0718    2.1708    0.1651 LP  0  0  0  0  0  0  0  0  0  0  0  0  # atno 6001 bound_to 3171
   13.8311   10.2263    8.7434 LP  0  0  0  0  0  0  0  0  0  0  0  0  # atno 6004 bound_to 5270
   12.6062    9.9556    9.7888 LP  0  0  0  0  0  0  0  0  0  0  0  0  # atno 6005 bound_to 5270
   10.1709   19.7823    8.8482 LP  0  0  0  0  0  0  0  0  0  0  0  0  # atno 6055 bound_to 637 
    9.8454   19.0691    7.4158 LP  0  0  0  0  0  0  0  0  0  0  0  0  # atno 6056 bound_to 637 
    2.0655   10.8300   10.3258 LP  0  0  0  0  0  0  0  0  0  0  0  0  # atno 6063 bound_to 1878
    0.6096   11.1010   11.0139 LP  0  0  0  0  0  0  0  0  0  0  0  0  # atno 6064 bound_to 1878
   -7.1635   16.7034   -0.0369 LP  0  0  0  0  0  0  0  0  0  0  0  0  # atno 6067 bound_to 957 
   -6.8103   15.3270   -0.8416 LP  0  0  0  0  0  0  0  0  0  0  0  0  # atno 6068 bound_to 957 

>  <STRIFE_LigEff_Score>  (88) 
2.74515

$$$$
unknown|pharmsElabsTestMulti|sdf|84|dock4
     RDKit          3D

 18 19  0  0  0  0  0  0  0  0999 V2000
   15.0357    8.8465    1.6858 C   0  0  0  0  0  0  0  0  0  0  0  0
   13.9906    7.7442    1.7088 C   0  0  0  0  0  0  0  0  0  0  0  0
   14.1024    6.7605    0.6393 N   0  0  0  0  0  0  0  0  0  0  0  0
   12.5563    8.1490    2.1582 C   0  0  0  0  0  0  0  0  0  0  0  0
   11.5275    7.0355    2.4255 C   0  0  0  0  0  0  0  0  0  0  0  0
   10.1236    7.6620    2.3731 C   0  0  0  0  0  0  0  0  0  0  0  0
    9.9877    8.7875    3.4163 C   0  0  0  0  0  0  0  0  0  0  0  0
    8.6401    9.4450    3.3215 C   0  0  0  0  0  0  0  0  0  0  0  0
    8.2253    9.9077    2.2207 O   0  0  0  0  0  0  0  0  0  0  0  0
    7.8457    9.5704    4.5053 N   0  0  0  0  0  0  0  0  0  0  0  0
    6.5033   10.1320    4.4897 C   0  0  0  0  0  0  0  0  0  0  0  0
    5.7179    9.5758    3.3031 C   0  0  0  0  0  0  0  0  0  0  0  0
    4.2526    9.3430    3.6840 C   0  0  0  0  0  0  0  0  0  0  0  0
    3.2975    8.6594    2.7030 C   0  0  0  0  0  0  0  0  0  0  0  0
    3.9873    9.0964    5.1483 C   0  0  0  0  0  0  0  0  0  0  0  0
    3.6351   10.3046    4.6865 C   0  0  0  0  0  0  0  0  0  0  0  0
   11.1062    9.8418    3.3103 C   0  0  0  0  0  0  0  0  0  0  0  0
   12.4961    9.1904    3.2893 C   0  0  0  0  0  0  0  0  0  0  0  0
  1  2  1  0
  2  3  1  0
  2  4  1  0
  4  5  1  0
  5  6  1  0
  6  7  1  0
  7  8  1  0
  8  9  2  0
  8 10  1  0
 10 11  1  0
 11 12  1  0
 12 13  1  0
 13 14  1  0
 13 15  1  0
 15 16  1  0
  7 17  1  0
 17 18  1  0
 18  4  1  0
 16 13  1  0
M  CHG  1   3   1
M  END
>  <EmbedRMS>  (89) 
0.5113108624362681

>  <Gold.Version>  (89) 
2020.3.0

>  <Gold.Id.Protein>  (89) 
unknown|1q8t_protein|pdb

>  <Gold.PLP.Fitness>  (89) 
53.5618

>  <Gold.PLP.PLP>  (89) 
-45.4842

>  <Gold.PLP.part.hbond>  (89) 
-2.0000

>  <Gold.PLP.part.metal>  (89) 
0.0000

>  <Gold.PLP.part.buried>  (89) 
-2.3676

>  <Gold.PLP.part.nonpolar>  (89) 
-42.2569

>  <Gold.PLP.part.repulsive>  (89) 
0.1031

>  <Gold.PLP.ligand.clash>  (89) 
0.0000

>  <Gold.PLP.ligand.torsion>  (89) 
1.1307

>  <Gold.PLP.Chemscore.Hbond>  (89) 
3.0000

>  <Gold.PLP.Chemscore.CHOScore>  (89) 
0.0000

>  <Gold.PLP.Chemscore.Metal>  (89) 
0.0000

>  <Gold.Chemscore.Hbonds>  (89) 
donor molecule, donor type, donor heavy atom, donor atom, acceptor molecule, acceptor atom, score
      L1  H     3    23       P1  2691  1.00
      L1  H     3    25       P1  2902  2.00

>  <Gold.PLP.Chemscore.Internal.Correction>  (89) 
1.3390

>  <Gold.PLP.Constraint>  (89) 
-0.0000

>  <Gold.Protein.RotatedTorsions>  (89) 
[  681  677  676  673 ] final  161.19 input -179.99 | X-H torsion
[  702  698  697  694 ] final   78.64 input  179.99 | X-H torsion
[ 2577 2569 2568 2566 ] final   82.98 input   -0.13 | X-H torsion
[ 2891 2887 2886 2883 ] final  -64.11 input  179.98 | X-H torsion
[ 3175 3171 3170 3167 ] final -132.57 input -179.99 | X-H torsion
[ 5278 5270 5269 5267 ] final  -81.12 input    0.55 | X-H torsion
[  641  637  636  633 ] final   93.85 input  179.99 | X-H torsion
[ 1886 1878 1877 1875 ] final -143.07 input    1.60 | X-H torsion
[  965  957  956  954 ] final -106.72 input    0.45 | X-H torsion

>  <Gold.Protein.ActiveResidues>  (89) 
 LYS47   THR48   LEU49   GLY50   THR51   GLY52   SER53   PHE54   GLY55   ARG56  
 VAL57   MET58   LEU59   TYR69   ALA70   MET71   LYS72   ILE73   LEU74   GLU91  
 LEU95   VAL104  LYS105  MET118  VAL119  MET120  GLU121  TYR122  VAL123  PRO124 
 GLY125  GLY126  GLU127  MET128  PHE129  TYR164  ASP166  LEU167  LYS168  PRO169 
 GLU170  ASN171  LEU172  LEU173  ILE174  GLN181  VAL182  THR183  ASP184  PHE185 
 GLY186  PHE187  GLY200  THR201  ASN326  PHE327  TYR330  ARG18   ARG19   ASN20  
 ALA21   ILE22   HIS23  

>  <Gold.Protein.RotatedAtoms>  (89) 
   10.3827   19.7568    8.8579 H   0  0  0  0  0  0  0  0  0  0  0  0  # atno 641  bound_to 637 
   17.1574   13.7958    6.8062 H   0  0  0  0  0  0  0  0  0  0  0  0  # atno 681  bound_to 677 
   19.6121   11.8264   -1.7699 H   0  0  0  0  0  0  0  0  0  0  0  0  # atno 702  bound_to 698 
   -6.4853   16.7356   -1.4870 H   0  0  0  0  0  0  0  0  0  0  0  0  # atno 965  bound_to 957 
    0.6925   10.9892   10.9393 H   0  0  0  0  0  0  0  0  0  0  0  0  # atno 1886 bound_to 1878
    9.3426    2.3449   -2.7590 H   0  0  0  0  0  0  0  0  0  0  0  0  # atno 2577 bound_to 2569
    7.4522    5.2305    1.0405 H   0  0  0  0  0  0  0  0  0  0  0  0  # atno 2891 bound_to 2887
   18.7056    2.6444    0.3629 H   0  0  0  0  0  0  0  0  0  0  0  0  # atno 3175 bound_to 3171
   13.6234    9.8131   10.4796 H   0  0  0  0  0  0  0  0  0  0  0  0  # atno 5278 bound_to 5270
   16.4072   12.5842    6.0954 LP  0  0  0  0  0  0  0  0  0  0  0  0  # atno 5914 bound_to 677 
   15.7084   13.3929    7.3300 LP  0  0  0  0  0  0  0  0  0  0  0  0  # atno 5915 bound_to 677 
   19.9847   11.7137   -0.2253 LP  0  0  0  0  0  0  0  0  0  0  0  0  # atno 5920 bound_to 698 
   21.1278   11.5333   -1.3775 LP  0  0  0  0  0  0  0  0  0  0  0  0  # atno 5921 bound_to 698 
   10.3268    3.4145   -3.4092 LP  0  0  0  0  0  0  0  0  0  0  0  0  # atno 5950 bound_to 2569
   10.9067    2.1808   -2.5100 LP  0  0  0  0  0  0  0  0  0  0  0  0  # atno 5951 bound_to 2569
    7.4456    6.7715    1.4428 LP  0  0  0  0  0  0  0  0  0  0  0  0  # atno 5982 bound_to 2887
    8.3862    6.2286    0.2232 LP  0  0  0  0  0  0  0  0  0  0  0  0  # atno 5983 bound_to 2887
   17.9455    1.9445   -0.8487 LP  0  0  0  0  0  0  0  0  0  0  0  0  # atno 6000 bound_to 3171
   19.2568    2.8813   -1.1121 LP  0  0  0  0  0  0  0  0  0  0  0  0  # atno 6001 bound_to 3171
   14.2933   10.1495    9.0744 LP  0  0  0  0  0  0  0  0  0  0  0  0  # atno 6004 bound_to 5270
   12.6693   10.0928    9.2354 LP  0  0  0  0  0  0  0  0  0  0  0  0  # atno 6005 bound_to 5270
    9.7031   19.1473    7.5534 LP  0  0  0  0  0  0  0  0  0  0  0  0  # atno 6055 bound_to 637 
   11.3265   19.1468    7.7300 LP  0  0  0  0  0  0  0  0  0  0  0  0  # atno 6056 bound_to 637 
    1.5025   12.3561   10.8343 LP  0  0  0  0  0  0  0  0  0  0  0  0  # atno 6063 bound_to 1878
    2.1539   10.9542   10.3080 LP  0  0  0  0  0  0  0  0  0  0  0  0  # atno 6064 bound_to 1878
   -7.1597   16.7198   -0.0448 LP  0  0  0  0  0  0  0  0  0  0  0  0  # atno 6067 bound_to 957 
   -6.8180   15.3264   -0.8247 LP  0  0  0  0  0  0  0  0  0  0  0  0  # atno 6068 bound_to 957 

>  <STRIFE_LigEff_Score>  (89) 
2.9756555555555555

$$$$
unknown|pharmsElabsTestMulti|sdf|85|dock2
     RDKit          3D

 20 21  0  0  0  0  0  0  0  0999 V2000
    4.2022    9.7971    5.8574 C   0  0  0  0  0  0  0  0  0  0  0  0
    4.3061    9.5830    4.3705 C   0  0  0  0  0  0  0  0  0  0  0  0
    3.2657    8.9057    3.7122 C   0  0  0  0  0  0  0  0  0  0  0  0
    3.2997    8.7208    2.3299 C   0  0  0  0  0  0  0  0  0  0  0  0
    4.3720    9.2091    1.5851 C   0  0  0  0  0  0  0  0  0  0  0  0
    5.4159    9.8823    2.2214 C   0  0  0  0  0  0  0  0  0  0  0  0
    5.3984   10.0781    3.6145 C   0  0  0  0  0  0  0  0  0  0  0  0
    6.5524   10.8164    4.2477 C   0  0  0  0  0  0  0  0  0  0  0  0
    7.7215    9.9486    4.3299 N   0  0  0  0  0  0  0  0  0  0  0  0
    8.4837    9.5596    3.1806 C   0  0  0  0  0  0  0  0  0  0  0  0
    8.1575    9.9616    2.0303 O   0  0  0  0  0  0  0  0  0  0  0  0
    9.6932    8.6843    3.3545 C   0  0  0  0  0  0  0  0  0  0  0  0
   10.0101    7.9498    2.0534 C   0  0  0  0  0  0  0  0  0  0  0  0
   11.1384    6.9461    2.2401 C   0  0  0  0  0  0  0  0  0  0  0  0
   12.3622    7.4560    3.0476 C   0  0  0  0  0  0  0  0  0  0  0  0
   13.7649    7.4195    2.4097 C   0  0  0  0  0  0  0  0  0  0  0  0
   14.9796    7.4513    3.3371 C   0  0  0  0  0  0  0  0  0  0  0  0
   13.9072    8.3980    1.3228 N   0  0  0  0  0  0  0  0  0  0  0  0
   12.1404    8.6703    4.0008 C   0  0  0  0  0  0  0  0  0  0  0  0
   10.8988    9.5260    3.7578 C   0  0  0  0  0  0  0  0  0  0  0  0
  1  2  1  0
  2  3  2  0
  3  4  1  0
  4  5  2  0
  5  6  1  0
  6  7  2  0
  7  8  1  0
  8  9  1  0
  9 10  1  0
 10 11  2  0
 10 12  1  0
 12 13  1  0
 13 14  1  0
 14 15  1  0
 15 16  1  0
 16 17  1  0
 16 18  1  0
 15 19  1  0
 19 20  1  0
  7  2  1  0
 20 12  1  0
M  CHG  1  18   1
M  END
>  <EmbedRMS>  (90) 
0.19204016474732244

>  <Gold.Version>  (90) 
2020.3.0

>  <Gold.Id.Protein>  (90) 
unknown|1q8t_protein|pdb

>  <Gold.PLP.Fitness>  (90) 
52.8697

>  <Gold.PLP.PLP>  (90) 
-48.6415

>  <Gold.PLP.part.hbond>  (90) 
-1.0000

>  <Gold.PLP.part.metal>  (90) 
0.0000

>  <Gold.PLP.part.buried>  (90) 
-1.5763

>  <Gold.PLP.part.nonpolar>  (90) 
-47.2586

>  <Gold.PLP.part.repulsive>  (90) 
0.0000

>  <Gold.PLP.ligand.clash>  (90) 
0.0228

>  <Gold.PLP.ligand.torsion>  (90) 
1.1096

>  <Gold.PLP.Chemscore.Hbond>  (90) 
2.0000

>  <Gold.PLP.Chemscore.CHOScore>  (90) 
0.0000

>  <Gold.PLP.Chemscore.Metal>  (90) 
0.0000

>  <Gold.Chemscore.Hbonds>  (90) 
donor molecule, donor type, donor heavy atom, donor atom, acceptor molecule, acceptor atom, score
      L1  H    18    41       P1  2902  2.00

>  <Gold.PLP.Chemscore.Internal.Correction>  (90) 
0.4702

>  <Gold.PLP.Constraint>  (90) 
-0.0000

>  <Gold.Protein.RotatedTorsions>  (90) 
[  681  677  676  673 ] final  -24.53 input -179.99 | X-H torsion
[  702  698  697  694 ] final   37.11 input  179.99 | X-H torsion
[ 2577 2569 2568 2566 ] final   82.87 input   -0.13 | X-H torsion
[ 2891 2887 2886 2883 ] final   41.40 input  179.98 | X-H torsion
[ 3175 3171 3170 3167 ] final -145.24 input -179.99 | X-H torsion
[ 5278 5270 5269 5267 ] final  -54.79 input    0.55 | X-H torsion
[  641  637  636  633 ] final -111.40 input  179.99 | X-H torsion
[ 1886 1878 1877 1875 ] final  -49.53 input    1.60 | X-H torsion
[  965  957  956  954 ] final  -92.19 input    0.45 | X-H torsion

>  <Gold.Protein.ActiveResidues>  (90) 
 LYS47   THR48   LEU49   GLY50   THR51   GLY52   SER53   PHE54   GLY55   ARG56  
 VAL57   MET58   LEU59   TYR69   ALA70   MET71   LYS72   ILE73   LEU74   GLU91  
 LEU95   VAL104  LYS105  MET118  VAL119  MET120  GLU121  TYR122  VAL123  PRO124 
 GLY125  GLY126  GLU127  MET128  PHE129  TYR164  ASP166  LEU167  LYS168  PRO169 
 GLU170  ASN171  LEU172  LEU173  ILE174  GLN181  VAL182  THR183  ASP184  PHE185 
 GLY186  PHE187  GLY200  THR201  ASN326  PHE327  TYR330  ARG18   ARG19   ASN20  
 ALA21   ILE22   HIS23  

>  <Gold.Protein.RotatedAtoms>  (90) 
   10.9262   18.9776    7.3913 H   0  0  0  0  0  0  0  0  0  0  0  0  # atno 641  bound_to 637 
   15.6731   12.7988    6.7373 H   0  0  0  0  0  0  0  0  0  0  0  0  # atno 681  bound_to 677 
   19.3521   11.8613   -1.1911 H   0  0  0  0  0  0  0  0  0  0  0  0  # atno 702  bound_to 698 
   -6.4485   16.5289   -1.5721 H   0  0  0  0  0  0  0  0  0  0  0  0  # atno 965  bound_to 957 
    1.8343   10.6870   10.3844 H   0  0  0  0  0  0  0  0  0  0  0  0  # atno 1886 bound_to 1878
    9.3420    2.3462   -2.7599 H   0  0  0  0  0  0  0  0  0  0  0  0  # atno 2577 bound_to 2569
    8.3243    6.0000    0.2147 H   0  0  0  0  0  0  0  0  0  0  0  0  # atno 2891 bound_to 2887
   18.5463    2.5277    0.3732 H   0  0  0  0  0  0  0  0  0  0  0  0  # atno 3175 bound_to 3171
   13.2185    9.8213   10.4290 H   0  0  0  0  0  0  0  0  0  0  0  0  # atno 5278 bound_to 5270
   16.5571   13.9629    7.3694 LP  0  0  0  0  0  0  0  0  0  0  0  0  # atno 5914 bound_to 677 
   17.1207   13.0634    6.1285 LP  0  0  0  0  0  0  0  0  0  0  0  0  # atno 5915 bound_to 677 
   20.6400   11.5988   -0.2911 LP  0  0  0  0  0  0  0  0  0  0  0  0  # atno 5920 bound_to 698 
   20.7460   11.6115   -1.9206 LP  0  0  0  0  0  0  0  0  0  0  0  0  # atno 5921 bound_to 698 
   10.3285    3.4143   -3.4089 LP  0  0  0  0  0  0  0  0  0  0  0  0  # atno 5950 bound_to 2569
   10.9056    2.1797   -2.5093 LP  0  0  0  0  0  0  0  0  0  0  0  0  # atno 5951 bound_to 2569
    7.3231    5.2905    1.2299 LP  0  0  0  0  0  0  0  0  0  0  0  0  # atno 5982 bound_to 2887
    7.5909    6.8997    1.3052 LP  0  0  0  0  0  0  0  0  0  0  0  0  # atno 5983 bound_to 2887
   18.0329    1.9851   -1.0331 LP  0  0  0  0  0  0  0  0  0  0  0  0  # atno 6000 bound_to 3171
   19.3370    2.9634   -0.9385 LP  0  0  0  0  0  0  0  0  0  0  0  0  # atno 6001 bound_to 3171
   14.4598   10.0563    9.4592 LP  0  0  0  0  0  0  0  0  0  0  0  0  # atno 6004 bound_to 5270
   12.9289   10.1773    8.9038 LP  0  0  0  0  0  0  0  0  0  0  0  0  # atno 6005 bound_to 5270
   10.9294   19.7163    8.8018 LP  0  0  0  0  0  0  0  0  0  0  0  0  # atno 6055 bound_to 637 
    9.5280   19.3985    8.0261 LP  0  0  0  0  0  0  0  0  0  0  0  0  # atno 6056 bound_to 637 
    0.5743   11.3723   11.0757 LP  0  0  0  0  0  0  0  0  0  0  0  0  # atno 6063 bound_to 1878
    1.8800   12.2561   10.6508 LP  0  0  0  0  0  0  0  0  0  0  0  0  # atno 6064 bound_to 1878
   -7.1004   16.9131   -0.1712 LP  0  0  0  0  0  0  0  0  0  0  0  0  # atno 6067 bound_to 957 
   -6.9162   15.3507   -0.6087 LP  0  0  0  0  0  0  0  0  0  0  0  0  # atno 6068 bound_to 957 

>  <STRIFE_LigEff_Score>  (90) 
2.643485

$$$$
unknown|pharmsElabsTestMulti|sdf|86|dock7
     RDKit          3D

 17 17  0  0  0  0  0  0  0  0999 V2000
   14.5441    7.3113    3.3699 C   0  0  0  0  0  0  0  0  0  0  0  0
   13.2777    7.4178    2.5220 C   0  0  0  0  0  0  0  0  0  0  0  0
   13.4328    8.3607    1.4124 N   0  0  0  0  0  0  0  0  0  0  0  0
   11.9172    7.5723    3.2452 C   0  0  0  0  0  0  0  0  0  0  0  0
   10.7253    7.0415    2.4355 C   0  0  0  0  0  0  0  0  0  0  0  0
    9.3524    7.5497    2.8414 C   0  0  0  0  0  0  0  0  0  0  0  0
    9.3524    9.0201    3.1724 C   0  0  0  0  0  0  0  0  0  0  0  0
    7.9825    9.6190    3.2688 C   0  0  0  0  0  0  0  0  0  0  0  0
    7.7072   10.1370    4.3779 O   0  0  0  0  0  0  0  0  0  0  0  0
    6.9939    9.6269    2.2261 N   0  0  0  0  0  0  0  0  0  0  0  0
    5.6337   10.1111    2.4950 C   0  0  0  0  0  0  0  0  0  0  0  0
    4.6738    8.9282    2.7165 C   0  0  0  0  0  0  0  0  0  0  0  0
    3.2986    9.3769    3.2290 C   0  0  0  0  0  0  0  0  0  0  0  0
    3.3749   10.0919    4.5787 C   0  0  0  0  0  0  0  0  0  0  0  0
    3.7519    9.1871    5.5787 O   0  0  0  0  0  0  0  0  0  0  0  0
   10.3716    9.4794    4.1779 C   0  0  0  0  0  0  0  0  0  0  0  0
   11.7797    9.0030    3.8304 C   0  0  0  0  0  0  0  0  0  0  0  0
  1  2  1  0
  2  3  1  0
  2  4  1  0
  4  5  1  0
  5  6  1  0
  6  7  1  0
  7  8  1  0
  8  9  2  0
  8 10  1  0
 10 11  1  0
 11 12  1  0
 12 13  1  0
 13 14  1  0
 14 15  1  0
  7 16  1  0
 16 17  1  0
 17  4  1  0
M  CHG  1   3   1
M  END
>  <EmbedRMS>  (91) 
0.3028787039700591

>  <Gold.Version>  (91) 
2020.3.0

>  <Gold.Id.Protein>  (91) 
unknown|1q8t_protein|pdb

>  <Gold.PLP.Fitness>  (91) 
49.4639

>  <Gold.PLP.PLP>  (91) 
-41.1435

>  <Gold.PLP.part.hbond>  (91) 
-2.0000

>  <Gold.PLP.part.metal>  (91) 
0.0000

>  <Gold.PLP.part.buried>  (91) 
-3.1942

>  <Gold.PLP.part.nonpolar>  (91) 
-36.4100

>  <Gold.PLP.part.repulsive>  (91) 
0.0301

>  <Gold.PLP.ligand.clash>  (91) 
0.0000

>  <Gold.PLP.ligand.torsion>  (91) 
0.6870

>  <Gold.PLP.Chemscore.Hbond>  (91) 
3.0000

>  <Gold.PLP.Chemscore.CHOScore>  (91) 
0.0000

>  <Gold.PLP.Chemscore.Metal>  (91) 
0.0000

>  <Gold.Chemscore.Hbonds>  (91) 
donor molecule, donor type, donor heavy atom, donor atom, acceptor molecule, acceptor atom, score
      L1  H     3    22       P1  2902  2.00
      L1  H    15    40       P1  1891  1.00

>  <Gold.PLP.Chemscore.Internal.Correction>  (91) 
0.6944

>  <Gold.PLP.Constraint>  (91) 
-0.0000

>  <Gold.Protein.RotatedTorsions>  (91) 
[  681  677  676  673 ] final   15.31 input -179.99 | X-H torsion
[  702  698  697  694 ] final  -48.15 input  179.99 | X-H torsion
[ 2577 2569 2568 2566 ] final  -46.68 input   -0.13 | X-H torsion
[ 2891 2887 2886 2883 ] final  -39.90 input  179.98 | X-H torsion
[ 3175 3171 3170 3167 ] final   28.50 input -179.99 | X-H torsion
[ 5278 5270 5269 5267 ] final  -83.47 input    0.55 | X-H torsion
[  641  637  636  633 ] final  -98.50 input  179.99 | X-H torsion
[ 1886 1878 1877 1875 ] final   74.12 input    1.60 | X-H torsion
[  965  957  956  954 ] final  110.16 input    0.45 | X-H torsion

>  <Gold.Protein.ActiveResidues>  (91) 
 LYS47   THR48   LEU49   GLY50   THR51   GLY52   SER53   PHE54   GLY55   ARG56  
 VAL57   MET58   LEU59   TYR69   ALA70   MET71   LYS72   ILE73   LEU74   GLU91  
 LEU95   VAL104  LYS105  MET118  VAL119  MET120  GLU121  TYR122  VAL123  PRO124 
 GLY125  GLY126  GLU127  MET128  PHE129  TYR164  ASP166  LEU167  LYS168  PRO169 
 GLU170  ASN171  LEU172  LEU173  ILE174  GLN181  VAL182  THR183  ASP184  PHE185 
 GLY186  PHE187  GLY200  THR201  ASN326  PHE327  TYR330  ARG18   ARG19   ASN20  
 ALA21   ILE22   HIS23  

>  <Gold.Protein.RotatedAtoms>  (91) 
   10.7430   18.9481    7.3134 H   0  0  0  0  0  0  0  0  0  0  0  0  # atno 641  bound_to 637 
   16.0475   12.5930    6.3013 H   0  0  0  0  0  0  0  0  0  0  0  0  # atno 681  bound_to 677 
   20.1021   11.7102   -0.2484 H   0  0  0  0  0  0  0  0  0  0  0  0  # atno 702  bound_to 698 
   -7.1740   16.3539    0.0182 H   0  0  0  0  0  0  0  0  0  0  0  0  # atno 965  bound_to 957 
    1.8053   12.2409   10.6622 H   0  0  0  0  0  0  0  0  0  0  0  0  # atno 1886 bound_to 1878
   10.4663    3.3414   -3.3686 H   0  0  0  0  0  0  0  0  0  0  0  0  # atno 2577 bound_to 2569
    7.6898    5.1817    0.7535 H   0  0  0  0  0  0  0  0  0  0  0  0  # atno 2891 bound_to 2887
   18.8189    2.4982   -1.3944 H   0  0  0  0  0  0  0  0  0  0  0  0  # atno 3175 bound_to 3171
   13.6600    9.8145   10.4753 H   0  0  0  0  0  0  0  0  0  0  0  0  # atno 5278 bound_to 5270
   15.9821   13.6894    7.4545 LP  0  0  0  0  0  0  0  0  0  0  0  0  # atno 5914 bound_to 677 
   17.3017   13.5536    6.5023 LP  0  0  0  0  0  0  0  0  0  0  0  0  # atno 5915 bound_to 677 
   21.0936   11.5414   -1.4835 LP  0  0  0  0  0  0  0  0  0  0  0  0  # atno 5920 bound_to 698 
   19.5034   11.8279   -1.7198 LP  0  0  0  0  0  0  0  0  0  0  0  0  # atno 5921 bound_to 698 
   10.7966    2.0832   -2.4503 LP  0  0  0  0  0  0  0  0  0  0  0  0  # atno 5950 bound_to 2569
    9.2537    2.4629   -2.8271 LP  0  0  0  0  0  0  0  0  0  0  0  0  # atno 5951 bound_to 2569
    7.2514    6.4618    1.5935 LP  0  0  0  0  0  0  0  0  0  0  0  0  # atno 5982 bound_to 2887
    8.3303    6.5897    0.3745 LP  0  0  0  0  0  0  0  0  0  0  0  0  # atno 5983 bound_to 2887
   19.1800    2.9805    0.0796 LP  0  0  0  0  0  0  0  0  0  0  0  0  # atno 6000 bound_to 3171
   17.9031    1.9992   -0.1911 LP  0  0  0  0  0  0  0  0  0  0  0  0  # atno 6001 bound_to 3171
   14.2700   10.1566    9.0443 LP  0  0  0  0  0  0  0  0  0  0  0  0  # atno 6004 bound_to 5270
   12.6543   10.0841    9.2700 LP  0  0  0  0  0  0  0  0  0  0  0  0  # atno 6005 bound_to 5270
   11.1013   19.6524    8.6956 LP  0  0  0  0  0  0  0  0  0  0  0  0  # atno 6055 bound_to 637 
    9.5490   19.4934    8.2144 LP  0  0  0  0  0  0  0  0  0  0  0  0  # atno 6056 bound_to 637 
    1.9095   10.6793   10.3688 LP  0  0  0  0  0  0  0  0  0  0  0  0  # atno 6063 bound_to 1878
    0.5754   11.3133   11.0651 LP  0  0  0  0  0  0  0  0  0  0  0  0  # atno 6064 bound_to 1878
   -6.6648   15.4113   -1.1596 LP  0  0  0  0  0  0  0  0  0  0  0  0  # atno 6067 bound_to 957 
   -6.5877   17.0368   -1.2951 LP  0  0  0  0  0  0  0  0  0  0  0  0  # atno 6068 bound_to 957 

>  <STRIFE_LigEff_Score>  (91) 
2.9096411764705885

$$$$
unknown|pharmsElabsTestMulti|sdf|87|dock10
     RDKit          3D

 17 17  0  0  0  0  0  0  0  0999 V2000
   14.5830    7.5151    2.8698 C   0  0  0  0  0  0  0  0  0  0  0  0
   13.3439    7.6061    1.9796 C   0  0  0  0  0  0  0  0  0  0  0  0
   13.4199    8.7732    1.0902 N   0  0  0  0  0  0  0  0  0  0  0  0
   11.9600    7.4679    2.6441 C   0  0  0  0  0  0  0  0  0  0  0  0
   10.7008    7.2610    1.7605 C   0  0  0  0  0  0  0  0  0  0  0  0
    9.6005    8.2984    1.9312 C   0  0  0  0  0  0  0  0  0  0  0  0
    9.3382    8.5978    3.4051 C   0  0  0  0  0  0  0  0  0  0  0  0
    8.1507    9.5094    3.5530 C   0  0  0  0  0  0  0  0  0  0  0  0
    7.5830    9.9895    2.5320 O   0  0  0  0  0  0  0  0  0  0  0  0
    7.6841    9.8468    4.8610 N   0  0  0  0  0  0  0  0  0  0  0  0
    6.5173   10.6976    5.0609 C   0  0  0  0  0  0  0  0  0  0  0  0
    5.2807    9.9638    4.6556 C   0  0  0  0  0  0  0  0  0  0  0  0
    5.2800    9.2794    3.5976 O   0  0  0  0  0  0  0  0  0  0  0  0
    4.1296    9.9783    5.5019 N   0  0  0  0  0  0  0  0  0  0  0  0
    3.0159    9.2873    5.1628 O   0  0  0  0  0  0  0  0  0  0  0  0
   10.5790    9.2423    4.0127 C   0  0  0  0  0  0  0  0  0  0  0  0
   11.7982    8.3254    3.9367 C   0  0  0  0  0  0  0  0  0  0  0  0
  1  2  1  0
  2  3  1  0
  2  4  1  0
  4  5  1  0
  5  6  1  0
  6  7  1  0
  7  8  1  0
  8  9  2  0
  8 10  1  0
 10 11  1  0
 11 12  1  0
 12 13  2  0
 12 14  1  0
 14 15  1  0
  7 16  1  0
 16 17  1  0
 17  4  1  0
M  CHG  1   3   1
M  END
>  <EmbedRMS>  (92) 
0.20786673572978834

>  <Gold.Version>  (92) 
2020.3.0

>  <Gold.Id.Protein>  (92) 
unknown|1q8t_protein|pdb

>  <Gold.PLP.Fitness>  (92) 
44.0504

>  <Gold.PLP.PLP>  (92) 
-33.4464

>  <Gold.PLP.part.hbond>  (92) 
-3.0000

>  <Gold.PLP.part.metal>  (92) 
0.0000

>  <Gold.PLP.part.buried>  (92) 
-6.1286

>  <Gold.PLP.part.nonpolar>  (92) 
-24.6077

>  <Gold.PLP.part.repulsive>  (92) 
0.0598

>  <Gold.PLP.ligand.clash>  (92) 
0.0000

>  <Gold.PLP.ligand.torsion>  (92) 
0.4937

>  <Gold.PLP.Chemscore.Hbond>  (92) 
3.7264

>  <Gold.PLP.Chemscore.CHOScore>  (92) 
0.0000

>  <Gold.PLP.Chemscore.Metal>  (92) 
0.0000

>  <Gold.Chemscore.Hbonds>  (92) 
donor molecule, donor type, donor heavy atom, donor atom, acceptor molecule, acceptor atom, score
      L1  H     3    24       P1  2902  2.00
      L1  H    15    35       P1  1891  0.78
      P1  H  1888  1903       L1    15  0.94

>  <Gold.PLP.Chemscore.Internal.Correction>  (92) 
0.4123

>  <Gold.PLP.Constraint>  (92) 
-0.0000

>  <Gold.Protein.RotatedTorsions>  (92) 
[  681  677  676  673 ] final -150.87 input -179.99 | X-H torsion
[  702  698  697  694 ] final -151.06 input  179.99 | X-H torsion
[ 2577 2569 2568 2566 ] final  -97.77 input   -0.13 | X-H torsion
[ 2891 2887 2886 2883 ] final   -2.78 input  179.98 | X-H torsion
[ 3175 3171 3170 3167 ] final -171.10 input -179.99 | X-H torsion
[ 5278 5270 5269 5267 ] final   -7.48 input    0.55 | X-H torsion
[  641  637  636  633 ] final  122.68 input  179.99 | X-H torsion
[ 1886 1878 1877 1875 ] final -167.37 input    1.60 | X-H torsion
[  965  957  956  954 ] final -116.57 input    0.45 | X-H torsion

>  <Gold.Protein.ActiveResidues>  (92) 
 LYS47   THR48   LEU49   GLY50   THR51   GLY52   SER53   PHE54   GLY55   ARG56  
 VAL57   MET58   LEU59   TYR69   ALA70   MET71   LYS72   ILE73   LEU74   GLU91  
 LEU95   VAL104  LYS105  MET118  VAL119  MET120  GLU121  TYR122  VAL123  PRO124 
 GLY125  GLY126  GLU127  MET128  PHE129  TYR164  ASP166  LEU167  LYS168  PRO169 
 GLU170  ASN171  LEU172  LEU173  ILE174  GLN181  VAL182  THR183  ASP184  PHE185 
 GLY186  PHE187  GLY200  THR201  ASN326  PHE327  TYR330  ARG18   ARG19   ASN20  
 ALA21   ILE22   HIS23  

>  <Gold.Protein.RotatedAtoms>  (92) 
   10.8226   19.7060    8.8064 H   0  0  0  0  0  0  0  0  0  0  0  0  # atno 641  bound_to 637 
   16.6335   13.9529    7.2865 H   0  0  0  0  0  0  0  0  0  0  0  0  # atno 681  bound_to 677 
   21.1126   11.5495   -1.2066 H   0  0  0  0  0  0  0  0  0  0  0  0  # atno 702  bound_to 698 
   -6.5220   16.8593   -1.4036 H   0  0  0  0  0  0  0  0  0  0  0  0  # atno 965  bound_to 957 
    0.6110   11.3444   11.0358 H   0  0  0  0  0  0  0  0  0  0  0  0  # atno 1886 bound_to 1878
   11.0174    2.9167   -3.0333 H   0  0  0  0  0  0  0  0  0  0  0  0  # atno 2577 bound_to 2569
    8.0589    5.4029    0.3790 H   0  0  0  0  0  0  0  0  0  0  0  0  # atno 2891 bound_to 2887
   18.2441    2.2893    0.2615 H   0  0  0  0  0  0  0  0  0  0  0  0  # atno 3175 bound_to 3171
   12.7014    9.9359    9.9427 H   0  0  0  0  0  0  0  0  0  0  0  0  # atno 5278 bound_to 5270
   17.0581   12.9882    6.0927 LP  0  0  0  0  0  0  0  0  0  0  0  0  # atno 5914 bound_to 677 
   15.6089   12.8235    6.8272 LP  0  0  0  0  0  0  0  0  0  0  0  0  # atno 5915 bound_to 677 
   19.7055   11.7957   -1.9114 LP  0  0  0  0  0  0  0  0  0  0  0  0  # atno 5920 bound_to 698 
   19.8285   11.7425   -0.2840 LP  0  0  0  0  0  0  0  0  0  0  0  0  # atno 5921 bound_to 698 
   10.0150    1.8763   -2.3640 LP  0  0  0  0  0  0  0  0  0  0  0  0  # atno 5950 bound_to 2569
    9.4551    3.1169   -3.2664 LP  0  0  0  0  0  0  0  0  0  0  0  0  # atno 5951 bound_to 2569
    7.1345    5.8730    1.5878 LP  0  0  0  0  0  0  0  0  0  0  0  0  # atno 5982 bound_to 2887
    8.0587    6.9457    0.7743 LP  0  0  0  0  0  0  0  0  0  0  0  0  # atno 5983 bound_to 2887
   18.2961    2.1420   -1.3232 LP  0  0  0  0  0  0  0  0  0  0  0  0  # atno 6000 bound_to 3171
   19.3919    3.0575   -0.5309 LP  0  0  0  0  0  0  0  0  0  0  0  0  # atno 6001 bound_to 3171
   14.2766    9.8787   10.1713 LP  0  0  0  0  0  0  0  0  0  0  0  0  # atno 6004 bound_to 5270
   13.6562   10.2343    8.7033 LP  0  0  0  0  0  0  0  0  0  0  0  0  # atno 6005 bound_to 5270
    9.5343   19.3540    7.9397 LP  0  0  0  0  0  0  0  0  0  0  0  0  # atno 6055 bound_to 637 
   11.0321   18.9937    7.3980 LP  0  0  0  0  0  0  0  0  0  0  0  0  # atno 6056 bound_to 637 
    1.8517   12.2714   10.6659 LP  0  0  0  0  0  0  0  0  0  0  0  0  # atno 6063 bound_to 1878
    1.8904   10.6650   10.3748 LP  0  0  0  0  0  0  0  0  0  0  0  0  # atno 6064 bound_to 1878
   -7.1878   16.5715    0.0138 LP  0  0  0  0  0  0  0  0  0  0  0  0  # atno 6067 bound_to 957 
   -6.7513   15.3443   -0.9710 LP  0  0  0  0  0  0  0  0  0  0  0  0  # atno 6068 bound_to 957 

>  <STRIFE_LigEff_Score>  (92) 
2.5912

$$$$
unknown|pharmsElabsTestMulti|sdf|88|dock1
     RDKit          3D

 18 18  0  0  0  0  0  0  0  0999 V2000
   13.9340    7.2415    3.5868 C   0  0  0  0  0  0  0  0  0  0  0  0
   13.5275    7.8999    2.2560 C   0  0  0  0  0  0  0  0  0  0  0  0
   13.7136    6.9353    1.1633 N   0  0  0  0  0  0  0  0  0  0  0  0
   12.0602    8.4372    2.3371 C   0  0  0  0  0  0  0  0  0  0  0  0
   11.0866    7.2909    2.0080 C   0  0  0  0  0  0  0  0  0  0  0  0
    9.6269    7.7254    1.9511 C   0  0  0  0  0  0  0  0  0  0  0  0
    9.3052    8.9409    2.8060 C   0  0  0  0  0  0  0  0  0  0  0  0
    7.8356    9.1982    2.9491 C   0  0  0  0  0  0  0  0  0  0  0  0
    7.1270    8.7743    2.0040 O   0  0  0  0  0  0  0  0  0  0  0  0
    7.2034    9.8726    4.0496 N   0  0  0  0  0  0  0  0  0  0  0  0
    5.7726   10.2024    3.9922 C   0  0  0  0  0  0  0  0  0  0  0  0
    4.9412    8.9271    3.7533 C   0  0  0  0  0  0  0  0  0  0  0  0
    3.7165    9.1345    2.8288 C   0  0  0  0  0  0  0  0  0  0  0  0
    4.0481   10.0915    1.6750 C   0  0  0  0  0  0  0  0  0  0  0  0
    2.6448    9.6757    3.5598 O   0  0  0  0  0  0  0  0  0  0  0  0
    3.3175    7.8932    2.2963 O   0  0  0  0  0  0  0  0  0  0  0  0
   10.2164    9.3681    3.9414 C   0  0  0  0  0  0  0  0  0  0  0  0
   11.7056    9.0159    3.7307 C   0  0  0  0  0  0  0  0  0  0  0  0
  1  2  1  0
  2  3  1  0
  2  4  1  0
  4  5  1  0
  5  6  1  0
  6  7  1  0
  7  8  1  0
  8  9  2  0
  8 10  1  0
 10 11  1  0
 11 12  1  0
 12 13  1  0
 13 14  1  0
 13 15  1  0
 13 16  1  0
  7 17  1  0
 17 18  1  0
 18  4  1  0
M  CHG  1   3   1
M  END
>  <EmbedRMS>  (93) 
0.17853379055345855

>  <Gold.Version>  (93) 
2020.3.0

>  <Gold.Id.Protein>  (93) 
unknown|1q8t_protein|pdb

>  <Gold.PLP.Fitness>  (93) 
52.1542

>  <Gold.PLP.PLP>  (93) 
-37.3432

>  <Gold.PLP.part.hbond>  (93) 
-4.8974

>  <Gold.PLP.part.metal>  (93) 
0.0000

>  <Gold.PLP.part.buried>  (93) 
-0.8684

>  <Gold.PLP.part.nonpolar>  (93) 
-31.1633

>  <Gold.PLP.part.repulsive>  (93) 
0.0643

>  <Gold.PLP.ligand.clash>  (93) 
0.0000

>  <Gold.PLP.ligand.torsion>  (93) 
1.4236

>  <Gold.PLP.Chemscore.Hbond>  (93) 
5.6069

>  <Gold.PLP.Chemscore.CHOScore>  (93) 
0.0000

>  <Gold.PLP.Chemscore.Metal>  (93) 
0.0000

>  <Gold.Chemscore.Hbonds>  (93) 
donor molecule, donor type, donor heavy atom, donor atom, acceptor molecule, acceptor atom, score
      L1  H     3    23       P1  2691  1.00
      L1  H     3    24       P1  2902  2.00
      L1  H    15    40       P1  1855  0.84
      P1  H  2887  2891       L1     9  1.00
      P1  H  1888  1903       L1    15  0.76

>  <Gold.PLP.Chemscore.Internal.Correction>  (93) 
0.8375

>  <Gold.PLP.Constraint>  (93) 
-0.0000

>  <Gold.Protein.RotatedTorsions>  (93) 
[  681  677  676  673 ] final  -21.84 input -179.99 | X-H torsion
[  702  698  697  694 ] final   38.04 input  179.99 | X-H torsion
[ 2577 2569 2568 2566 ] final  146.63 input   -0.13 | X-H torsion
[ 2891 2887 2886 2883 ] final  158.97 input  179.98 | X-H torsion
[ 3175 3171 3170 3167 ] final  153.83 input -179.99 | X-H torsion
[ 5278 5270 5269 5267 ] final  -87.85 input    0.55 | X-H torsion
[  641  637  636  633 ] final  -61.68 input  179.99 | X-H torsion
[ 1886 1878 1877 1875 ] final   -0.00 input    1.60 | X-H torsion
[  965  957  956  954 ] final  164.29 input    0.45 | X-H torsion

>  <Gold.Protein.ActiveResidues>  (93) 
 LYS47   THR48   LEU49   GLY50   THR51   GLY52   SER53   PHE54   GLY55   ARG56  
 VAL57   MET58   LEU59   TYR69   ALA70   MET71   LYS72   ILE73   LEU74   GLU91  
 LEU95   VAL104  LYS105  MET118  VAL119  MET120  GLU121  TYR122  VAL123  PRO124 
 GLY125  GLY126  GLU127  MET128  PHE129  TYR164  ASP166  LEU167  LYS168  PRO169 
 GLU170  ASN171  LEU172  LEU173  ILE174  GLN181  VAL182  THR183  ASP184  PHE185 
 GLY186  PHE187  GLY200  THR201  ASN326  PHE327  TYR330  ARG18   ARG19   ASN20  
 ALA21   ILE22   HIS23  

>  <Gold.Protein.RotatedAtoms>  (93) 
   10.1782   18.9756    7.3054 H   0  0  0  0  0  0  0  0  0  0  0  0  # atno 641  bound_to 637 
   15.6884   12.7762    6.7054 H   0  0  0  0  0  0  0  0  0  0  0  0  # atno 681  bound_to 677 
   19.3532   11.8614   -1.2055 H   0  0  0  0  0  0  0  0  0  0  0  0  # atno 702  bound_to 698 
   -6.9871   17.0409   -0.3780 H   0  0  0  0  0  0  0  0  0  0  0  0  # atno 965  bound_to 957 
    2.2379   11.3155   10.3136 H   0  0  0  0  0  0  0  0  0  0  0  0  # atno 1886 bound_to 1878
   10.0922    1.9002   -2.3953 H   0  0  0  0  0  0  0  0  0  0  0  0  # atno 2577 bound_to 2569
    7.6115    6.8761    1.2503 H   0  0  0  0  0  0  0  0  0  0  0  0  # atno 2891 bound_to 2887
   17.9713    2.0360   -0.1294 H   0  0  0  0  0  0  0  0  0  0  0  0  # atno 3175 bound_to 3171
   13.7273    9.8182   10.4633 H   0  0  0  0  0  0  0  0  0  0  0  0  # atno 5278 bound_to 5270
   16.5169   13.9540    7.3855 LP  0  0  0  0  0  0  0  0  0  0  0  0  # atno 5914 bound_to 677 
   17.1448   13.0961    6.1460 LP  0  0  0  0  0  0  0  0  0  0  0  0  # atno 5915 bound_to 677 
   20.6265   11.6011   -0.2844 LP  0  0  0  0  0  0  0  0  0  0  0  0  # atno 5920 bound_to 698 
   20.7584   11.6091   -1.9121 LP  0  0  0  0  0  0  0  0  0  0  0  0  # atno 5921 bound_to 698 
    9.4109    3.0683   -3.2359 LP  0  0  0  0  0  0  0  0  0  0  0  0  # atno 5950 bound_to 2569
   11.0334    2.9952   -3.0663 LP  0  0  0  0  0  0  0  0  0  0  0  0  # atno 5951 bound_to 2569
    8.3597    5.9548    0.1883 LP  0  0  0  0  0  0  0  0  0  0  0  0  # atno 5982 bound_to 2887
    7.3045    5.3134    1.2569 LP  0  0  0  0  0  0  0  0  0  0  0  0  # atno 5983 bound_to 2887
   18.7485    2.4602   -1.4529 LP  0  0  0  0  0  0  0  0  0  0  0  0  # atno 6000 bound_to 3171
   19.2265    3.0058    0.0101 LP  0  0  0  0  0  0  0  0  0  0  0  0  # atno 6001 bound_to 3171
   14.2231   10.1693    8.9910 LP  0  0  0  0  0  0  0  0  0  0  0  0  # atno 6004 bound_to 5270
   12.6302   10.0676    9.3359 LP  0  0  0  0  0  0  0  0  0  0  0  0  # atno 6005 bound_to 5270
   11.3938   19.4036    8.2404 LP  0  0  0  0  0  0  0  0  0  0  0  0  # atno 6055 bound_to 637 
    9.8513   19.7133    8.6780 LP  0  0  0  0  0  0  0  0  0  0  0  0  # atno 6056 bound_to 637 
    0.8700   10.6831   10.8278 LP  0  0  0  0  0  0  0  0  0  0  0  0  # atno 6063 bound_to 1878
    1.1595   12.2837   10.9731 LP  0  0  0  0  0  0  0  0  0  0  0  0  # atno 6064 bound_to 1878
   -7.0196   15.4490   -0.3793 LP  0  0  0  0  0  0  0  0  0  0  0  0  # atno 6067 bound_to 957 
   -6.4297   16.2756   -1.6581 LP  0  0  0  0  0  0  0  0  0  0  0  0  # atno 6068 bound_to 957 

>  <STRIFE_LigEff_Score>  (93) 
2.8974555555555557

$$$$
unknown|pharmsElabsTestMulti|sdf|89|dock5
     RDKit          3D

 18 19  0  0  0  0  0  0  0  0999 V2000
   13.8383    8.2693    3.4835 C   0  0  0  0  0  0  0  0  0  0  0  0
   12.9715    8.4044    2.2201 C   0  0  0  0  0  0  0  0  0  0  0  0
   13.3839    7.4169    1.2181 N   0  0  0  0  0  0  0  0  0  0  0  0
   11.4162    8.4254    2.4406 C   0  0  0  0  0  0  0  0  0  0  0  0
   10.6079    8.0060    1.2138 C   0  0  0  0  0  0  0  0  0  0  0  0
    9.1003    7.9710    1.4136 C   0  0  0  0  0  0  0  0  0  0  0  0
    8.5819    9.1372    2.2206 C   0  0  0  0  0  0  0  0  0  0  0  0
    7.0874    9.2836    2.1878 C   0  0  0  0  0  0  0  0  0  0  0  0
    6.4556    8.3128    2.6722 O   0  0  0  0  0  0  0  0  0  0  0  0
    6.3468   10.4010    1.6647 N   0  0  0  0  0  0  0  0  0  0  0  0
    4.8782   10.3060    1.6307 C   0  0  0  0  0  0  0  0  0  0  0  0
    4.3037   10.0055    2.9734 C   0  0  0  0  0  0  0  0  0  0  0  0
    5.0318    9.9467    4.1050 N   0  0  0  0  0  0  0  0  0  0  0  0
    4.0961    9.6231    5.0231 C   0  0  0  0  0  0  0  0  0  0  0  0
    2.8684    9.4906    4.4831 N   0  0  0  0  0  0  0  0  0  0  0  0
    3.0089    9.7337    3.1942 N   0  0  0  0  0  0  0  0  0  0  0  0
    9.3001    9.4638    3.5105 C   0  0  0  0  0  0  0  0  0  0  0  0
   10.8214    9.5520    3.3084 C   0  0  0  0  0  0  0  0  0  0  0  0
  1  2  1  0
  2  3  1  0
  2  4  1  0
  4  5  1  0
  5  6  1  0
  6  7  1  0
  7  8  1  0
  8  9  2  0
  8 10  1  0
 10 11  1  0
 11 12  1  0
 12 13  2  0
 13 14  1  0
 14 15  2  0
 15 16  1  0
  7 17  1  0
 17 18  1  0
 18  4  1  0
 16 12  1  0
M  CHG  1   3   1
M  END
>  <EmbedRMS>  (94) 
0.26092352120004825

>  <Gold.Version>  (94) 
2020.3.0

>  <Gold.Id.Protein>  (94) 
unknown|1q8t_protein|pdb

>  <Gold.PLP.Fitness>  (94) 
46.7169

>  <Gold.PLP.PLP>  (94) 
-32.3313

>  <Gold.PLP.part.hbond>  (94) 
-4.8609

>  <Gold.PLP.part.metal>  (94) 
0.0000

>  <Gold.PLP.part.buried>  (94) 
-1.4528

>  <Gold.PLP.part.nonpolar>  (94) 
-27.6145

>  <Gold.PLP.part.repulsive>  (94) 
0.3079

>  <Gold.PLP.ligand.clash>  (94) 
0.0000

>  <Gold.PLP.ligand.torsion>  (94) 
0.7050

>  <Gold.PLP.Chemscore.Hbond>  (94) 
4.9920

>  <Gold.PLP.Chemscore.CHOScore>  (94) 
0.0000

>  <Gold.PLP.Chemscore.Metal>  (94) 
0.0000

>  <Gold.Chemscore.Hbonds>  (94) 
donor molecule, donor type, donor heavy atom, donor atom, acceptor molecule, acceptor atom, score
      L1  H     3    23       P1  2902  2.00
      L1  H     3    24       P1  2691  0.99
      L1  H    16    36       P1  1855  1.00
      P1  H  1888  1903       L1    15  1.00

>  <Gold.PLP.Chemscore.Internal.Correction>  (94) 
0.8196

>  <Gold.PLP.Constraint>  (94) 
-0.0000

>  <Gold.Protein.RotatedTorsions>  (94) 
[  681  677  676  673 ] final   62.73 input -179.99 | X-H torsion
[  702  698  697  694 ] final   14.65 input  179.99 | X-H torsion
[ 2577 2569 2568 2566 ] final -112.88 input   -0.13 | X-H torsion
[ 2891 2887 2886 2883 ] final   83.12 input  179.98 | X-H torsion
[ 3175 3171 3170 3167 ] final  161.68 input -179.99 | X-H torsion
[ 5278 5270 5269 5267 ] final -146.90 input    0.55 | X-H torsion
[  641  637  636  633 ] final  -34.16 input  179.99 | X-H torsion
[ 1886 1878 1877 1875 ] final -108.85 input    1.60 | X-H torsion
[  965  957  956  954 ] final  -83.66 input    0.45 | X-H torsion

>  <Gold.Protein.ActiveResidues>  (94) 
 LYS47   THR48   LEU49   GLY50   THR51   GLY52   SER53   PHE54   GLY55   ARG56  
 VAL57   MET58   LEU59   TYR69   ALA70   MET71   LYS72   ILE73   LEU74   GLU91  
 LEU95   VAL104  LYS105  MET118  VAL119  MET120  GLU121  TYR122  VAL123  PRO124 
 GLY125  GLY126  GLU127  MET128  PHE129  TYR164  ASP166  LEU167  LYS168  PRO169 
 GLU170  ASN171  LEU172  LEU173  ILE174  GLN181  VAL182  THR183  ASP184  PHE185 
 GLY186  PHE187  GLY200  THR201  ASN326  PHE327  TYR330  ARG18   ARG19   ASN20  
 ALA21   ILE22   HIS23  

>  <Gold.Protein.RotatedAtoms>  (94) 
    9.8203   19.0961    7.5024 H   0  0  0  0  0  0  0  0  0  0  0  0  # atno 641  bound_to 637 
   16.7050   12.7583    6.0579 H   0  0  0  0  0  0  0  0  0  0  0  0  # atno 681  bound_to 677 
   19.3967   11.8467   -0.8451 H   0  0  0  0  0  0  0  0  0  0  0  0  # atno 702  bound_to 698 
   -6.4375   16.3991   -1.5990 H   0  0  0  0  0  0  0  0  0  0  0  0  # atno 965  bound_to 957 
    1.0214   10.6327   10.7335 H   0  0  0  0  0  0  0  0  0  0  0  0  # atno 1886 bound_to 1878
   11.0684    2.7296   -2.8997 H   0  0  0  0  0  0  0  0  0  0  0  0  # atno 2577 bound_to 2569
    8.2760    6.6037    0.4153 H   0  0  0  0  0  0  0  0  0  0  0  0  # atno 2891 bound_to 2887
   18.0134    2.0811   -0.0233 H   0  0  0  0  0  0  0  0  0  0  0  0  # atno 3175 bound_to 3171
   14.3811    9.9667    9.8887 H   0  0  0  0  0  0  0  0  0  0  0  0  # atno 5278 bound_to 5270
   15.5910   13.1235    7.1357 LP  0  0  0  0  0  0  0  0  0  0  0  0  # atno 5914 bound_to 677 
   17.0008   13.9455    7.0773 LP  0  0  0  0  0  0  0  0  0  0  0  0  # atno 5915 bound_to 677 
   20.9271   11.5523   -0.5154 LP  0  0  0  0  0  0  0  0  0  0  0  0  # atno 5920 bound_to 698 
   20.4120   11.6734   -2.0603 LP  0  0  0  0  0  0  0  0  0  0  0  0  # atno 5921 bound_to 698 
    9.7789    1.9294   -2.4181 LP  0  0  0  0  0  0  0  0  0  0  0  0  # atno 5950 bound_to 2569
    9.6375    3.2608   -3.3530 LP  0  0  0  0  0  0  0  0  0  0  0  0  # atno 5951 bound_to 2569
    7.7320    5.1381    0.7197 LP  0  0  0  0  0  0  0  0  0  0  0  0  # atno 5982 bound_to 2887
    7.2329    6.4168    1.6042 LP  0  0  0  0  0  0  0  0  0  0  0  0  # atno 5983 bound_to 2887
   18.6448    2.3833   -1.4536 LP  0  0  0  0  0  0  0  0  0  0  0  0  # atno 6000 bound_to 3171
   19.2859    3.0353   -0.1007 LP  0  0  0  0  0  0  0  0  0  0  0  0  # atno 6001 bound_to 3171
   13.3384   10.2285    8.7135 LP  0  0  0  0  0  0  0  0  0  0  0  0  # atno 6004 bound_to 5270
   12.8270    9.8521   10.2180 LP  0  0  0  0  0  0  0  0  0  0  0  0  # atno 6005 bound_to 5270
   11.3726   19.2008    7.8409 LP  0  0  0  0  0  0  0  0  0  0  0  0  # atno 6055 bound_to 637 
   10.2494   19.7891    8.8701 LP  0  0  0  0  0  0  0  0  0  0  0  0  # atno 6056 bound_to 637 
    1.0065   12.1978   11.0259 LP  0  0  0  0  0  0  0  0  0  0  0  0  # atno 6063 bound_to 1878
    2.3035   11.4878   10.3330 LP  0  0  0  0  0  0  0  0  0  0  0  0  # atno 6064 bound_to 1878
   -7.0569   17.0080   -0.2647 LP  0  0  0  0  0  0  0  0  0  0  0  0  # atno 6067 bound_to 957 
   -6.9712   15.3925   -0.4868 LP  0  0  0  0  0  0  0  0  0  0  0  0  # atno 6068 bound_to 957 

>  <STRIFE_LigEff_Score>  (94) 
2.5953833333333334

$$$$
unknown|pharmsElabsTestMulti|sdf|90|dock2
     RDKit          3D

 17 17  0  0  0  0  0  0  0  0999 V2000
    3.5181    9.3463    2.9529 C   0  0  0  0  0  0  0  0  0  0  0  0
    3.6112    8.9022    4.4035 C   0  0  0  0  0  0  0  0  0  0  0  0
    4.0774   10.0089    5.2462 N   0  0  0  0  0  0  0  0  0  0  0  0
    5.5414    9.9750    5.3067 C   0  0  0  0  0  0  0  0  0  0  0  0
    6.1545   10.3855    3.9639 C   0  0  0  0  0  0  0  0  0  0  0  0
    7.5907   10.0721    3.9409 N   0  0  0  0  0  0  0  0  0  0  0  0
    8.1302    9.2236    2.9131 C   0  0  0  0  0  0  0  0  0  0  0  0
    7.3521    8.7143    2.0688 O   0  0  0  0  0  0  0  0  0  0  0  0
    9.5804    8.8947    2.7233 C   0  0  0  0  0  0  0  0  0  0  0  0
    9.8947    7.4005    2.6166 C   0  0  0  0  0  0  0  0  0  0  0  0
   11.4010    7.0672    2.6035 C   0  0  0  0  0  0  0  0  0  0  0  0
   12.2284    8.2555    2.0876 C   0  0  0  0  0  0  0  0  0  0  0  0
   13.7043    7.9850    1.6615 C   0  0  0  0  0  0  0  0  0  0  0  0
   14.5775    9.1993    1.3949 C   0  0  0  0  0  0  0  0  0  0  0  0
   13.9505    6.8486    0.7801 N   0  0  0  0  0  0  0  0  0  0  0  0
   12.0688    9.4529    3.0465 C   0  0  0  0  0  0  0  0  0  0  0  0
   10.6022    9.8578    3.3049 C   0  0  0  0  0  0  0  0  0  0  0  0
  1  2  1  0
  2  3  1  0
  3  4  1  0
  4  5  1  0
  5  6  1  0
  6  7  1  0
  7  8  2  0
  7  9  1  0
  9 10  1  0
 10 11  1  0
 11 12  1  0
 12 13  1  0
 13 14  1  0
 13 15  1  0
 12 16  1  0
 16 17  1  0
 17  9  1  0
M  CHG  1  15   1
M  END
>  <EmbedRMS>  (95) 
0.25842907567579826

>  <Gold.Version>  (95) 
2020.3.0

>  <Gold.Id.Protein>  (95) 
unknown|1q8t_protein|pdb

>  <Gold.PLP.Fitness>  (95) 
51.3068

>  <Gold.PLP.PLP>  (95) 
-39.6555

>  <Gold.PLP.part.hbond>  (95) 
-2.9836

>  <Gold.PLP.part.metal>  (95) 
0.0000

>  <Gold.PLP.part.buried>  (95) 
-2.6854

>  <Gold.PLP.part.nonpolar>  (95) 
-34.1155

>  <Gold.PLP.part.repulsive>  (95) 
0.0889

>  <Gold.PLP.ligand.clash>  (95) 
0.0000

>  <Gold.PLP.ligand.torsion>  (95) 
0.8088

>  <Gold.PLP.Chemscore.Hbond>  (95) 
4.0000

>  <Gold.PLP.Chemscore.CHOScore>  (95) 
0.0000

>  <Gold.PLP.Chemscore.Metal>  (95) 
0.0000

>  <Gold.Chemscore.Hbonds>  (95) 
donor molecule, donor type, donor heavy atom, donor atom, acceptor molecule, acceptor atom, score
      L1  H    15    40       P1  2691  1.00
      L1  H    15    41       P1  2902  2.00
      P1  H  2887  2891       L1     8  1.00

>  <Gold.PLP.Chemscore.Internal.Correction>  (95) 
1.2689

>  <Gold.PLP.Constraint>  (95) 
-0.0000

>  <Gold.Protein.RotatedTorsions>  (95) 
[  681  677  676  673 ] final  -64.05 input -179.99 | X-H torsion
[  702  698  697  694 ] final -106.49 input  179.99 | X-H torsion
[ 2577 2569 2568 2566 ] final   35.34 input   -0.13 | X-H torsion
[ 2891 2887 2886 2883 ] final  151.13 input  179.98 | X-H torsion
[ 3175 3171 3170 3167 ] final  -83.89 input -179.99 | X-H torsion
[ 5278 5270 5269 5267 ] final -163.39 input    0.55 | X-H torsion
[  641  637  636  633 ] final   89.15 input  179.99 | X-H torsion
[ 1886 1878 1877 1875 ] final   91.89 input    1.60 | X-H torsion
[  965  957  956  954 ] final  156.71 input    0.45 | X-H torsion

>  <Gold.Protein.ActiveResidues>  (95) 
 LYS47   THR48   LEU49   GLY50   THR51   GLY52   SER53   PHE54   GLY55   ARG56  
 VAL57   MET58   LEU59   TYR69   ALA70   MET71   LYS72   ILE73   LEU74   GLU91  
 LEU95   VAL104  LYS105  MET118  VAL119  MET120  GLU121  TYR122  VAL123  PRO124 
 GLY125  GLY126  GLU127  MET128  PHE129  TYR164  ASP166  LEU167  LYS168  PRO169 
 GLU170  ASN171  LEU172  LEU173  ILE174  GLN181  VAL182  THR183  ASP184  PHE185 
 GLY186  PHE187  GLY200  THR201  ASN326  PHE327  TYR330  ARG18   ARG19   ASN20  
 ALA21   ILE22   HIS23  

>  <Gold.Protein.RotatedAtoms>  (95) 
   10.3101   19.7555    8.8473 H   0  0  0  0  0  0  0  0  0  0  0  0  # atno 641  bound_to 637 
   15.6499   13.2214    7.1706 H   0  0  0  0  0  0  0  0  0  0  0  0  # atno 681  bound_to 677 
   20.9070   11.5735   -0.5592 H   0  0  0  0  0  0  0  0  0  0  0  0  # atno 702  bound_to 698 
   -7.0282   16.9743   -0.2891 H   0  0  0  0  0  0  0  0  0  0  0  0  # atno 965  bound_to 957 
    1.5641   12.3082   10.7800 H   0  0  0  0  0  0  0  0  0  0  0  0  # atno 1886 bound_to 1878
    9.3802    2.9396   -3.1691 H   0  0  0  0  0  0  0  0  0  0  0  0  # atno 2577 bound_to 2569
    7.6918    6.9166    1.1670 H   0  0  0  0  0  0  0  0  0  0  0  0  # atno 2891 bound_to 2887
   19.2249    2.9757   -0.0442 H   0  0  0  0  0  0  0  0  0  0  0  0  # atno 3175 bound_to 3171
   14.4258   10.0278    9.6430 H   0  0  0  0  0  0  0  0  0  0  0  0  # atno 5278 bound_to 5270
   17.0741   13.9133    6.9999 LP  0  0  0  0  0  0  0  0  0  0  0  0  # atno 5914 bound_to 677 
   16.6280   12.6683    6.0420 LP  0  0  0  0  0  0  0  0  0  0  0  0  # atno 5915 bound_to 677 
   20.3939   11.6766   -2.0637 LP  0  0  0  0  0  0  0  0  0  0  0  0  # atno 5920 bound_to 698 
   19.3565   11.8364   -0.8127 LP  0  0  0  0  0  0  0  0  0  0  0  0  # atno 5921 bound_to 698 
   10.9645    3.0958   -3.1412 LP  0  0  0  0  0  0  0  0  0  0  0  0  # atno 5950 bound_to 2569
   10.2295    1.8734   -2.3462 LP  0  0  0  0  0  0  0  0  0  0  0  0  # atno 5951 bound_to 2569
    8.3295    5.8295    0.1933 LP  0  0  0  0  0  0  0  0  0  0  0  0  # atno 5982 bound_to 2887
    7.2502    5.3961    1.3396 LP  0  0  0  0  0  0  0  0  0  0  0  0  # atno 5983 bound_to 2887
   17.9372    2.0394   -0.0775 LP  0  0  0  0  0  0  0  0  0  0  0  0  # atno 6000 bound_to 3171
   18.7186    2.4378   -1.4549 LP  0  0  0  0  0  0  0  0  0  0  0  0  # atno 6001 bound_to 3171
   13.0842   10.2039    8.8027 LP  0  0  0  0  0  0  0  0  0  0  0  0  # atno 6004 bound_to 5270
   13.0342    9.8125   10.3873 LP  0  0  0  0  0  0  0  0  0  0  0  0  # atno 6005 bound_to 5270
    9.7506   19.1175    7.5001 LP  0  0  0  0  0  0  0  0  0  0  0  0  # atno 6055 bound_to 637 
   11.3556   19.1781    7.7945 LP  0  0  0  0  0  0  0  0  0  0  0  0  # atno 6056 bound_to 637 
    2.1085   10.8855   10.3163 LP  0  0  0  0  0  0  0  0  0  0  0  0  # atno 6063 bound_to 1878
    0.6303   11.0363   10.9937 LP  0  0  0  0  0  0  0  0  0  0  0  0  # atno 6064 bound_to 1878
   -6.9735   15.3947   -0.4817 LP  0  0  0  0  0  0  0  0  0  0  0  0  # atno 6067 bound_to 957 
   -6.4325   16.4000   -1.6494 LP  0  0  0  0  0  0  0  0  0  0  0  0  # atno 6068 bound_to 957 

>  <STRIFE_LigEff_Score>  (95) 
3.0180470588235297

$$$$
unknown|pharmsElabsTestMulti|sdf|91|dock5
     RDKit          3D

 17 17  0  0  0  0  0  0  0  0999 V2000
   15.1638    7.6196    3.1468 C   0  0  0  0  0  0  0  0  0  0  0  0
   14.0557    7.9374    2.1316 C   0  0  0  0  0  0  0  0  0  0  0  0
   14.0676    6.9498    1.0464 N   0  0  0  0  0  0  0  0  0  0  0  0
   12.6177    8.1579    2.7204 C   0  0  0  0  0  0  0  0  0  0  0  0
   11.4848    7.3703    2.0355 C   0  0  0  0  0  0  0  0  0  0  0  0
   10.1156    8.0187    2.1143 C   0  0  0  0  0  0  0  0  0  0  0  0
    9.8503    8.6590    3.4711 C   0  0  0  0  0  0  0  0  0  0  0  0
    8.4337    9.1734    3.5119 C   0  0  0  0  0  0  0  0  0  0  0  0
    7.7259    9.1807    2.4646 O   0  0  0  0  0  0  0  0  0  0  0  0
    7.9018    9.6735    4.7380 N   0  0  0  0  0  0  0  0  0  0  0  0
    6.5373   10.1834    4.8237 C   0  0  0  0  0  0  0  0  0  0  0  0
    5.5616    9.1949    4.1945 C   0  0  0  0  0  0  0  0  0  0  0  0
    4.2431    9.8339    4.0034 N   0  0  0  0  0  0  0  0  0  0  0  0
    3.5992   10.0615    5.3062 C   0  0  0  0  0  0  0  0  0  0  0  0
    3.3811    8.9712    3.1846 C   0  0  0  0  0  0  0  0  0  0  0  0
   10.8294    9.8087    3.7329 C   0  0  0  0  0  0  0  0  0  0  0  0
   12.3064    9.4942    3.4267 C   0  0  0  0  0  0  0  0  0  0  0  0
  1  2  1  0
  2  3  1  0
  2  4  1  0
  4  5  1  0
  5  6  1  0
  6  7  1  0
  7  8  1  0
  8  9  2  0
  8 10  1  0
 10 11  1  0
 11 12  1  0
 12 13  1  0
 13 14  1  0
 13 15  1  0
  7 16  1  0
 16 17  1  0
 17  4  1  0
M  CHG  1   3   1
M  END
>  <EmbedRMS>  (96) 
0.1707968305671159

>  <Gold.Version>  (96) 
2020.3.0

>  <Gold.Id.Protein>  (96) 
unknown|1q8t_protein|pdb

>  <Gold.PLP.Fitness>  (96) 
47.9040

>  <Gold.PLP.PLP>  (96) 
-40.5582

>  <Gold.PLP.part.hbond>  (96) 
-2.0000

>  <Gold.PLP.part.metal>  (96) 
0.0000

>  <Gold.PLP.part.buried>  (96) 
-5.6835

>  <Gold.PLP.part.nonpolar>  (96) 
-33.1867

>  <Gold.PLP.part.repulsive>  (96) 
0.1262

>  <Gold.PLP.ligand.clash>  (96) 
0.0000

>  <Gold.PLP.ligand.torsion>  (96) 
1.1600

>  <Gold.PLP.Chemscore.Hbond>  (96) 
2.9920

>  <Gold.PLP.Chemscore.CHOScore>  (96) 
0.0000

>  <Gold.PLP.Chemscore.Metal>  (96) 
0.0000

>  <Gold.Chemscore.Hbonds>  (96) 
donor molecule, donor type, donor heavy atom, donor atom, acceptor molecule, acceptor atom, score
      L1  H     3    22       P1  2902  2.00
      L1  H     3    24       P1  2691  0.99

>  <Gold.PLP.Chemscore.Internal.Correction>  (96) 
0.6899

>  <Gold.PLP.Constraint>  (96) 
-0.0000

>  <Gold.Protein.RotatedTorsions>  (96) 
[  681  677  676  673 ] final    7.13 input -179.99 | X-H torsion
[  702  698  697  694 ] final  167.31 input  179.99 | X-H torsion
[ 2577 2569 2568 2566 ] final  140.61 input   -0.13 | X-H torsion
[ 2891 2887 2886 2883 ] final  -96.97 input  179.98 | X-H torsion
[ 3175 3171 3170 3167 ] final   44.91 input -179.99 | X-H torsion
[ 5278 5270 5269 5267 ] final   99.38 input    0.55 | X-H torsion
[  641  637  636  633 ] final  -45.56 input  179.99 | X-H torsion
[ 1886 1878 1877 1875 ] final  -31.04 input    1.60 | X-H torsion
[  965  957  956  954 ] final   -7.08 input    0.45 | X-H torsion

>  <Gold.Protein.ActiveResidues>  (96) 
 LYS47   THR48   LEU49   GLY50   THR51   GLY52   SER53   PHE54   GLY55   ARG56  
 VAL57   MET58   LEU59   TYR69   ALA70   MET71   LYS72   ILE73   LEU74   GLU91  
 LEU95   VAL104  LYS105  MET118  VAL119  MET120  GLU121  TYR122  VAL123  PRO124 
 GLY125  GLY126  GLU127  MET128  PHE129  TYR164  ASP166  LEU167  LYS168  PRO169 
 GLU170  ASN171  LEU172  LEU173  ILE174  GLN181  VAL182  THR183  ASP184  PHE185 
 GLY186  PHE187  GLY200  THR201  ASN326  PHE327  TYR330  ARG18   ARG19   ASN20  
 ALA21   ILE22   HIS23  

>  <Gold.Protein.RotatedAtoms>  (96) 
    9.9549   19.0373    7.4019 H   0  0  0  0  0  0  0  0  0  0  0  0  # atno 641  bound_to 637 
   15.9484   12.6106    6.3801 H   0  0  0  0  0  0  0  0  0  0  0  0  # atno 681  bound_to 677 
   20.8455   11.6080   -1.7820 H   0  0  0  0  0  0  0  0  0  0  0  0  # atno 702  bound_to 698 
   -6.6744   15.4374   -1.0987 H   0  0  0  0  0  0  0  0  0  0  0  0  # atno 965  bound_to 957 
    2.0406   10.8789   10.3261 H   0  0  0  0  0  0  0  0  0  0  0  0  # atno 1886 bound_to 1878
    9.9993    1.9085   -2.4078 H   0  0  0  0  0  0  0  0  0  0  0  0  # atno 2577 bound_to 2569
    7.2195    5.5254    1.3806 H   0  0  0  0  0  0  0  0  0  0  0  0  # atno 2891 bound_to 2887
   18.6140    2.3456   -1.4006 H   0  0  0  0  0  0  0  0  0  0  0  0  # atno 3175 bound_to 3171
   13.4448   10.2383    8.7480 H   0  0  0  0  0  0  0  0  0  0  0  0  # atno 5278 bound_to 5270
   16.0908   13.7678    7.4648 LP  0  0  0  0  0  0  0  0  0  0  0  0  # atno 5914 bound_to 677 
   17.2972   13.4567    6.4091 LP  0  0  0  0  0  0  0  0  0  0  0  0  # atno 5915 bound_to 677 
   19.3290   11.8518   -1.3599 LP  0  0  0  0  0  0  0  0  0  0  0  0  # atno 5920 bound_to 698 
   20.4861   11.6249   -0.2302 LP  0  0  0  0  0  0  0  0  0  0  0  0  # atno 5921 bound_to 698 
    9.4725    3.1341   -3.2771 LP  0  0  0  0  0  0  0  0  0  0  0  0  # atno 5950 bound_to 2569
   11.0696    2.9208   -3.0119 LP  0  0  0  0  0  0  0  0  0  0  0  0  # atno 5951 bound_to 2569
    7.7895    6.9850    1.0955 LP  0  0  0  0  0  0  0  0  0  0  0  0  # atno 5982 bound_to 2887
    8.2871    5.7047    0.2125 LP  0  0  0  0  0  0  0  0  0  0  0  0  # atno 5983 bound_to 2887
   19.3069    3.0445   -0.1488 LP  0  0  0  0  0  0  0  0  0  0  0  0  # atno 6000 bound_to 3171
   17.9919    2.0957    0.0438 LP  0  0  0  0  0  0  0  0  0  0  0  0  # atno 6001 bound_to 3171
   12.7626    9.8708   10.1395 LP  0  0  0  0  0  0  0  0  0  0  0  0  # atno 6004 bound_to 5270
   14.3880    9.9241    9.9923 LP  0  0  0  0  0  0  0  0  0  0  0  0  # atno 6005 bound_to 5270
   11.4075   19.2830    8.0057 LP  0  0  0  0  0  0  0  0  0  0  0  0  # atno 6055 bound_to 637 
   10.0727   19.7689    8.8111 LP  0  0  0  0  0  0  0  0  0  0  0  0  # atno 6056 bound_to 637 
    0.6157   11.0801   11.0076 LP  0  0  0  0  0  0  0  0  0  0  0  0  # atno 6063 bound_to 1878
    1.6215   12.3463   10.7802 LP  0  0  0  0  0  0  0  0  0  0  0  0  # atno 6064 bound_to 1878
   -6.5729   17.0097   -1.3282 LP  0  0  0  0  0  0  0  0  0  0  0  0  # atno 6067 bound_to 957 
   -7.2058   16.4037    0.0498 LP  0  0  0  0  0  0  0  0  0  0  0  0  # atno 6068 bound_to 957 

>  <STRIFE_LigEff_Score>  (96) 
2.8178823529411767

$$$$
unknown|pharmsElabsTestMulti|sdf|92|dock2
     RDKit          3D

 18 19  0  0  0  0  0  0  0  0999 V2000
   14.4634    7.5044    3.5211 C   0  0  0  0  0  0  0  0  0  0  0  0
   13.4690    7.8391    2.3967 C   0  0  0  0  0  0  0  0  0  0  0  0
   13.6668    6.9317    1.2624 N   0  0  0  0  0  0  0  0  0  0  0  0
   11.9597    7.9608    2.8144 C   0  0  0  0  0  0  0  0  0  0  0  0
   10.9755    7.5494    1.7199 C   0  0  0  0  0  0  0  0  0  0  0  0
    9.5073    7.6140    2.1126 C   0  0  0  0  0  0  0  0  0  0  0  0
    9.1688    8.8373    2.9288 C   0  0  0  0  0  0  0  0  0  0  0  0
    7.6961    9.0845    3.0770 C   0  0  0  0  0  0  0  0  0  0  0  0
    6.9784    8.4076    2.3040 O   0  0  0  0  0  0  0  0  0  0  0  0
    7.0724    9.9970    4.0020 N   0  0  0  0  0  0  0  0  0  0  0  0
    5.6194   10.2783    3.9699 C   0  0  0  0  0  0  0  0  0  0  0  0
    4.8071    9.2179    4.7569 C   0  0  0  0  0  0  0  0  0  0  0  0
    3.4140    9.1761    4.2954 N   0  0  0  0  0  0  0  0  0  0  0  0
    3.3014    8.7975    2.8709 C   0  0  0  0  0  0  0  0  0  0  0  0
    4.5010    9.1357    2.0812 N   0  0  0  0  0  0  0  0  0  0  0  0
    5.0951   10.4015    2.5216 C   0  0  0  0  0  0  0  0  0  0  0  0
   10.0628    9.1606    4.1039 C   0  0  0  0  0  0  0  0  0  0  0  0
   11.5475    9.1485    3.7066 C   0  0  0  0  0  0  0  0  0  0  0  0
  1  2  1  0
  2  3  1  0
  2  4  1  0
  4  5  1  0
  5  6  1  0
  6  7  1  0
  7  8  1  0
  8  9  2  0
  8 10  1  0
 10 11  1  0
 11 12  1  0
 12 13  1  0
 13 14  1  0
 14 15  1  0
 15 16  1  0
  7 17  1  0
 17 18  1  0
 18  4  1  0
 16 11  1  0
M  CHG  1   3   1
M  END
>  <EmbedRMS>  (97) 
0.26156577150076415

>  <Gold.Version>  (97) 
2020.3.0

>  <Gold.Id.Protein>  (97) 
unknown|1q8t_protein|pdb

>  <Gold.PLP.Fitness>  (97) 
49.1550

>  <Gold.PLP.PLP>  (97) 
-39.0586

>  <Gold.PLP.part.hbond>  (97) 
-3.6473

>  <Gold.PLP.part.metal>  (97) 
0.0000

>  <Gold.PLP.part.buried>  (97) 
-4.1348

>  <Gold.PLP.part.nonpolar>  (97) 
-31.9543

>  <Gold.PLP.part.repulsive>  (97) 
0.0598

>  <Gold.PLP.ligand.clash>  (97) 
0.0000

>  <Gold.PLP.ligand.torsion>  (97) 
1.3473

>  <Gold.PLP.Chemscore.Hbond>  (97) 
3.9913

>  <Gold.PLP.Chemscore.CHOScore>  (97) 
0.0000

>  <Gold.PLP.Chemscore.Metal>  (97) 
0.0000

>  <Gold.Chemscore.Hbonds>  (97) 
donor molecule, donor type, donor heavy atom, donor atom, acceptor molecule, acceptor atom, score
      L1  H     3    23       P1  2691  0.99
      L1  H     3    25       P1  2902  2.00
      P1  H  2887  2891       L1     9  1.00

>  <Gold.PLP.Chemscore.Internal.Correction>  (97) 
0.8172

>  <Gold.PLP.Constraint>  (97) 
-0.0000

>  <Gold.Protein.RotatedTorsions>  (97) 
[  681  677  676  673 ] final  -25.74 input -179.99 | X-H torsion
[  702  698  697  694 ] final  135.36 input  179.99 | X-H torsion
[ 2577 2569 2568 2566 ] final  -69.00 input   -0.13 | X-H torsion
[ 2891 2887 2886 2883 ] final  169.55 input  179.98 | X-H torsion
[ 3175 3171 3170 3167 ] final  -11.77 input -179.99 | X-H torsion
[ 5278 5270 5269 5267 ] final  -68.98 input    0.55 | X-H torsion
[  641  637  636  633 ] final -136.75 input  179.99 | X-H torsion
[ 1886 1878 1877 1875 ] final  -47.15 input    1.60 | X-H torsion
[  965  957  956  954 ] final   45.78 input    0.45 | X-H torsion

>  <Gold.Protein.ActiveResidues>  (97) 
 LYS47   THR48   LEU49   GLY50   THR51   GLY52   SER53   PHE54   GLY55   ARG56  
 VAL57   MET58   LEU59   TYR69   ALA70   MET71   LYS72   ILE73   LEU74   GLU91  
 LEU95   VAL104  LYS105  MET118  VAL119  MET120  GLU121  TYR122  VAL123  PRO124 
 GLY125  GLY126  GLU127  MET128  PHE129  TYR164  ASP166  LEU167  LYS168  PRO169 
 GLU170  ASN171  LEU172  LEU173  ILE174  GLN181  VAL182  THR183  ASP184  PHE185 
 GLY186  PHE187  GLY200  THR201  ASN326  PHE327  TYR330  ARG18   ARG19   ASN20  
 ALA21   ILE22   HIS23  

>  <Gold.Protein.RotatedAtoms>  (97) 
   11.2111   19.0879    7.6384 H   0  0  0  0  0  0  0  0  0  0  0  0  # atno 641  bound_to 637 
   15.6667   12.8094    6.7517 H   0  0  0  0  0  0  0  0  0  0  0  0  # atno 681  bound_to 677 
   20.4167   11.6885   -2.0121 H   0  0  0  0  0  0  0  0  0  0  0  0  # atno 702  bound_to 698 
   -7.0029   15.5019   -0.3755 H   0  0  0  0  0  0  0  0  0  0  0  0  # atno 965  bound_to 957 
    1.8637   10.7078   10.3749 H   0  0  0  0  0  0  0  0  0  0  0  0  # atno 1886 bound_to 1878
   10.7660    3.2094   -3.2549 H   0  0  0  0  0  0  0  0  0  0  0  0  # atno 2577 bound_to 2569
    7.5075    6.7978    1.3519 H   0  0  0  0  0  0  0  0  0  0  0  0  # atno 2891 bound_to 2887
   19.2302    2.8426   -1.0902 H   0  0  0  0  0  0  0  0  0  0  0  0  # atno 3175 bound_to 3171
   13.4340    9.8113   10.4789 H   0  0  0  0  0  0  0  0  0  0  0  0  # atno 5278 bound_to 5270
   16.5751   13.9664    7.3617 LP  0  0  0  0  0  0  0  0  0  0  0  0  # atno 5914 bound_to 677 
   17.1093   13.0488    6.1211 LP  0  0  0  0  0  0  0  0  0  0  0  0  # atno 5915 bound_to 677 
   19.3468   11.8387   -0.8415 LP  0  0  0  0  0  0  0  0  0  0  0  0  # atno 5920 bound_to 698 
   20.9194   11.5534   -0.5066 LP  0  0  0  0  0  0  0  0  0  0  0  0  # atno 5921 bound_to 698 
   10.4812    1.9224   -2.3618 LP  0  0  0  0  0  0  0  0  0  0  0  0  # atno 5950 bound_to 2569
    9.2536    2.7627   -3.0353 LP  0  0  0  0  0  0  0  0  0  0  0  0  # atno 5951 bound_to 2569
    8.3826    6.1264    0.2029 LP  0  0  0  0  0  0  0  0  0  0  0  0  # atno 5982 bound_to 2887
    7.3910    5.2242    1.1353 LP  0  0  0  0  0  0  0  0  0  0  0  0  # atno 5983 bound_to 2887
   18.7091    2.6743    0.4051 LP  0  0  0  0  0  0  0  0  0  0  0  0  # atno 6000 bound_to 3171
   17.9411    1.9429   -0.8367 LP  0  0  0  0  0  0  0  0  0  0  0  0  # atno 6001 bound_to 3171
   14.3927   10.1091    9.2424 LP  0  0  0  0  0  0  0  0  0  0  0  0  # atno 6004 bound_to 5270
   12.7693   10.1351    9.0682 LP  0  0  0  0  0  0  0  0  0  0  0  0  # atno 6005 bound_to 5270
   10.5333   19.7874    8.8978 LP  0  0  0  0  0  0  0  0  0  0  0  0  # atno 6055 bound_to 637 
    9.6240   19.2112    7.6699 LP  0  0  0  0  0  0  0  0  0  0  0  0  # atno 6056 bound_to 637 
    0.5746   11.3337   11.0690 LP  0  0  0  0  0  0  0  0  0  0  0  0  # atno 6063 bound_to 1878
    1.8488   12.2729   10.6674 LP  0  0  0  0  0  0  0  0  0  0  0  0  # atno 6064 bound_to 1878
   -6.4299   16.2513   -1.6581 LP  0  0  0  0  0  0  0  0  0  0  0  0  # atno 6067 bound_to 957 
   -7.0027   17.0941   -0.3820 LP  0  0  0  0  0  0  0  0  0  0  0  0  # atno 6068 bound_to 957 

>  <STRIFE_LigEff_Score>  (97) 
2.7308333333333334

$$$$
unknown|pharmsElabsTestMulti|sdf|93|dock5
     RDKit          3D

 14 14  0  0  0  0  0  0  0  0999 V2000
    3.9084    9.8432    5.4378 C   0  0  0  0  0  0  0  0  0  0  0  0
    4.7673   10.0528    4.1967 C   0  0  0  0  0  0  0  0  0  0  0  0
    6.0824    9.4473    4.3779 N   0  0  0  0  0  0  0  0  0  0  0  0
    7.0885    9.4724    3.3581 C   0  0  0  0  0  0  0  0  0  0  0  0
    6.8848   10.0969    2.2792 O   0  0  0  0  0  0  0  0  0  0  0  0
    8.4013    8.7743    3.5916 C   0  0  0  0  0  0  0  0  0  0  0  0
    8.7003    7.8053    2.4492 C   0  0  0  0  0  0  0  0  0  0  0  0
    9.9476    6.9786    2.7283 C   0  0  0  0  0  0  0  0  0  0  0  0
   11.1643    7.7665    3.2835 C   0  0  0  0  0  0  0  0  0  0  0  0
   12.5082    7.7267    2.5291 C   0  0  0  0  0  0  0  0  0  0  0  0
   13.7969    7.7356    3.3511 C   0  0  0  0  0  0  0  0  0  0  0  0
   12.5681    8.7184    1.4465 N   0  0  0  0  0  0  0  0  0  0  0  0
   10.8785    9.1315    3.9812 C   0  0  0  0  0  0  0  0  0  0  0  0
    9.5326    9.7924    3.6891 C   0  0  0  0  0  0  0  0  0  0  0  0
  1  2  1  0
  2  3  1  0
  3  4  1  0
  4  5  2  0
  4  6  1  0
  6  7  1  0
  7  8  1  0
  8  9  1  0
  9 10  1  0
 10 11  1  0
 10 12  1  0
  9 13  1  0
 13 14  1  0
 14  6  1  0
M  CHG  1  12   1
M  END
>  <EmbedRMS>  (98) 
0.22880006867790334

>  <Gold.Version>  (98) 
2020.3.0

>  <Gold.Id.Protein>  (98) 
unknown|1q8t_protein|pdb

>  <Gold.PLP.Fitness>  (98) 
34.6153

>  <Gold.PLP.PLP>  (98) 
-29.1903

>  <Gold.PLP.part.hbond>  (98) 
-1.0000

>  <Gold.PLP.part.metal>  (98) 
0.0000

>  <Gold.PLP.part.buried>  (98) 
0.9207

>  <Gold.PLP.part.nonpolar>  (98) 
-28.8469

>  <Gold.PLP.part.repulsive>  (98) 
0.0000

>  <Gold.PLP.ligand.clash>  (98) 
0.0000

>  <Gold.PLP.ligand.torsion>  (98) 
0.4822

>  <Gold.PLP.Chemscore.Hbond>  (98) 
2.0000

>  <Gold.PLP.Chemscore.CHOScore>  (98) 
0.0000

>  <Gold.PLP.Chemscore.Metal>  (98) 
0.0000

>  <Gold.Chemscore.Hbonds>  (98) 
donor molecule, donor type, donor heavy atom, donor atom, acceptor molecule, acceptor atom, score
      L1  H    12    33       P1  2902  2.00

>  <Gold.PLP.Chemscore.Internal.Correction>  (98) 
0.3893

>  <Gold.PLP.Constraint>  (98) 
-0.0000

>  <Gold.Protein.RotatedTorsions>  (98) 
[  681  677  676  673 ] final  -93.99 input -179.99 | X-H torsion
[  702  698  697  694 ] final   91.79 input  179.99 | X-H torsion
[ 2577 2569 2568 2566 ] final  -37.32 input   -0.13 | X-H torsion
[ 2891 2887 2886 2883 ] final  -97.46 input  179.98 | X-H torsion
[ 3175 3171 3170 3167 ] final  -73.52 input -179.99 | X-H torsion
[ 5278 5270 5269 5267 ] final -124.77 input    0.55 | X-H torsion
[  641  637  636  633 ] final  122.52 input  179.99 | X-H torsion
[ 1886 1878 1877 1875 ] final -125.34 input    1.60 | X-H torsion
[  965  957  956  954 ] final   26.22 input    0.45 | X-H torsion

>  <Gold.Protein.ActiveResidues>  (98) 
 LYS47   THR48   LEU49   GLY50   THR51   GLY52   SER53   PHE54   GLY55   ARG56  
 VAL57   MET58   LEU59   TYR69   ALA70   MET71   LYS72   ILE73   LEU74   GLU91  
 LEU95   VAL104  LYS105  MET118  VAL119  MET120  GLU121  TYR122  VAL123  PRO124 
 GLY125  GLY126  GLU127  MET128  PHE129  TYR164  ASP166  LEU167  LYS168  PRO169 
 GLU170  ASN171  LEU172  LEU173  ILE174  GLN181  VAL182  THR183  ASP184  PHE185 
 GLY186  PHE187  GLY200  THR201  ASN326  PHE327  TYR330  ARG18   ARG19   ASN20  
 ALA21   ILE22   HIS23  

>  <Gold.Protein.RotatedAtoms>  (98) 
   10.8203   19.7065    8.8072 H   0  0  0  0  0  0  0  0  0  0  0  0  # atno 641  bound_to 637 
   15.8766   13.5693    7.3751 H   0  0  0  0  0  0  0  0  0  0  0  0  # atno 681  bound_to 677 
   19.7711   11.8007   -1.8971 H   0  0  0  0  0  0  0  0  0  0  0  0  # atno 702  bound_to 698 
   -6.8864   15.3915   -0.6338 H   0  0  0  0  0  0  0  0  0  0  0  0  # atno 965  bound_to 957 
    0.8365   10.7758   10.8394 H   0  0  0  0  0  0  0  0  0  0  0  0  # atno 1886 bound_to 1878
   10.3248    3.3658   -3.3959 H   0  0  0  0  0  0  0  0  0  0  0  0  # atno 2577 bound_to 2569
    7.2172    5.5315    1.3848 H   0  0  0  0  0  0  0  0  0  0  0  0  # atno 2891 bound_to 2887
   19.2925    3.0069   -0.1879 H   0  0  0  0  0  0  0  0  0  0  0  0  # atno 3175 bound_to 3171
   14.2128    9.8933   10.1793 H   0  0  0  0  0  0  0  0  0  0  0  0  # atno 5278 bound_to 5270
   17.2811   13.6710    6.6315 LP  0  0  0  0  0  0  0  0  0  0  0  0  # atno 5914 bound_to 677 
   16.1824   12.5444    6.1952 LP  0  0  0  0  0  0  0  0  0  0  0  0  # atno 5915 bound_to 677 
   19.7875   11.7502   -0.3051 LP  0  0  0  0  0  0  0  0  0  0  0  0  # atno 5920 bound_to 698 
   21.1578   11.5239   -1.1639 LP  0  0  0  0  0  0  0  0  0  0  0  0  # atno 5921 bound_to 698 
   10.9036    2.1776   -2.5080 LP  0  0  0  0  0  0  0  0  0  0  0  0  # atno 5950 bound_to 2569
    9.2957    2.3427   -2.7406 LP  0  0  0  0  0  0  0  0  0  0  0  0  # atno 5951 bound_to 2569
    7.7949    6.9860    1.0896 LP  0  0  0  0  0  0  0  0  0  0  0  0  # atno 5982 bound_to 2887
    8.2842    5.6973    0.2141 LP  0  0  0  0  0  0  0  0  0  0  0  0  # atno 5983 bound_to 2887
   18.0033    2.1069    0.0643 LP  0  0  0  0  0  0  0  0  0  0  0  0  # atno 6000 bound_to 3171
   18.5814    2.3373   -1.4455 LP  0  0  0  0  0  0  0  0  0  0  0  0  # atno 6001 bound_to 3171
   13.7001   10.2331    8.7102 LP  0  0  0  0  0  0  0  0  0  0  0  0  # atno 6004 bound_to 5270
   12.6424    9.9248    9.9155 LP  0  0  0  0  0  0  0  0  0  0  0  0  # atno 6005 bound_to 5270
    9.5346   19.3528    7.9373 LP  0  0  0  0  0  0  0  0  0  0  0  0  # atno 6055 bound_to 637 
   11.0342   18.9943    7.3994 LP  0  0  0  0  0  0  0  0  0  0  0  0  # atno 6056 bound_to 637 
    1.2367   12.3134   10.9442 LP  0  0  0  0  0  0  0  0  0  0  0  0  # atno 6063 bound_to 1878
    2.2680   11.2215   10.3033 LP  0  0  0  0  0  0  0  0  0  0  0  0  # atno 6064 bound_to 1878
   -6.4475   16.5679   -1.6128 LP  0  0  0  0  0  0  0  0  0  0  0  0  # atno 6067 bound_to 957 
   -7.1078   16.8938   -0.1553 LP  0  0  0  0  0  0  0  0  0  0  0  0  # atno 6068 bound_to 957 

>  <STRIFE_LigEff_Score>  (98) 
2.4725214285714285

$$$$
unknown|pharmsElabsTestMulti|sdf|94|dock10
     RDKit          3D

 15 15  0  0  0  0  0  0  0  0999 V2000
    3.7013   10.0237    5.1690 C   0  0  0  0  0  0  0  0  0  0  0  0
    5.2143    9.8594    5.2974 C   0  0  0  0  0  0  0  0  0  0  0  0
    5.8901    9.7969    3.9262 C   0  0  0  0  0  0  0  0  0  0  0  0
    7.2903    9.4128    4.0604 N   0  0  0  0  0  0  0  0  0  0  0  0
    8.1704    9.3562    2.9377 C   0  0  0  0  0  0  0  0  0  0  0  0
    7.7633    9.6896    1.7889 O   0  0  0  0  0  0  0  0  0  0  0  0
    9.5939    8.9249    3.1552 C   0  0  0  0  0  0  0  0  0  0  0  0
    9.8864    7.6047    2.4185 C   0  0  0  0  0  0  0  0  0  0  0  0
   11.3604    7.1998    2.5897 C   0  0  0  0  0  0  0  0  0  0  0  0
   12.2343    8.3375    2.0311 C   0  0  0  0  0  0  0  0  0  0  0  0
   13.7128    8.0248    1.6584 C   0  0  0  0  0  0  0  0  0  0  0  0
   14.6175    9.2164    1.3950 C   0  0  0  0  0  0  0  0  0  0  0  0
   13.9567    6.8616    0.8148 N   0  0  0  0  0  0  0  0  0  0  0  0
   12.0274    9.6088    2.8728 C   0  0  0  0  0  0  0  0  0  0  0  0
   10.5632   10.0579    2.7673 C   0  0  0  0  0  0  0  0  0  0  0  0
  1  2  1  0
  2  3  1  0
  3  4  1  0
  4  5  1  0
  5  6  2  0
  5  7  1  0
  7  8  1  0
  8  9  1  0
  9 10  1  0
 10 11  1  0
 11 12  1  0
 11 13  1  0
 10 14  1  0
 14 15  1  0
 15  7  1  0
M  CHG  1  13   1
M  END
>  <EmbedRMS>  (99) 
0.2000484947854372

>  <Gold.Version>  (99) 
2020.3.0

>  <Gold.Id.Protein>  (99) 
unknown|1q8t_protein|pdb

>  <Gold.PLP.Fitness>  (99) 
42.7501

>  <Gold.PLP.PLP>  (99) 
-33.9244

>  <Gold.PLP.part.hbond>  (99) 
-2.0000

>  <Gold.PLP.part.metal>  (99) 
0.0000

>  <Gold.PLP.part.buried>  (99) 
-2.4597

>  <Gold.PLP.part.nonpolar>  (99) 
-29.7697

>  <Gold.PLP.part.repulsive>  (99) 
0.0872

>  <Gold.PLP.ligand.clash>  (99) 
0.0000

>  <Gold.PLP.ligand.torsion>  (99) 
0.2642

>  <Gold.PLP.Chemscore.Hbond>  (99) 
2.9920

>  <Gold.PLP.Chemscore.CHOScore>  (99) 
0.0000

>  <Gold.PLP.Chemscore.Metal>  (99) 
0.0000

>  <Gold.Chemscore.Hbonds>  (99) 
donor molecule, donor type, donor heavy atom, donor atom, acceptor molecule, acceptor atom, score
      L1  H    13    35       P1  2691  0.99
      L1  H    13    36       P1  2902  2.00

>  <Gold.PLP.Chemscore.Internal.Correction>  (99) 
0.3781

>  <Gold.PLP.Constraint>  (99) 
-0.0000

>  <Gold.Protein.RotatedTorsions>  (99) 
[  681  677  676  673 ] final  151.58 input -179.99 | X-H torsion
[  702  698  697  694 ] final -104.55 input  179.99 | X-H torsion
[ 2577 2569 2568 2566 ] final  -45.11 input   -0.13 | X-H torsion
[ 2891 2887 2886 2883 ] final  -23.81 input  179.98 | X-H torsion
[ 3175 3171 3170 3167 ] final  -94.51 input -179.99 | X-H torsion
[ 5278 5270 5269 5267 ] final -122.50 input    0.55 | X-H torsion
[  641  637  636  633 ] final   34.16 input  179.99 | X-H torsion
[ 1886 1878 1877 1875 ] final  155.91 input    1.60 | X-H torsion
[  965  957  956  954 ] final  141.35 input    0.45 | X-H torsion

>  <Gold.Protein.ActiveResidues>  (99) 
 LYS47   THR48   LEU49   GLY50   THR51   GLY52   SER53   PHE54   GLY55   ARG56  
 VAL57   MET58   LEU59   TYR69   ALA70   MET71   LYS72   ILE73   LEU74   GLU91  
 LEU95   VAL104  LYS105  MET118  VAL119  MET120  GLU121  TYR122  VAL123  PRO124 
 GLY125  GLY126  GLU127  MET128  PHE129  TYR164  ASP166  LEU167  LYS168  PRO169 
 GLU170  ASN171  LEU172  LEU173  ILE174  GLN181  VAL182  THR183  ASP184  PHE185 
 GLY186  PHE187  GLY200  THR201  ASN326  PHE327  TYR330  ARG18   ARG19   ASN20  
 ALA21   ILE22   HIS23  

>  <Gold.Protein.RotatedAtoms>  (99) 
    9.6570   19.5545    8.3822 H   0  0  0  0  0  0  0  0  0  0  0  0  # atno 641  bound_to 637 
   17.2112   13.7144    6.6921 H   0  0  0  0  0  0  0  0  0  0  0  0  # atno 681  bound_to 677 
   20.8873   11.5766   -0.5362 H   0  0  0  0  0  0  0  0  0  0  0  0  # atno 702  bound_to 698 
   -7.0988   16.8031   -0.1375 H   0  0  0  0  0  0  0  0  0  0  0  0  # atno 965  bound_to 957 
    0.7612   11.8875   11.0622 H   0  0  0  0  0  0  0  0  0  0  0  0  # atno 1886 bound_to 1878
   10.4431    3.3468   -3.3740 H   0  0  0  0  0  0  0  0  0  0  0  0  # atno 2577 bound_to 2569
    7.8562    5.2357    0.5738 H   0  0  0  0  0  0  0  0  0  0  0  0  # atno 2891 bound_to 2887
   19.1359    2.9270    0.0869 H   0  0  0  0  0  0  0  0  0  0  0  0  # atno 3175 bound_to 3171
   14.1892    9.8867   10.2052 H   0  0  0  0  0  0  0  0  0  0  0  0  # atno 5278 bound_to 5270
   16.2636   12.5533    6.1537 LP  0  0  0  0  0  0  0  0  0  0  0  0  # atno 5914 bound_to 677 
   15.7953   13.5095    7.3918 LP  0  0  0  0  0  0  0  0  0  0  0  0  # atno 5915 bound_to 677 
   20.4248   11.6711   -2.0576 LP  0  0  0  0  0  0  0  0  0  0  0  0  # atno 5920 bound_to 698 
   19.3463   11.8388   -0.8429 LP  0  0  0  0  0  0  0  0  0  0  0  0  # atno 5921 bound_to 698 
   10.8158    2.0980   -2.4592 LP  0  0  0  0  0  0  0  0  0  0  0  0  # atno 5950 bound_to 2569
    9.2591    2.4424   -2.8124 LP  0  0  0  0  0  0  0  0  0  0  0  0  # atno 5951 bound_to 2569
    7.1703    6.2129    1.6278 LP  0  0  0  0  0  0  0  0  0  0  0  0  # atno 5982 bound_to 2887
    8.2363    6.7817    0.5294 LP  0  0  0  0  0  0  0  0  0  0  0  0  # atno 5983 bound_to 2887
   17.8931    1.9858   -0.2375 LP  0  0  0  0  0  0  0  0  0  0  0  0  # atno 6000 bound_to 3171
   18.8563    2.5426   -1.4329 LP  0  0  0  0  0  0  0  0  0  0  0  0  # atno 6001 bound_to 3171
   13.7368   10.2317    8.7175 LP  0  0  0  0  0  0  0  0  0  0  0  0  # atno 6004 bound_to 5270
   12.6305    9.9332    9.8810 LP  0  0  0  0  0  0  0  0  0  0  0  0  # atno 6005 bound_to 5270
   10.5550   18.9317    7.2243 LP  0  0  0  0  0  0  0  0  0  0  0  0  # atno 6055 bound_to 637 
   11.2390   19.5755    8.5600 LP  0  0  0  0  0  0  0  0  0  0  0  0  # atno 6056 bound_to 637 
    2.2240   11.8713   10.4335 LP  0  0  0  0  0  0  0  0  0  0  0  0  # atno 6063 bound_to 1878
    1.3600   10.4933   10.5794 LP  0  0  0  0  0  0  0  0  0  0  0  0  # atno 6064 bound_to 1878
   -6.8729   15.3324   -0.7042 LP  0  0  0  0  0  0  0  0  0  0  0  0  # atno 6067 bound_to 957 
   -6.4588   16.6426   -1.5866 LP  0  0  0  0  0  0  0  0  0  0  0  0  # atno 6068 bound_to 957 

>  <STRIFE_LigEff_Score>  (99) 
2.850006666666667

$$$$
unknown|pharmsElabsTestMulti|sdf|95|dock6
     RDKit          3D

 17 17  0  0  0  0  0  0  0  0999 V2000
    4.4245   10.0347    5.4668 C   0  0  0  0  0  0  0  0  0  0  0  0
    3.9597    9.1400    4.3213 C   0  0  0  0  0  0  0  0  0  0  0  0
    2.7015    9.5566    3.8721 O   0  0  0  0  0  0  0  0  0  0  0  0
    4.9624    9.1853    3.1827 C   0  0  0  0  0  0  0  0  0  0  0  0
    4.4415    9.6524    1.6949 S   0  0  0  0  0  0  0  0  0  0  0  0
    6.3704    8.9510    3.3515 N   0  0  0  0  0  0  0  0  0  0  0  0
    7.3884    8.9728    2.3389 C   0  0  0  0  0  0  0  0  0  0  0  0
    7.1352    9.2884    1.1466 O   0  0  0  0  0  0  0  0  0  0  0  0
    8.7998    8.6485    2.7252 C   0  0  0  0  0  0  0  0  0  0  0  0
    9.2860    7.3925    1.9764 C   0  0  0  0  0  0  0  0  0  0  0  0
   10.7577    7.0995    2.3041 C   0  0  0  0  0  0  0  0  0  0  0  0
   11.5888    8.3289    1.8962 C   0  0  0  0  0  0  0  0  0  0  0  0
   13.1211    8.1525    1.6923 C   0  0  0  0  0  0  0  0  0  0  0  0
   13.9438    9.4235    1.5686 C   0  0  0  0  0  0  0  0  0  0  0  0
   13.5590    7.0454    0.8518 N   0  0  0  0  0  0  0  0  0  0  0  0
   11.1803    9.5382    2.7557 C   0  0  0  0  0  0  0  0  0  0  0  0
    9.7060    9.8733    2.4959 C   0  0  0  0  0  0  0  0  0  0  0  0
  1  2  1  0
  2  3  1  0
  2  4  1  0
  4  5  2  0
  4  6  1  0
  6  7  1  0
  7  8  2  0
  7  9  1  0
  9 10  1  0
 10 11  1  0
 11 12  1  0
 12 13  1  0
 13 14  1  0
 13 15  1  0
 12 16  1  0
 16 17  1  0
 17  9  1  0
M  CHG  1  15   1
M  END
>  <EmbedRMS>  (100) 
0.1912698769216706

>  <Gold.Version>  (100) 
2020.3.0

>  <Gold.Id.Protein>  (100) 
unknown|1q8t_protein|pdb

>  <Gold.PLP.Fitness>  (100) 
50.5000

>  <Gold.PLP.PLP>  (100) 
-38.7681

>  <Gold.PLP.part.hbond>  (100) 
-4.0109

>  <Gold.PLP.part.metal>  (100) 
0.0000

>  <Gold.PLP.part.buried>  (100) 
1.3810

>  <Gold.PLP.part.nonpolar>  (100) 
-36.2193

>  <Gold.PLP.part.repulsive>  (100) 
0.0596

>  <Gold.PLP.ligand.clash>  (100) 
0.0000

>  <Gold.PLP.ligand.torsion>  (100) 
0.2726

>  <Gold.PLP.Chemscore.Hbond>  (100) 
3.9600

>  <Gold.PLP.Chemscore.CHOScore>  (100) 
0.0000

>  <Gold.PLP.Chemscore.Metal>  (100) 
0.0000

>  <Gold.Chemscore.Hbonds>  (100) 
donor molecule, donor type, donor heavy atom, donor atom, acceptor molecule, acceptor atom, score
      L1  H    15    34       P1  2902  2.00
      L1  H    15    35       P1  2691  1.00
      P1  H  1888  1903       L1     3  0.96

>  <Gold.PLP.Chemscore.Internal.Correction>  (100) 
0.3971

>  <Gold.PLP.Constraint>  (100) 
-0.0000

>  <Gold.Protein.RotatedTorsions>  (100) 
[  681  677  676  673 ] final  133.52 input -179.99 | X-H torsion
[  702  698  697  694 ] final  -43.93 input  179.99 | X-H torsion
[ 2577 2569 2568 2566 ] final -175.40 input   -0.13 | X-H torsion
[ 2891 2887 2886 2883 ] final    9.30 input  179.98 | X-H torsion
[ 3175 3171 3170 3167 ] final   68.30 input -179.99 | X-H torsion
[ 5278 5270 5269 5267 ] final -119.84 input    0.55 | X-H torsion
[  641  637  636  633 ] final  -13.63 input  179.99 | X-H torsion
[ 1886 1878 1877 1875 ] final   36.35 input    1.60 | X-H torsion
[  965  957  956  954 ] final    8.14 input    0.45 | X-H torsion

>  <Gold.Protein.ActiveResidues>  (100) 
 LYS47   THR48   LEU49   GLY50   THR51   GLY52   SER53   PHE54   GLY55   ARG56  
 VAL57   MET58   LEU59   TYR69   ALA70   MET71   LYS72   ILE73   LEU74   GLU91  
 LEU95   VAL104  LYS105  MET118  VAL119  MET120  GLU121  TYR122  VAL123  PRO124 
 GLY125  GLY126  GLU127  MET128  PHE129  TYR164  ASP166  LEU167  LYS168  PRO169 
 GLU170  ASN171  LEU172  LEU173  ILE174  GLN181  VAL182  THR183  ASP184  PHE185 
 GLY186  PHE187  GLY200  THR201  ASN326  PHE327  TYR330  ARG18   ARG19   ASN20  
 ALA21   ILE22   HIS23  

>  <Gold.Protein.RotatedAtoms>  (100) 
    9.6456   19.2252    7.7361 H   0  0  0  0  0  0  0  0  0  0  0  0  # atno 641  bound_to 637 
   17.2525   13.5301    6.4839 H   0  0  0  0  0  0  0  0  0  0  0  0  # atno 681  bound_to 677 
   20.0381   11.7218   -0.2603 H   0  0  0  0  0  0  0  0  0  0  0  0  # atno 702  bound_to 698 
   -6.7701   15.3793   -0.8896 H   0  0  0  0  0  0  0  0  0  0  0  0  # atno 965  bound_to 957 
    2.1751   11.8575   10.4337 H   0  0  0  0  0  0  0  0  0  0  0  0  # atno 1886 bound_to 1878
   10.6577    2.0311   -2.4447 H   0  0  0  0  0  0  0  0  0  0  0  0  # atno 2577 bound_to 2569
    8.1581    5.5407    0.2972 H   0  0  0  0  0  0  0  0  0  0  0  0  # atno 2891 bound_to 2887
   18.3301    2.1503   -1.2859 H   0  0  0  0  0  0  0  0  0  0  0  0  # atno 3175 bound_to 3171
   14.1603    9.8792   10.2342 H   0  0  0  0  0  0  0  0  0  0  0  0  # atno 5278 bound_to 5270
   16.0104   12.5493    6.3066 LP  0  0  0  0  0  0  0  0  0  0  0  0  # atno 5914 bound_to 677 
   16.0051   13.7073    7.4580 LP  0  0  0  0  0  0  0  0  0  0  0  0  # atno 5915 bound_to 677 
   21.1163   11.5361   -1.4181 LP  0  0  0  0  0  0  0  0  0  0  0  0  # atno 5920 bound_to 698 
   19.5480   11.8210   -1.7727 LP  0  0  0  0  0  0  0  0  0  0  0  0  # atno 5921 bound_to 698 
    9.2367    2.5792   -2.9091 LP  0  0  0  0  0  0  0  0  0  0  0  0  # atno 5950 bound_to 2569
   10.6121    3.3464   -3.3410 LP  0  0  0  0  0  0  0  0  0  0  0  0  # atno 5951 bound_to 2569
    7.1519    5.6863    1.5230 LP  0  0  0  0  0  0  0  0  0  0  0  0  # atno 5982 bound_to 2887
    7.9370    6.9874    0.9253 LP  0  0  0  0  0  0  0  0  0  0  0  0  # atno 5983 bound_to 2887
   19.3914    3.0583   -0.5213 LP  0  0  0  0  0  0  0  0  0  0  0  0  # atno 6000 bound_to 3171
   18.2061    2.2874    0.2957 LP  0  0  0  0  0  0  0  0  0  0  0  0  # atno 6001 bound_to 3171
   13.7793   10.2296    8.7279 LP  0  0  0  0  0  0  0  0  0  0  0  0  # atno 6004 bound_to 5270
   12.6184    9.9431    9.8401 LP  0  0  0  0  0  0  0  0  0  0  0  0  # atno 6005 bound_to 5270
   11.2215   19.0711    7.5702 LP  0  0  0  0  0  0  0  0  0  0  0  0  # atno 6055 bound_to 637 
   10.5845   19.7829    8.8946 LP  0  0  0  0  0  0  0  0  0  0  0  0  # atno 6056 bound_to 637 
    1.3667   10.4932   10.5764 LP  0  0  0  0  0  0  0  0  0  0  0  0  # atno 6063 bound_to 1878
    0.7288   11.9030   11.0981 LP  0  0  0  0  0  0  0  0  0  0  0  0  # atno 6064 bound_to 1878
   -6.5022   16.8306   -1.4872 LP  0  0  0  0  0  0  0  0  0  0  0  0  # atno 6067 bound_to 957 
   -7.1757   16.6439   -0.0114 LP  0  0  0  0  0  0  0  0  0  0  0  0  # atno 6068 bound_to 957 

>  <STRIFE_LigEff_Score>  (100) 
2.9705882352941178

$$$$
unknown|pharmsElabsTestMulti|sdf|96|dock2
     RDKit          3D

 18 19  0  0  0  0  0  0  0  0999 V2000
   14.9507    7.5422    2.9843 C   0  0  0  0  0  0  0  0  0  0  0  0
   13.6571    7.4949    2.1712 C   0  0  0  0  0  0  0  0  0  0  0  0
   13.6352    8.5562    1.1556 N   0  0  0  0  0  0  0  0  0  0  0  0
   12.3227    7.3919    2.9343 C   0  0  0  0  0  0  0  0  0  0  0  0
   11.0342    6.9811    2.1738 C   0  0  0  0  0  0  0  0  0  0  0  0
    9.8883    7.9752    2.2465 C   0  0  0  0  0  0  0  0  0  0  0  0
    9.6832    8.4880    3.6695 C   0  0  0  0  0  0  0  0  0  0  0  0
    8.4617    9.3530    3.7194 C   0  0  0  0  0  0  0  0  0  0  0  0
    8.2302   10.1707    2.7847 O   0  0  0  0  0  0  0  0  0  0  0  0
    7.5608    9.2568    4.8215 N   0  0  0  0  0  0  0  0  0  0  0  0
    6.4685   10.2043    4.9492 C   0  0  0  0  0  0  0  0  0  0  0  0
    5.2739    9.8834    4.0611 C   0  0  0  0  0  0  0  0  0  0  0  0
    5.5596    9.5332    2.6272 C   0  0  0  0  0  0  0  0  0  0  0  0
    4.1641    9.3661    2.0475 C   0  0  0  0  0  0  0  0  0  0  0  0
    3.2726    8.9014    3.2110 C   0  0  0  0  0  0  0  0  0  0  0  0
    4.0748    9.0904    4.5051 C   0  0  0  0  0  0  0  0  0  0  0  0
   10.9117    9.2851    4.0960 C   0  0  0  0  0  0  0  0  0  0  0  0
   12.1783    8.4326    4.0870 C   0  0  0  0  0  0  0  0  0  0  0  0
  1  2  1  0
  2  3  1  0
  2  4  1  0
  4  5  1  0
  5  6  1  0
  6  7  1  0
  7  8  1  0
  8  9  2  0
  8 10  1  0
 10 11  1  0
 11 12  1  0
 12 13  1  0
 13 14  1  0
 14 15  1  0
 15 16  1  0
  7 17  1  0
 17 18  1  0
 18  4  1  0
 16 12  1  0
M  CHG  1   3   1
M  END
>  <EmbedRMS>  (101) 
0.2701286003923815

>  <Gold.Version>  (101) 
2020.3.0

>  <Gold.Id.Protein>  (101) 
unknown|1q8t_protein|pdb

>  <Gold.PLP.Fitness>  (101) 
50.3951

>  <Gold.PLP.PLP>  (101) 
-46.0570

>  <Gold.PLP.part.hbond>  (101) 
-1.0000

>  <Gold.PLP.part.metal>  (101) 
0.0000

>  <Gold.PLP.part.buried>  (101) 
-2.6493

>  <Gold.PLP.part.nonpolar>  (101) 
-42.7672

>  <Gold.PLP.part.repulsive>  (101) 
0.0000

>  <Gold.PLP.ligand.clash>  (101) 
0.0000

>  <Gold.PLP.ligand.torsion>  (101) 
1.1321

>  <Gold.PLP.Chemscore.Hbond>  (101) 
2.0000

>  <Gold.PLP.Chemscore.CHOScore>  (101) 
0.0000

>  <Gold.PLP.Chemscore.Metal>  (101) 
0.0000

>  <Gold.Chemscore.Hbonds>  (101) 
donor molecule, donor type, donor heavy atom, donor atom, acceptor molecule, acceptor atom, score
      L1  H     3    24       P1  2902  2.00

>  <Gold.PLP.Chemscore.Internal.Correction>  (101) 
0.6023

>  <Gold.PLP.Constraint>  (101) 
-0.0000

>  <Gold.Protein.RotatedTorsions>  (101) 
[  681  677  676  673 ] final    9.34 input -179.99 | X-H torsion
[  702  698  697  694 ] final   93.59 input  179.99 | X-H torsion
[ 2577 2569 2568 2566 ] final   80.43 input   -0.13 | X-H torsion
[ 2891 2887 2886 2883 ] final  146.53 input  179.98 | X-H torsion
[ 3175 3171 3170 3167 ] final -120.01 input -179.99 | X-H torsion
[ 5278 5270 5269 5267 ] final -156.60 input    0.55 | X-H torsion
[  641  637  636  633 ] final   22.21 input  179.99 | X-H torsion
[ 1886 1878 1877 1875 ] final  128.70 input    1.60 | X-H torsion
[  965  957  956  954 ] final -116.14 input    0.45 | X-H torsion

>  <Gold.Protein.ActiveResidues>  (101) 
 LYS47   THR48   LEU49   GLY50   THR51   GLY52   SER53   PHE54   GLY55   ARG56  
 VAL57   MET58   LEU59   TYR69   ALA70   MET71   LYS72   ILE73   LEU74   GLU91  
 LEU95   VAL104  LYS105  MET118  VAL119  MET120  GLU121  TYR122  VAL123  PRO124 
 GLY125  GLY126  GLU127  MET128  PHE129  TYR164  ASP166  LEU167  LYS168  PRO169 
 GLU170  ASN171  LEU172  LEU173  ILE174  GLN181  VAL182  THR183  ASP184  PHE185 
 GLY186  PHE187  GLY200  THR201  ASN326  PHE327  TYR330  ARG18   ARG19   ASN20  
 ALA21   ILE22   HIS23  

>  <Gold.Protein.RotatedAtoms>  (101) 
    9.5969   19.4769    8.2236 H   0  0  0  0  0  0  0  0  0  0  0  0  # atno 641  bound_to 637 
   15.9742   12.6045    6.3581 H   0  0  0  0  0  0  0  0  0  0  0  0  # atno 681  bound_to 677 
   19.7949   11.7967   -1.9116 H   0  0  0  0  0  0  0  0  0  0  0  0  # atno 702  bound_to 698 
   -6.5203   16.8543   -1.4076 H   0  0  0  0  0  0  0  0  0  0  0  0  # atno 965  bound_to 957 
    1.0521   12.1821   10.9842 H   0  0  0  0  0  0  0  0  0  0  0  0  # atno 1886 bound_to 1878
    9.3293    2.3753   -2.7811 H   0  0  0  0  0  0  0  0  0  0  0  0  # atno 2577 bound_to 2569
    7.7394    6.9329    1.1157 H   0  0  0  0  0  0  0  0  0  0  0  0  # atno 2891 bound_to 2887
   18.8605    2.7522    0.3105 H   0  0  0  0  0  0  0  0  0  0  0  0  # atno 3175 bound_to 3171
   14.4163   10.0024    9.7456 H   0  0  0  0  0  0  0  0  0  0  0  0  # atno 5278 bound_to 5270
   16.0607   13.7476    7.4635 LP  0  0  0  0  0  0  0  0  0  0  0  0  # atno 5914 bound_to 677 
   17.3001   13.4833    6.4336 LP  0  0  0  0  0  0  0  0  0  0  0  0  # atno 5915 bound_to 677 
   19.7620   11.7550   -0.3195 LP  0  0  0  0  0  0  0  0  0  0  0  0  # atno 5920 bound_to 698 
   21.1581   11.5232   -1.1343 LP  0  0  0  0  0  0  0  0  0  0  0  0  # atno 5921 bound_to 698 
   10.3680    3.4096   -3.4028 LP  0  0  0  0  0  0  0  0  0  0  0  0  # atno 5950 bound_to 2569
   10.8795    2.1536   -2.4932 LP  0  0  0  0  0  0  0  0  0  0  0  0  # atno 5951 bound_to 2569
    8.3068    5.7580    0.2024 LP  0  0  0  0  0  0  0  0  0  0  0  0  # atno 5982 bound_to 2887
    7.2228    5.4505    1.3844 LP  0  0  0  0  0  0  0  0  0  0  0  0  # atno 5983 bound_to 2887
   17.8919    1.9308   -0.6501 LP  0  0  0  0  0  0  0  0  0  0  0  0  # atno 6000 bound_to 3171
   19.1474    2.7815   -1.2556 LP  0  0  0  0  0  0  0  0  0  0  0  0  # atno 6001 bound_to 3171
   13.1855   10.2161    8.7574 LP  0  0  0  0  0  0  0  0  0  0  0  0  # atno 6004 bound_to 5270
   12.9430    9.8270   10.3247 LP  0  0  0  0  0  0  0  0  0  0  0  0  # atno 6005 bound_to 5270
   10.7474   18.9405    7.2626 LP  0  0  0  0  0  0  0  0  0  0  0  0  # atno 6055 bound_to 637 
   11.1099   19.6485    8.6888 LP  0  0  0  0  0  0  0  0  0  0  0  0  # atno 6056 bound_to 637 
    2.3028   11.4482   10.3266 LP  0  0  0  0  0  0  0  0  0  0  0  0  # atno 6063 bound_to 1878
    0.9751   10.6064   10.7684 LP  0  0  0  0  0  0  0  0  0  0  0  0  # atno 6064 bound_to 1878
   -7.1868   16.5782    0.0117 LP  0  0  0  0  0  0  0  0  0  0  0  0  # atno 6067 bound_to 957 
   -6.7542   15.3429   -0.9648 LP  0  0  0  0  0  0  0  0  0  0  0  0  # atno 6068 bound_to 957 

>  <STRIFE_LigEff_Score>  (101) 
2.7997277777777776

$$$$
unknown|pharmsElabsTestMulti|sdf|97|dock10
     RDKit          3D

 14 14  0  0  0  0  0  0  0  0999 V2000
    3.9067    9.8629    5.5985 C   0  0  0  0  0  0  0  0  0  0  0  0
    4.7657   10.1311    4.3689 C   0  0  0  0  0  0  0  0  0  0  0  0
    6.0834    9.5240    4.5245 N   0  0  0  0  0  0  0  0  0  0  0  0
    7.0535    9.5094    3.4702 C   0  0  0  0  0  0  0  0  0  0  0  0
    6.8155   10.0992    2.3789 O   0  0  0  0  0  0  0  0  0  0  0  0
    8.3702    8.8115    3.6812 C   0  0  0  0  0  0  0  0  0  0  0  0
    8.6466    7.8377    2.5372 C   0  0  0  0  0  0  0  0  0  0  0  0
    9.8987    7.0114    2.7955 C   0  0  0  0  0  0  0  0  0  0  0  0
   11.1263    7.8008    3.3240 C   0  0  0  0  0  0  0  0  0  0  0  0
   12.4553    7.7572    2.5439 C   0  0  0  0  0  0  0  0  0  0  0  0
   13.7597    7.8274    3.3378 C   0  0  0  0  0  0  0  0  0  0  0  0
   12.4721    8.7035    1.4200 N   0  0  0  0  0  0  0  0  0  0  0  0
   10.8547    9.1689    4.0215 C   0  0  0  0  0  0  0  0  0  0  0  0
    9.5037    9.8293    3.7527 C   0  0  0  0  0  0  0  0  0  0  0  0
  1  2  1  0
  2  3  1  0
  3  4  1  0
  4  5  2  0
  4  6  1  0
  6  7  1  0
  7  8  1  0
  8  9  1  0
  9 10  1  0
 10 11  1  0
 10 12  1  0
  9 13  1  0
 13 14  1  0
 14  6  1  0
M  CHG  1  12   1
M  END
>  <EmbedRMS>  (102) 
0.22880006867790334

>  <Gold.Version>  (102) 
2020.3.0

>  <Gold.Id.Protein>  (102) 
unknown|1q8t_protein|pdb

>  <Gold.PLP.Fitness>  (102) 
35.0492

>  <Gold.PLP.PLP>  (102) 
-29.6567

>  <Gold.PLP.part.hbond>  (102) 
-1.0000

>  <Gold.PLP.part.metal>  (102) 
0.0000

>  <Gold.PLP.part.buried>  (102) 
0.4390

>  <Gold.PLP.part.nonpolar>  (102) 
-28.7207

>  <Gold.PLP.part.repulsive>  (102) 
0.0000

>  <Gold.PLP.ligand.clash>  (102) 
0.0000

>  <Gold.PLP.ligand.torsion>  (102) 
0.4969

>  <Gold.PLP.Chemscore.Hbond>  (102) 
2.0000

>  <Gold.PLP.Chemscore.CHOScore>  (102) 
0.0000

>  <Gold.PLP.Chemscore.Metal>  (102) 
0.0000

>  <Gold.Chemscore.Hbonds>  (102) 
donor molecule, donor type, donor heavy atom, donor atom, acceptor molecule, acceptor atom, score
      L1  H    12    33       P1  2902  2.00

>  <Gold.PLP.Chemscore.Internal.Correction>  (102) 
0.3862

>  <Gold.PLP.Constraint>  (102) 
-0.0000

>  <Gold.Protein.RotatedTorsions>  (102) 
[  681  677  676  673 ] final    4.09 input -179.99 | X-H torsion
[  702  698  697  694 ] final -147.33 input  179.99 | X-H torsion
[ 2577 2569 2568 2566 ] final  -85.78 input   -0.13 | X-H torsion
[ 2891 2887 2886 2883 ] final  -95.17 input  179.98 | X-H torsion
[ 3175 3171 3170 3167 ] final   32.36 input -179.99 | X-H torsion
[ 5278 5270 5269 5267 ] final    9.82 input    0.55 | X-H torsion
[  641  637  636  633 ] final -155.79 input  179.99 | X-H torsion
[ 1886 1878 1877 1875 ] final -145.01 input    1.60 | X-H torsion
[  965  957  956  954 ] final -175.67 input    0.45 | X-H torsion

>  <Gold.Protein.ActiveResidues>  (102) 
 LYS47   THR48   LEU49   GLY50   THR51   GLY52   SER53   PHE54   GLY55   ARG56  
 VAL57   MET58   LEU59   TYR69   ALA70   MET71   LYS72   ILE73   LEU74   GLU91  
 LEU95   VAL104  LYS105  MET118  VAL119  MET120  GLU121  TYR122  VAL123  PRO124 
 GLY125  GLY126  GLU127  MET128  PHE129  TYR164  ASP166  LEU167  LYS168  PRO169 
 GLU170  ASN171  LEU172  LEU173  ILE174  GLN181  VAL182  THR183  ASP184  PHE185 
 GLY186  PHE187  GLY200  THR201  ASN326  PHE327  TYR330  ARG18   ARG19   ASN20  
 ALA21   ILE22   HIS23  

>  <Gold.Protein.RotatedAtoms>  (102) 
   11.3331   19.2051    7.8814 H   0  0  0  0  0  0  0  0  0  0  0  0  # atno 641  bound_to 637 
   15.9140   12.6205    6.4113 H   0  0  0  0  0  0  0  0  0  0  0  0  # atno 681  bound_to 677 
   21.1152   11.5480   -1.1483 H   0  0  0  0  0  0  0  0  0  0  0  0  # atno 702  bound_to 698 
   -6.8653   17.1494   -0.6434 H   0  0  0  0  0  0  0  0  0  0  0  0  # atno 965  bound_to 957 
    0.6809   11.0154   10.9489 H   0  0  0  0  0  0  0  0  0  0  0  0  # atno 1886 bound_to 1878
   10.9353    3.0519   -3.1332 H   0  0  0  0  0  0  0  0  0  0  0  0  # atno 2577 bound_to 2569
    7.2284    5.5036    1.3652 H   0  0  0  0  0  0  0  0  0  0  0  0  # atno 2891 bound_to 2887
   18.7714    2.4619   -1.4024 H   0  0  0  0  0  0  0  0  0  0  0  0  # atno 3175 bound_to 3171
   12.6377    9.9980    9.6883 H   0  0  0  0  0  0  0  0  0  0  0  0  # atno 5278 bound_to 5270
   16.1332   13.7944    7.4649 LP  0  0  0  0  0  0  0  0  0  0  0  0  # atno 5914 bound_to 677 
   17.2910   13.4196    6.3761 LP  0  0  0  0  0  0  0  0  0  0  0  0  # atno 5915 bound_to 677 
   19.7564   11.7873   -1.9446 LP  0  0  0  0  0  0  0  0  0  0  0  0  # atno 5920 bound_to 698 
   19.7749   11.7526   -0.3121 LP  0  0  0  0  0  0  0  0  0  0  0  0  # atno 5921 bound_to 698 
   10.2112    1.8720   -2.3466 LP  0  0  0  0  0  0  0  0  0  0  0  0  # atno 5950 bound_to 2569
    9.3454    2.9788   -3.1786 LP  0  0  0  0  0  0  0  0  0  0  0  0  # atno 5951 bound_to 2569
    7.7699    6.9807    1.1173 LP  0  0  0  0  0  0  0  0  0  0  0  0  # atno 5982 bound_to 2887
    8.2975    5.7319    0.2070 LP  0  0  0  0  0  0  0  0  0  0  0  0  # atno 5983 bound_to 2887
   19.2143    2.9993    0.0296 LP  0  0  0  0  0  0  0  0  0  0  0  0  # atno 6000 bound_to 3171
   17.9188    2.0185   -0.1327 LP  0  0  0  0  0  0  0  0  0  0  0  0  # atno 6001 bound_to 3171
   14.0715    9.8298   10.3610 LP  0  0  0  0  0  0  0  0  0  0  0  0  # atno 6004 bound_to 5270
   13.9283   10.2179    8.7813 LP  0  0  0  0  0  0  0  0  0  0  0  0  # atno 6005 bound_to 5270
   10.2234   19.7872    8.8635 LP  0  0  0  0  0  0  0  0  0  0  0  0  # atno 6055 bound_to 637 
    9.8055   19.0879    7.4483 LP  0  0  0  0  0  0  0  0  0  0  0  0  # atno 6056 bound_to 637 
    1.5315   12.3554   10.8214 LP  0  0  0  0  0  0  0  0  0  0  0  0  # atno 6063 bound_to 1878
    2.1371   10.9273   10.3108 LP  0  0  0  0  0  0  0  0  0  0  0  0  # atno 6064 bound_to 1878
   -7.1226   15.6581   -0.1485 LP  0  0  0  0  0  0  0  0  0  0  0  0  # atno 6067 bound_to 957 
   -6.4549   15.9522   -1.6095 LP  0  0  0  0  0  0  0  0  0  0  0  0  # atno 6068 bound_to 957 

>  <STRIFE_LigEff_Score>  (102) 
2.5035142857142856

$$$$
unknown|pharmsElabsTestMulti|sdf|98|dock4
     RDKit          3D

 18 18  0  0  0  0  0  0  0  0999 V2000
   14.8197    7.9694    3.4427 C   0  0  0  0  0  0  0  0  0  0  0  0
   13.6293    7.7554    2.5091 C   0  0  0  0  0  0  0  0  0  0  0  0
   13.7207    8.5757    1.2996 N   0  0  0  0  0  0  0  0  0  0  0  0
   12.2055    7.7538    3.1182 C   0  0  0  0  0  0  0  0  0  0  0  0
   11.1474    7.1094    2.2109 C   0  0  0  0  0  0  0  0  0  0  0  0
    9.6986    7.4604    2.5063 C   0  0  0  0  0  0  0  0  0  0  0  0
    9.5105    8.9168    2.8485 C   0  0  0  0  0  0  0  0  0  0  0  0
    8.0798    9.3675    2.8314 C   0  0  0  0  0  0  0  0  0  0  0  0
    7.5013    9.3211    3.9448 O   0  0  0  0  0  0  0  0  0  0  0  0
    7.3416    9.8168    1.6810 N   0  0  0  0  0  0  0  0  0  0  0  0
    5.9095   10.1080    1.8460 C   0  0  0  0  0  0  0  0  0  0  0  0
    5.1369    8.9324    2.4364 C   0  0  0  0  0  0  0  0  0  0  0  0
    5.0059    9.0910    3.8864 N   0  0  0  0  0  0  0  0  0  0  0  0
    3.7482    9.3746    4.5030 C   0  0  0  0  0  0  0  0  0  0  0  0
    2.7074    9.5006    3.8038 O   0  0  0  0  0  0  0  0  0  0  0  0
    3.6750    9.5127    5.8853 O   0  0  0  0  0  0  0  0  0  0  0  0
   10.3922    9.4704    3.9326 C   0  0  0  0  0  0  0  0  0  0  0  0
   11.8670    9.1538    3.6956 C   0  0  0  0  0  0  0  0  0  0  0  0
  1  2  1  0
  2  3  1  0
  2  4  1  0
  4  5  1  0
  5  6  1  0
  6  7  1  0
  7  8  1  0
  8  9  2  0
  8 10  1  0
 10 11  1  0
 11 12  1  0
 12 13  1  0
 13 14  1  0
 14 15  2  0
 14 16  1  0
  7 17  1  0
 17 18  1  0
 18  4  1  0
M  CHG  1   3   1
M  END
>  <EmbedRMS>  (103) 
0.2924325341636962

>  <Gold.Version>  (103) 
2020.3.0

>  <Gold.Id.Protein>  (103) 
unknown|1q8t_protein|pdb

>  <Gold.PLP.Fitness>  (103) 
46.1359

>  <Gold.PLP.PLP>  (103) 
-35.5587

>  <Gold.PLP.part.hbond>  (103) 
-3.0000

>  <Gold.PLP.part.metal>  (103) 
0.0000

>  <Gold.PLP.part.buried>  (103) 
-4.5847

>  <Gold.PLP.part.nonpolar>  (103) 
-28.4059

>  <Gold.PLP.part.repulsive>  (103) 
0.1889

>  <Gold.PLP.ligand.clash>  (103) 
0.0000

>  <Gold.PLP.ligand.torsion>  (103) 
0.9153

>  <Gold.PLP.Chemscore.Hbond>  (103) 
3.9040

>  <Gold.PLP.Chemscore.CHOScore>  (103) 
0.0000

>  <Gold.PLP.Chemscore.Metal>  (103) 
0.0000

>  <Gold.Chemscore.Hbonds>  (103) 
donor molecule, donor type, donor heavy atom, donor atom, acceptor molecule, acceptor atom, score
      L1  H     3    24       P1  2902  2.00
      L1  H    16    38       P1  1891  0.99
      P1  H  1888  1903       L1    15  0.91

>  <Gold.PLP.Chemscore.Internal.Correction>  (103) 
0.6960

>  <Gold.PLP.Constraint>  (103) 
-0.0000

>  <Gold.Protein.RotatedTorsions>  (103) 
[  681  677  676  673 ] final  -62.66 input -179.99 | X-H torsion
[  702  698  697  694 ] final -168.32 input  179.99 | X-H torsion
[ 2577 2569 2568 2566 ] final   12.80 input   -0.13 | X-H torsion
[ 2891 2887 2886 2883 ] final  102.42 input  179.98 | X-H torsion
[ 3175 3171 3170 3167 ] final  -78.78 input -179.99 | X-H torsion
[ 5278 5270 5269 5267 ] final  106.48 input    0.55 | X-H torsion
[  641  637  636  633 ] final -152.32 input  179.99 | X-H torsion
[ 1886 1878 1877 1875 ] final   93.12 input    1.60 | X-H torsion
[  965  957  956  954 ] final   80.64 input    0.45 | X-H torsion

>  <Gold.Protein.ActiveResidues>  (103) 
 LYS47   THR48   LEU49   GLY50   THR51   GLY52   SER53   PHE54   GLY55   ARG56  
 VAL57   MET58   LEU59   TYR69   ALA70   MET71   LYS72   ILE73   LEU74   GLU91  
 LEU95   VAL104  LYS105  MET118  VAL119  MET120  GLU121  TYR122  VAL123  PRO124 
 GLY125  GLY126  GLU127  MET128  PHE129  TYR164  ASP166  LEU167  LYS168  PRO169 
 GLU170  ASN171  LEU172  LEU173  ILE174  GLN181  VAL182  THR183  ASP184  PHE185 
 GLY186  PHE187  GLY200  THR201  ASN326  PHE327  TYR330  ARG18   ARG19   ASN20  
 ALA21   ILE22   HIS23  

>  <Gold.Protein.RotatedAtoms>  (103) 
   11.3177   19.1822    7.8348 H   0  0  0  0  0  0  0  0  0  0  0  0  # atno 641  bound_to 637 
   15.6443   13.2049    7.1577 H   0  0  0  0  0  0  0  0  0  0  0  0  # atno 681  bound_to 677 
   21.0529   11.5652   -1.4685 H   0  0  0  0  0  0  0  0  0  0  0  0  # atno 702  bound_to 698 
   -7.1470   15.9037   -0.0505 H   0  0  0  0  0  0  0  0  0  0  0  0  # atno 965  bound_to 957 
    1.5468   12.3097   10.7879 H   0  0  0  0  0  0  0  0  0  0  0  0  # atno 1886 bound_to 1878
    9.5956    3.1732   -3.3156 H   0  0  0  0  0  0  0  0  0  0  0  0  # atno 2577 bound_to 2569
    8.1558    6.8052    0.6028 H   0  0  0  0  0  0  0  0  0  0  0  0  # atno 2891 bound_to 2887
   19.2607    2.9931   -0.1133 H   0  0  0  0  0  0  0  0  0  0  0  0  # atno 3175 bound_to 3171
   13.5556   10.2403    8.7446 H   0  0  0  0  0  0  0  0  0  0  0  0  # atno 5278 bound_to 5270
   17.0598   13.9206    7.0161 LP  0  0  0  0  0  0  0  0  0  0  0  0  # atno 5914 bound_to 677 
   16.6483   12.6783    6.0394 LP  0  0  0  0  0  0  0  0  0  0  0  0  # atno 5915 bound_to 677 
   19.5017   11.8281   -1.7176 LP  0  0  0  0  0  0  0  0  0  0  0  0  # atno 5920 bound_to 698 
   20.0951   11.6937   -0.2022 LP  0  0  0  0  0  0  0  0  0  0  0  0  # atno 5921 bound_to 698 
   11.1018    2.8198   -2.9394 LP  0  0  0  0  0  0  0  0  0  0  0  0  # atno 5950 bound_to 2569
    9.8653    1.9033   -2.3937 LP  0  0  0  0  0  0  0  0  0  0  0  0  # atno 5951 bound_to 2569
    7.9402    5.2305    0.5007 LP  0  0  0  0  0  0  0  0  0  0  0  0  # atno 5982 bound_to 2887
    7.1511    6.1123    1.6260 LP  0  0  0  0  0  0  0  0  0  0  0  0  # atno 5983 bound_to 2887
   17.9670    2.0709   -0.0056 LP  0  0  0  0  0  0  0  0  0  0  0  0  # atno 6000 bound_to 3171
   18.6511    2.3879   -1.4541 LP  0  0  0  0  0  0  0  0  0  0  0  0  # atno 6001 bound_to 3171
   12.7009    9.8939   10.0432 LP  0  0  0  0  0  0  0  0  0  0  0  0  # atno 6004 bound_to 5270
   14.3332    9.8989   10.0921 LP  0  0  0  0  0  0  0  0  0  0  0  0  # atno 6005 bound_to 5270
   10.2788   19.7908    8.8766 LP  0  0  0  0  0  0  0  0  0  0  0  0  # atno 6055 bound_to 637 
    9.7663   19.1085    7.4843 LP  0  0  0  0  0  0  0  0  0  0  0  0  # atno 6056 bound_to 637 
    2.1200   10.9019   10.3140 LP  0  0  0  0  0  0  0  0  0  0  0  0  # atno 6063 bound_to 1878
    0.6370   11.0183   10.9877 LP  0  0  0  0  0  0  0  0  0  0  0  0  # atno 6064 bound_to 1878
   -6.5084   15.7156   -1.4969 LP  0  0  0  0  0  0  0  0  0  0  0  0  # atno 6067 bound_to 957 
   -6.7725   17.2066   -0.8855 LP  0  0  0  0  0  0  0  0  0  0  0  0  # atno 6068 bound_to 957 

>  <STRIFE_LigEff_Score>  (103) 
2.5631055555555555

$$$$
unknown|pharmsElabsTestMulti|sdf|99|dock7
     RDKit          3D

 16 16  0  0  0  0  0  0  0  0999 V2000
    3.6377   10.1201    5.0236 C   0  0  0  0  0  0  0  0  0  0  0  0
    5.0924    9.7526    5.2942 C   0  0  0  0  0  0  0  0  0  0  0  0
    5.8830    9.6851    4.0049 C   0  0  0  0  0  0  0  0  0  0  0  0
    5.0472    9.9435    2.6185 S   0  0  0  0  0  0  0  0  0  0  0  0
    7.2623    9.2309    3.9294 N   0  0  0  0  0  0  0  0  0  0  0  0
    8.0193    9.1651    2.7022 C   0  0  0  0  0  0  0  0  0  0  0  0
    7.4499    9.3668    1.6051 O   0  0  0  0  0  0  0  0  0  0  0  0
    9.4872    8.8736    2.5887 C   0  0  0  0  0  0  0  0  0  0  0  0
    9.8571    7.3891    2.6559 C   0  0  0  0  0  0  0  0  0  0  0  0
   11.3739    7.1131    2.7040 C   0  0  0  0  0  0  0  0  0  0  0  0
   12.1676    8.2613    2.0606 C   0  0  0  0  0  0  0  0  0  0  0  0
   13.6596    7.9966    1.6895 C   0  0  0  0  0  0  0  0  0  0  0  0
   14.5245    9.2124    1.4029 C   0  0  0  0  0  0  0  0  0  0  0  0
   13.9476    6.8315    0.8598 N   0  0  0  0  0  0  0  0  0  0  0  0
   11.9487    9.5582    2.8674 C   0  0  0  0  0  0  0  0  0  0  0  0
   10.4641    9.9364    3.0612 C   0  0  0  0  0  0  0  0  0  0  0  0
  1  2  1  0
  2  3  1  0
  3  4  2  0
  3  5  1  0
  5  6  1  0
  6  7  2  0
  6  8  1  0
  8  9  1  0
  9 10  1  0
 10 11  1  0
 11 12  1  0
 12 13  1  0
 12 14  1  0
 11 15  1  0
 15 16  1  0
 16  8  1  0
M  CHG  1  14   1
M  END
>  <EmbedRMS>  (104) 
0.26587366078586644

>  <Gold.Version>  (104) 
2020.3.0

>  <Gold.Id.Protein>  (104) 
unknown|1q8t_protein|pdb

>  <Gold.PLP.Fitness>  (104) 
46.9874

>  <Gold.PLP.PLP>  (104) 
-38.3104

>  <Gold.PLP.part.hbond>  (104) 
-1.9958

>  <Gold.PLP.part.metal>  (104) 
0.0000

>  <Gold.PLP.part.buried>  (104) 
-2.1412

>  <Gold.PLP.part.nonpolar>  (104) 
-34.0571

>  <Gold.PLP.part.repulsive>  (104) 
0.0883

>  <Gold.PLP.ligand.clash>  (104) 
0.0000

>  <Gold.PLP.ligand.torsion>  (104) 
0.6537

>  <Gold.PLP.Chemscore.Hbond>  (104) 
2.9920

>  <Gold.PLP.Chemscore.CHOScore>  (104) 
0.0000

>  <Gold.PLP.Chemscore.Metal>  (104) 
0.0000

>  <Gold.Chemscore.Hbonds>  (104) 
donor molecule, donor type, donor heavy atom, donor atom, acceptor molecule, acceptor atom, score
      L1  H    14    33       P1  2691  0.99
      L1  H    14    35       P1  2902  2.00

>  <Gold.PLP.Chemscore.Internal.Correction>  (104) 
1.0085

>  <Gold.PLP.Constraint>  (104) 
-0.0000

>  <Gold.Protein.RotatedTorsions>  (104) 
[  681  677  676  673 ] final  -96.18 input -179.99 | X-H torsion
[  702  698  697  694 ] final -136.07 input  179.99 | X-H torsion
[ 2577 2569 2568 2566 ] final -166.24 input   -0.13 | X-H torsion
[ 2891 2887 2886 2883 ] final  164.11 input  179.98 | X-H torsion
[ 3175 3171 3170 3167 ] final   35.33 input -179.99 | X-H torsion
[ 5278 5270 5269 5267 ] final  -21.06 input    0.55 | X-H torsion
[  641  637  636  633 ] final  -60.73 input  179.99 | X-H torsion
[ 1886 1878 1877 1875 ] final -130.29 input    1.60 | X-H torsion
[  965  957  956  954 ] final  144.07 input    0.45 | X-H torsion

>  <Gold.Protein.ActiveResidues>  (104) 
 LYS47   THR48   LEU49   GLY50   THR51   GLY52   SER53   PHE54   GLY55   ARG56  
 VAL57   MET58   LEU59   TYR69   ALA70   MET71   LYS72   ILE73   LEU74   GLU91  
 LEU95   VAL104  LYS105  MET118  VAL119  MET120  GLU121  TYR122  VAL123  PRO124 
 GLY125  GLY126  GLU127  MET128  PHE129  TYR164  ASP166  LEU167  LYS168  PRO169 
 GLU170  ASN171  LEU172  LEU173  ILE174  GLN181  VAL182  THR183  ASP184  PHE185 
 GLY186  PHE187  GLY200  THR201  ASN326  PHE327  TYR330  ARG18   ARG19   ASN20  
 ALA21   ILE22   HIS23  

>  <Gold.Protein.RotatedAtoms>  (104) 
   10.1643   18.9784    7.3095 H   0  0  0  0  0  0  0  0  0  0  0  0  # atno 641  bound_to 637 
   15.9000   13.5927    7.3838 H   0  0  0  0  0  0  0  0  0  0  0  0  # atno 681  bound_to 677 
   21.1002   11.5472   -0.9732 H   0  0  0  0  0  0  0  0  0  0  0  0  # atno 702  bound_to 698 
   -7.0877   16.8366   -0.1612 H   0  0  0  0  0  0  0  0  0  0  0  0  # atno 965  bound_to 957 
    0.7899   10.8300   10.8692 H   0  0  0  0  0  0  0  0  0  0  0  0  # atno 1886 bound_to 1878
   10.7716    2.1058   -2.4882 H   0  0  0  0  0  0  0  0  0  0  0  0  # atno 2577 bound_to 2569
    7.5601    6.8413    1.3014 H   0  0  0  0  0  0  0  0  0  0  0  0  # atno 2891 bound_to 2887
   18.7344    2.4341   -1.4058 H   0  0  0  0  0  0  0  0  0  0  0  0  # atno 3175 bound_to 3171
   12.8045    9.8926   10.1227 H   0  0  0  0  0  0  0  0  0  0  0  0  # atno 5278 bound_to 5270
   17.2878   13.6480    6.6045 LP  0  0  0  0  0  0  0  0  0  0  0  0  # atno 5914 bound_to 677 
   16.1511   12.5428    6.2130 LP  0  0  0  0  0  0  0  0  0  0  0  0  # atno 5915 bound_to 677 
   19.9214   11.7596   -2.0234 LP  0  0  0  0  0  0  0  0  0  0  0  0  # atno 5920 bound_to 698 
   19.6257   11.7811   -0.4175 LP  0  0  0  0  0  0  0  0  0  0  0  0  # atno 5921 bound_to 698 
    9.2551    2.4572   -2.8230 LP  0  0  0  0  0  0  0  0  0  0  0  0  # atno 5950 bound_to 2569
   10.4737    3.3899   -3.3813 LP  0  0  0  0  0  0  0  0  0  0  0  0  # atno 5951 bound_to 2569
    8.3734    6.0381    0.1924 LP  0  0  0  0  0  0  0  0  0  0  0  0  # atno 5982 bound_to 2887
    7.3448    5.2667    1.1990 LP  0  0  0  0  0  0  0  0  0  0  0  0  # atno 5983 bound_to 2887
   19.2389    3.0123   -0.0105 LP  0  0  0  0  0  0  0  0  0  0  0  0  # atno 6000 bound_to 3171
   17.9331    2.0348   -0.0889 LP  0  0  0  0  0  0  0  0  0  0  0  0  # atno 6001 bound_to 3171
   14.3910    9.9257    9.9859 LP  0  0  0  0  0  0  0  0  0  0  0  0  # atno 6004 bound_to 5270
   13.4333   10.2330    8.6994 LP  0  0  0  0  0  0  0  0  0  0  0  0  # atno 6005 bound_to 5270
   11.3966   19.3966    8.2268 LP  0  0  0  0  0  0  0  0  0  0  0  0  # atno 6055 bound_to 637 
    9.8631   19.7173    8.6873 LP  0  0  0  0  0  0  0  0  0  0  0  0  # atno 6056 bound_to 637 
    1.3101   12.3342   10.9154 LP  0  0  0  0  0  0  0  0  0  0  0  0  # atno 6063 bound_to 1878
    2.2437   11.1437   10.3007 LP  0  0  0  0  0  0  0  0  0  0  0  0  # atno 6064 bound_to 1878
   -6.8912   15.3386   -0.6638 LP  0  0  0  0  0  0  0  0  0  0  0  0  # atno 6067 bound_to 957 
   -6.4522   16.6011   -1.6020 LP  0  0  0  0  0  0  0  0  0  0  0  0  # atno 6068 bound_to 957 

>  <STRIFE_LigEff_Score>  (104) 
2.9367125

$$$$
unknown|pharmsElabsTestMulti|sdf|105|dock3
     RDKit          3D

 15 15  0  0  0  0  0  0  0  0999 V2000
    3.7306    9.9221    5.2967 C   0  0  0  0  0  0  0  0  0  0  0  0
    5.2495    9.8549    5.4411 C   0  0  0  0  0  0  0  0  0  0  0  0
    5.9469    9.9511    4.0826 C   0  0  0  0  0  0  0  0  0  0  0  0
    7.3454    9.5537    4.1936 N   0  0  0  0  0  0  0  0  0  0  0  0
    8.1838    9.4078    3.0473 C   0  0  0  0  0  0  0  0  0  0  0  0
    7.7407    9.6706    1.8935 O   0  0  0  0  0  0  0  0  0  0  0  0
    9.6079    8.9684    3.2436 C   0  0  0  0  0  0  0  0  0  0  0  0
    9.8802    7.6433    2.5079 C   0  0  0  0  0  0  0  0  0  0  0  0
   11.3542    7.2298    2.6570 C   0  0  0  0  0  0  0  0  0  0  0  0
   12.2261    8.3597    2.0796 C   0  0  0  0  0  0  0  0  0  0  0  0
   13.6964    8.0361    1.6845 C   0  0  0  0  0  0  0  0  0  0  0  0
   14.6048    9.2209    1.4041 C   0  0  0  0  0  0  0  0  0  0  0  0
   13.9192    6.8694    0.8399 N   0  0  0  0  0  0  0  0  0  0  0  0
   12.0408    9.6357    2.9192 C   0  0  0  0  0  0  0  0  0  0  0  0
   10.5779   10.0937    2.8355 C   0  0  0  0  0  0  0  0  0  0  0  0
  1  2  1  0
  2  3  1  0
  3  4  1  0
  4  5  1  0
  5  6  2  0
  5  7  1  0
  7  8  1  0
  8  9  1  0
  9 10  1  0
 10 11  1  0
 11 12  1  0
 11 13  1  0
 10 14  1  0
 14 15  1  0
 15  7  1  0
M  CHG  1  13   1
M  END
>  <EmbedRMS>  (105) 
0.2000484947854372

>  <Gold.Version>  (105) 
2020.3.0

>  <Gold.Id.Protein>  (105) 
unknown|1q8t_protein|pdb

>  <Gold.PLP.Fitness>  (105) 
42.7462

>  <Gold.PLP.PLP>  (105) 
-34.0015

>  <Gold.PLP.part.hbond>  (105) 
-1.9827

>  <Gold.PLP.part.metal>  (105) 
0.0000

>  <Gold.PLP.part.buried>  (105) 
-3.2287

>  <Gold.PLP.part.nonpolar>  (105) 
-29.9355

>  <Gold.PLP.part.repulsive>  (105) 
0.0849

>  <Gold.PLP.ligand.clash>  (105) 
0.0000

>  <Gold.PLP.ligand.torsion>  (105) 
0.3099

>  <Gold.PLP.Chemscore.Hbond>  (105) 
2.9920

>  <Gold.PLP.Chemscore.CHOScore>  (105) 
0.0000

>  <Gold.PLP.Chemscore.Metal>  (105) 
0.0000

>  <Gold.Chemscore.Hbonds>  (105) 
donor molecule, donor type, donor heavy atom, donor atom, acceptor molecule, acceptor atom, score
      L1  H    13    34       P1  2691  0.99
      L1  H    13    35       P1  2902  2.00

>  <Gold.PLP.Chemscore.Internal.Correction>  (105) 
0.3885

>  <Gold.PLP.Constraint>  (105) 
-0.0000

>  <Gold.Protein.RotatedTorsions>  (105) 
[  681  677  676  673 ] final  119.96 input -179.99 | X-H torsion
[  702  698  697  694 ] final -136.18 input  179.99 | X-H torsion
[ 2577 2569 2568 2566 ] final   -8.82 input   -0.13 | X-H torsion
[ 2891 2887 2886 2883 ] final  173.31 input  179.98 | X-H torsion
[ 3175 3171 3170 3167 ] final  -69.84 input -179.99 | X-H torsion
[ 5278 5270 5269 5267 ] final  140.05 input    0.55 | X-H torsion
[  641  637  636  633 ] final   -5.29 input  179.99 | X-H torsion
[ 1886 1878 1877 1875 ] final -136.55 input    1.60 | X-H torsion
[  965  957  956  954 ] final  108.55 input    0.45 | X-H torsion

>  <Gold.Protein.ActiveResidues>  (105) 
 LYS47   THR48   LEU49   GLY50   THR51   GLY52   SER53   PHE54   GLY55   ARG56  
 VAL57   MET58   LEU59   TYR69   ALA70   MET71   LYS72   ILE73   LEU74   GLU91  
 LEU95   VAL104  LYS105  MET118  VAL119  MET120  GLU121  TYR122  VAL123  PRO124 
 GLY125  GLY126  GLU127  MET128  PHE129  TYR164  ASP166  LEU167  LYS168  PRO169 
 GLU170  ASN171  LEU172  LEU173  ILE174  GLN181  VAL182  THR183  ASP184  PHE185 
 GLY186  PHE187  GLY200  THR201  ASN326  PHE327  TYR330  ARG18   ARG19   ASN20  
 ALA21   ILE22   HIS23  

>  <Gold.Protein.RotatedAtoms>  (105) 
    9.6036   19.2831    7.8449 H   0  0  0  0  0  0  0  0  0  0  0  0  # atno 641  bound_to 637 
   17.2303   13.3741    6.3429 H   0  0  0  0  0  0  0  0  0  0  0  0  # atno 681  bound_to 677 
   21.1005   11.5472   -0.9749 H   0  0  0  0  0  0  0  0  0  0  0  0  # atno 702  bound_to 698 
   -7.1750   16.3288    0.0200 H   0  0  0  0  0  0  0  0  0  0  0  0  # atno 965  bound_to 957 
    0.7379   10.9047   10.9049 H   0  0  0  0  0  0  0  0  0  0  0  0  # atno 1886 bound_to 1878
    9.8863    3.3205   -3.3966 H   0  0  0  0  0  0  0  0  0  0  0  0  # atno 2577 bound_to 2569
    7.4723    6.7637    1.3845 H   0  0  0  0  0  0  0  0  0  0  0  0  # atno 2891 bound_to 2887
   19.3115    3.0140   -0.2417 H   0  0  0  0  0  0  0  0  0  0  0  0  # atno 3175 bound_to 3171
   14.0466   10.2060    8.9045 H   0  0  0  0  0  0  0  0  0  0  0  0  # atno 5278 bound_to 5270
   15.8468   12.5929    6.4511 LP  0  0  0  0  0  0  0  0  0  0  0  0  # atno 5914 bound_to 677 
   16.1921   13.8281    7.4619 LP  0  0  0  0  0  0  0  0  0  0  0  0  # atno 5915 bound_to 677 
   19.9198   11.7599   -2.0228 LP  0  0  0  0  0  0  0  0  0  0  0  0  # atno 5920 bound_to 698 
   19.6271   11.7808   -0.4164 LP  0  0  0  0  0  0  0  0  0  0  0  0  # atno 5921 bound_to 698 
   11.1009    2.5293   -2.7378 LP  0  0  0  0  0  0  0  0  0  0  0  0  # atno 5950 bound_to 2569
    9.5601    2.0387   -2.5101 LP  0  0  0  0  0  0  0  0  0  0  0  0  # atno 5951 bound_to 2569
    8.3856    6.1873    0.2140 LP  0  0  0  0  0  0  0  0  0  0  0  0  # atno 5982 bound_to 2887
    7.4250    5.1992    1.0900 LP  0  0  0  0  0  0  0  0  0  0  0  0  # atno 5983 bound_to 2887
   18.0318    2.1340    0.1102 LP  0  0  0  0  0  0  0  0  0  0  0  0  # atno 6000 bound_to 3171
   18.5328    2.3028   -1.4348 LP  0  0  0  0  0  0  0  0  0  0  0  0  # atno 6001 bound_to 3171
   12.5915   10.0206    9.5250 LP  0  0  0  0  0  0  0  0  0  0  0  0  # atno 6004 bound_to 5270
   13.9259    9.8083   10.4420 LP  0  0  0  0  0  0  0  0  0  0  0  0  # atno 6005 bound_to 5270
   11.1314   19.0281    7.4763 LP  0  0  0  0  0  0  0  0  0  0  0  0  # atno 6055 bound_to 637 
   10.7189   19.7649    8.8740 LP  0  0  0  0  0  0  0  0  0  0  0  0  # atno 6056 bound_to 637 
    1.4040   12.3506   10.8768 LP  0  0  0  0  0  0  0  0  0  0  0  0  # atno 6063 bound_to 1878
    2.2045   11.0486   10.3018 LP  0  0  0  0  0  0  0  0  0  0  0  0  # atno 6064 bound_to 1878
   -6.6548   15.4226   -1.1814 LP  0  0  0  0  0  0  0  0  0  0  0  0  # atno 6067 bound_to 957 
   -6.5966   17.0519   -1.2752 LP  0  0  0  0  0  0  0  0  0  0  0  0  # atno 6068 bound_to 957 

>  <STRIFE_LigEff_Score>  (105) 
2.849746666666667

$$$$
unknown|pharmsElabsTestMulti|sdf|106|dock1
     RDKit          3D

 17 17  0  0  0  0  0  0  0  0999 V2000
    3.9766   10.0764    5.5880 C   0  0  0  0  0  0  0  0  0  0  0  0
    4.2327    9.7078    4.2025 N   0  0  0  0  0  0  0  0  0  0  0  0
    5.5072    9.2125    3.7781 C   0  0  0  0  0  0  0  0  0  0  0  0
    6.4494    9.0800    4.6053 O   0  0  0  0  0  0  0  0  0  0  0  0
    5.7319    8.8582    2.3452 C   0  0  0  0  0  0  0  0  0  0  0  0
    7.1055    8.3922    2.1020 N   0  0  0  0  0  0  0  0  0  0  0  0
    8.1939    9.2509    2.4830 C   0  0  0  0  0  0  0  0  0  0  0  0
    7.9345   10.3923    2.9403 O   0  0  0  0  0  0  0  0  0  0  0  0
    9.6532    8.9086    2.4157 C   0  0  0  0  0  0  0  0  0  0  0  0
    9.9833    7.4375    2.6823 C   0  0  0  0  0  0  0  0  0  0  0  0
   11.4917    7.1323    2.7887 C   0  0  0  0  0  0  0  0  0  0  0  0
   12.3236    8.1679    2.0158 C   0  0  0  0  0  0  0  0  0  0  0  0
   13.8124    7.8201    1.7050 C   0  0  0  0  0  0  0  0  0  0  0  0
   14.7861    8.9827    1.6105 C   0  0  0  0  0  0  0  0  0  0  0  0
   14.0652    6.7324    0.7661 N   0  0  0  0  0  0  0  0  0  0  0  0
   12.1300    9.5622    2.6464 C   0  0  0  0  0  0  0  0  0  0  0  0
   10.6538    9.9991    2.7629 C   0  0  0  0  0  0  0  0  0  0  0  0
  1  2  1  0
  2  3  1  0
  3  4  2  0
  3  5  1  0
  5  6  1  0
  6  7  1  0
  7  8  2  0
  7  9  1  0
  9 10  1  0
 10 11  1  0
 11 12  1  0
 12 13  1  0
 13 14  1  0
 13 15  1  0
 12 16  1  0
 16 17  1  0
 17  9  1  0
M  CHG  1  15   1
M  END
>  <EmbedRMS>  (106) 
0.2569057114362328

>  <Gold.Version>  (106) 
2020.3.0

>  <Gold.Id.Protein>  (106) 
unknown|1q8t_protein|pdb

>  <Gold.PLP.Fitness>  (106) 
41.4328

>  <Gold.PLP.PLP>  (106) 
-30.3247

>  <Gold.PLP.part.hbond>  (106) 
-2.8869

>  <Gold.PLP.part.metal>  (106) 
0.0000

>  <Gold.PLP.part.buried>  (106) 
-1.2080

>  <Gold.PLP.part.nonpolar>  (106) 
-27.6300

>  <Gold.PLP.part.repulsive>  (106) 
0.1552

>  <Gold.PLP.ligand.clash>  (106) 
0.0000

>  <Gold.PLP.ligand.torsion>  (106) 
0.9591

>  <Gold.PLP.Chemscore.Hbond>  (106) 
4.0000

>  <Gold.PLP.Chemscore.CHOScore>  (106) 
0.0000

>  <Gold.PLP.Chemscore.Metal>  (106) 
0.0000

>  <Gold.Chemscore.Hbonds>  (106) 
donor molecule, donor type, donor heavy atom, donor atom, acceptor molecule, acceptor atom, score
      L1  H     6    24       P1  2887  1.00
      L1  H    15    36       P1  2691  1.00
      L1  H    15    37       P1  2902  2.00

>  <Gold.PLP.Chemscore.Internal.Correction>  (106) 
1.0264

>  <Gold.PLP.Constraint>  (106) 
-0.0000

>  <Gold.Protein.RotatedTorsions>  (106) 
[  681  677  676  673 ] final   54.37 input -179.99 | X-H torsion
[  702  698  697  694 ] final  136.95 input  179.99 | X-H torsion
[ 2577 2569 2568 2566 ] final -106.67 input   -0.13 | X-H torsion
[ 2891 2887 2886 2883 ] final   -2.90 input  179.98 | X-H torsion
[ 3175 3171 3170 3167 ] final  153.28 input -179.99 | X-H torsion
[ 5278 5270 5269 5267 ] final   26.18 input    0.55 | X-H torsion
[  641  637  636  633 ] final -172.35 input  179.99 | X-H torsion
[ 1886 1878 1877 1875 ] final  -82.49 input    1.60 | X-H torsion
[  965  957  956  954 ] final   22.00 input    0.45 | X-H torsion

>  <Gold.Protein.ActiveResidues>  (106) 
 LYS47   THR48   LEU49   GLY50   THR51   GLY52   SER53   PHE54   GLY55   ARG56  
 VAL57   MET58   LEU59   TYR69   ALA70   MET71   LYS72   ILE73   LEU74   GLU91  
 LEU95   VAL104  LYS105  MET118  VAL119  MET120  GLU121  TYR122  VAL123  PRO124 
 GLY125  GLY126  GLU127  MET128  PHE129  TYR164  ASP166  LEU167  LYS168  PRO169 
 GLU170  ASN171  LEU172  LEU173  ILE174  GLN181  VAL182  THR183  ASP184  PHE185 
 GLY186  PHE187  GLY200  THR201  ASN326  PHE327  TYR330  ARG18   ARG19   ASN20  
 ALA21   ILE22   HIS23  

>  <Gold.Protein.RotatedAtoms>  (106) 
   11.3625   19.3203    8.1102 H   0  0  0  0  0  0  0  0  0  0  0  0  # atno 641  bound_to 637 
   16.5897   12.6983    6.0697 H   0  0  0  0  0  0  0  0  0  0  0  0  # atno 681  bound_to 677 
   20.4406   11.6841   -2.0066 H   0  0  0  0  0  0  0  0  0  0  0  0  # atno 702  bound_to 698 
   -6.8595   15.3807   -0.6931 H   0  0  0  0  0  0  0  0  0  0  0  0  # atno 965  bound_to 957 
    1.3800   10.5424   10.5600 H   0  0  0  0  0  0  0  0  0  0  0  0  # atno 1886 bound_to 1878
   11.0548    2.8082   -2.9552 H   0  0  0  0  0  0  0  0  0  0  0  0  # atno 2577 bound_to 2569
    8.0578    5.4016    0.3800 H   0  0  0  0  0  0  0  0  0  0  0  0  # atno 2891 bound_to 2887
   17.9688    2.0332   -0.1370 H   0  0  0  0  0  0  0  0  0  0  0  0  # atno 3175 bound_to 3171
   12.6517   10.0591    9.4411 H   0  0  0  0  0  0  0  0  0  0  0  0  # atno 5278 bound_to 5270
   15.6230   13.2277    7.2192 LP  0  0  0  0  0  0  0  0  0  0  0  0  # atno 5914 bound_to 677 
   17.0900   13.9045    6.9813 LP  0  0  0  0  0  0  0  0  0  0  0  0  # atno 5915 bound_to 677 
   19.3392   11.8405   -0.8665 LP  0  0  0  0  0  0  0  0  0  0  0  0  # atno 5920 bound_to 698 
   20.9018   11.5562   -0.4873 LP  0  0  0  0  0  0  0  0  0  0  0  0  # atno 5921 bound_to 698 
    9.8736    1.9013   -2.3917 LP  0  0  0  0  0  0  0  0  0  0  0  0  # atno 5950 bound_to 2569
    9.5571    3.2062   -3.3210 LP  0  0  0  0  0  0  0  0  0  0  0  0  # atno 5951 bound_to 2569
    7.1345    5.8750    1.5883 LP  0  0  0  0  0  0  0  0  0  0  0  0  # atno 5982 bound_to 2887
    8.0599    6.9450    0.7727 LP  0  0  0  0  0  0  0  0  0  0  0  0  # atno 5983 bound_to 2887
   18.7557    2.4656   -1.4522 LP  0  0  0  0  0  0  0  0  0  0  0  0  # atno 6000 bound_to 3171
   19.2220    3.0034    0.0175 LP  0  0  0  0  0  0  0  0  0  0  0  0  # atno 6001 bound_to 3171
   13.8322    9.7984   10.4781 LP  0  0  0  0  0  0  0  0  0  0  0  0  # atno 6004 bound_to 5270
   14.1530   10.1850    8.9243 LP  0  0  0  0  0  0  0  0  0  0  0  0  # atno 6005 bound_to 5270
    9.9745   19.7491    8.7617 LP  0  0  0  0  0  0  0  0  0  0  0  0  # atno 6055 bound_to 637 
   10.0233   19.0047    7.3091 LP  0  0  0  0  0  0  0  0  0  0  0  0  # atno 6056 bound_to 637 
    0.7190   11.8867   11.0996 LP  0  0  0  0  0  0  0  0  0  0  0  0  # atno 6063 bound_to 1878
    2.2136   11.8939   10.4419 LP  0  0  0  0  0  0  0  0  0  0  0  0  # atno 6064 bound_to 1878
   -6.4572   16.6329   -1.5903 LP  0  0  0  0  0  0  0  0  0  0  0  0  # atno 6067 bound_to 957 
   -7.1265   16.8401   -0.1153 LP  0  0  0  0  0  0  0  0  0  0  0  0  # atno 6068 bound_to 957 

>  <STRIFE_LigEff_Score>  (106) 
2.4372235294117646

$$$$
unknown|pharmsElabsTestMulti|sdf|107|dock9
     RDKit          3D

 18 18  0  0  0  0  0  0  0  0999 V2000
    4.2773    9.2154    1.9740 C   0  0  0  0  0  0  0  0  0  0  0  0
    3.3330    8.8136    3.1002 C   0  0  0  0  0  0  0  0  0  0  0  0
    3.1452    9.9736    4.0692 C   0  0  0  0  0  0  0  0  0  0  0  0
    3.6888    9.6263    5.3848 N   0  0  0  0  0  0  0  0  0  0  0  0
    5.0685    9.1445    5.2459 C   0  0  0  0  0  0  0  0  0  0  0  0
    5.9075   10.1306    4.4346 C   0  0  0  0  0  0  0  0  0  0  0  0
    7.2971    9.6899    4.3914 N   0  0  0  0  0  0  0  0  0  0  0  0
    7.8490    8.9672    3.2869 C   0  0  0  0  0  0  0  0  0  0  0  0
    7.1146    8.6345    2.3130 O   0  0  0  0  0  0  0  0  0  0  0  0
    9.3161    8.6157    3.2864 C   0  0  0  0  0  0  0  0  0  0  0  0
    9.6629    7.8936    1.9898 C   0  0  0  0  0  0  0  0  0  0  0  0
   11.0980    7.4007    1.9632 C   0  0  0  0  0  0  0  0  0  0  0  0
   12.1294    8.3669    2.5758 C   0  0  0  0  0  0  0  0  0  0  0  0
   13.5885    8.2592    2.0072 C   0  0  0  0  0  0  0  0  0  0  0  0
   14.7001    7.9957    3.0342 C   0  0  0  0  0  0  0  0  0  0  0  0
   13.6860    7.2997    0.9015 N   0  0  0  0  0  0  0  0  0  0  0  0
   11.6636    9.7157    3.1636 C   0  0  0  0  0  0  0  0  0  0  0  0
   10.1574    9.8874    3.4424 C   0  0  0  0  0  0  0  0  0  0  0  0
  1  2  1  0
  2  3  1  0
  3  4  1  0
  4  5  1  0
  5  6  1  0
  6  7  1  0
  7  8  1  0
  8  9  2  0
  8 10  1  0
 10 11  1  0
 11 12  1  0
 12 13  1  0
 13 14  1  0
 14 15  1  0
 14 16  1  0
 13 17  1  0
 17 18  1  0
 18 10  1  0
M  CHG  1  16   1
M  END
>  <EmbedRMS>  (107) 
0.16499967102600221

>  <Gold.Version>  (107) 
2020.3.0

>  <Gold.Id.Protein>  (107) 
unknown|1q8t_protein|pdb

>  <Gold.PLP.Fitness>  (107) 
54.9898

>  <Gold.PLP.PLP>  (107) 
-43.7983

>  <Gold.PLP.part.hbond>  (107) 
-3.3946

>  <Gold.PLP.part.metal>  (107) 
0.0000

>  <Gold.PLP.part.buried>  (107) 
-3.3295

>  <Gold.PLP.part.nonpolar>  (107) 
-36.6912

>  <Gold.PLP.part.repulsive>  (107) 
0.0404

>  <Gold.PLP.ligand.clash>  (107) 
0.0000

>  <Gold.PLP.ligand.torsion>  (107) 
1.6357

>  <Gold.PLP.Chemscore.Hbond>  (107) 
4.5113

>  <Gold.PLP.Chemscore.CHOScore>  (107) 
0.0000

>  <Gold.PLP.Chemscore.Metal>  (107) 
0.0000

>  <Gold.Chemscore.Hbonds>  (107) 
donor molecule, donor type, donor heavy atom, donor atom, acceptor molecule, acceptor atom, score
      L1  H     4    26       P1  1891  0.55
      L1  H    16    42       P1  2902  2.00
      L1  H    16    44       P1  2691  1.00
      P1  H  2887  2891       L1     9  0.96

>  <Gold.PLP.Chemscore.Internal.Correction>  (107) 
0.9292

>  <Gold.PLP.Constraint>  (107) 
-0.0000

>  <Gold.Protein.RotatedTorsions>  (107) 
[  681  677  676  673 ] final  -38.55 input -179.99 | X-H torsion
[  702  698  697  694 ] final  -17.17 input  179.99 | X-H torsion
[ 2577 2569 2568 2566 ] final  -32.51 input   -0.13 | X-H torsion
[ 2891 2887 2886 2883 ] final  156.90 input  179.98 | X-H torsion
[ 3175 3171 3170 3167 ] final   92.46 input -179.99 | X-H torsion
[ 5278 5270 5269 5267 ] final   17.62 input    0.55 | X-H torsion
[  641  637  636  633 ] final   82.82 input  179.99 | X-H torsion
[ 1886 1878 1877 1875 ] final -105.20 input    1.60 | X-H torsion
[  965  957  956  954 ] final   29.04 input    0.45 | X-H torsion

>  <Gold.Protein.ActiveResidues>  (107) 
 LYS47   THR48   LEU49   GLY50   THR51   GLY52   SER53   PHE54   GLY55   ARG56  
 VAL57   MET58   LEU59   TYR69   ALA70   MET71   LYS72   ILE73   LEU74   GLU91  
 LEU95   VAL104  LYS105  MET118  VAL119  MET120  GLU121  TYR122  VAL123  PRO124 
 GLY125  GLY126  GLU127  MET128  PHE129  TYR164  ASP166  LEU167  LYS168  PRO169 
 GLU170  ASN171  LEU172  LEU173  ILE174  GLN181  VAL182  THR183  ASP184  PHE185 
 GLY186  PHE187  GLY200  THR201  ASN326  PHE327  TYR330  ARG18   ARG19   ASN20  
 ALA21   ILE22   HIS23  

>  <Gold.Protein.RotatedAtoms>  (107) 
   10.2140   19.7493    8.8247 H   0  0  0  0  0  0  0  0  0  0  0  0  # atno 641  bound_to 637 
   15.6208   12.9326    6.9023 H   0  0  0  0  0  0  0  0  0  0  0  0  # atno 681  bound_to 677 
   19.6714   11.7903   -0.4416 H   0  0  0  0  0  0  0  0  0  0  0  0  # atno 702  bound_to 698 
   -6.9041   15.4013   -0.5946 H   0  0  0  0  0  0  0  0  0  0  0  0  # atno 965  bound_to 957 
    1.0676   10.6095   10.7092 H   0  0  0  0  0  0  0  0  0  0  0  0  # atno 1886 bound_to 1878
   10.2505    3.3709   -3.4048 H   0  0  0  0  0  0  0  0  0  0  0  0  # atno 2577 bound_to 2569
    7.6325    6.8883    1.2288 H   0  0  0  0  0  0  0  0  0  0  0  0  # atno 2891 bound_to 2887
   18.0915    2.0064   -1.0351 H   0  0  0  0  0  0  0  0  0  0  0  0  # atno 3175 bound_to 3171
   12.6353   10.0271    9.5700 H   0  0  0  0  0  0  0  0  0  0  0  0  # atno 5278 bound_to 5270
   16.7608   13.9841    7.2642 LP  0  0  0  0  0  0  0  0  0  0  0  0  # atno 5914 bound_to 677 
   16.9720   12.9015    6.0601 LP  0  0  0  0  0  0  0  0  0  0  0  0  # atno 5915 bound_to 677 
   21.1454   11.5226   -0.9829 LP  0  0  0  0  0  0  0  0  0  0  0  0  # atno 5920 bound_to 698 
   19.9047   11.7625   -2.0171 LP  0  0  0  0  0  0  0  0  0  0  0  0  # atno 5921 bound_to 698 
   10.9511    2.2310   -2.5417 LP  0  0  0  0  0  0  0  0  0  0  0  0  # atno 5950 bound_to 2569
    9.3265    2.2840   -2.6975 LP  0  0  0  0  0  0  0  0  0  0  0  0  # atno 5951 bound_to 2569
    8.3528    5.9213    0.1883 LP  0  0  0  0  0  0  0  0  0  0  0  0  # atno 5982 bound_to 2887
    7.2893    5.3340    1.2795 LP  0  0  0  0  0  0  0  0  0  0  0  0  # atno 5983 bound_to 2887
   19.3479    2.9760   -0.9047 LP  0  0  0  0  0  0  0  0  0  0  0  0  # atno 6000 bound_to 3171
   18.5006    2.5212    0.4151 LP  0  0  0  0  0  0  0  0  0  0  0  0  # atno 6001 bound_to 3171
   13.9618    9.8128   10.4251 LP  0  0  0  0  0  0  0  0  0  0  0  0  # atno 6004 bound_to 5270
   14.0406   10.2042    8.8417 LP  0  0  0  0  0  0  0  0  0  0  0  0  # atno 6005 bound_to 5270
    9.8220   19.0799    7.4344 LP  0  0  0  0  0  0  0  0  0  0  0  0  # atno 6055 bound_to 637 
   11.3854   19.2221    7.8840 LP  0  0  0  0  0  0  0  0  0  0  0  0  # atno 6056 bound_to 637 
    0.9597   12.1631   11.0407 LP  0  0  0  0  0  0  0  0  0  0  0  0  # atno 6063 bound_to 1878
    2.3018   11.5469   10.3439 LP  0  0  0  0  0  0  0  0  0  0  0  0  # atno 6064 bound_to 1878
   -6.4422   16.5235   -1.6254 LP  0  0  0  0  0  0  0  0  0  0  0  0  # atno 6067 bound_to 957 
   -7.0944   16.9278   -0.1839 LP  0  0  0  0  0  0  0  0  0  0  0  0  # atno 6068 bound_to 957 

>  <STRIFE_LigEff_Score>  (107) 
3.054988888888889

$$$$
unknown|pharmsElabsTestMulti|sdf|108|dock2
     RDKit          3D

 17 17  0  0  0  0  0  0  0  0999 V2000
    3.9107    9.4008    2.4443 C   0  0  0  0  0  0  0  0  0  0  0  0
    3.5974    8.6136    3.7063 C   0  0  0  0  0  0  0  0  0  0  0  0
    3.7421    9.4690    4.8894 N   0  0  0  0  0  0  0  0  0  0  0  0
    5.1510    9.4865    5.2926 C   0  0  0  0  0  0  0  0  0  0  0  0
    5.9662   10.4219    4.3936 C   0  0  0  0  0  0  0  0  0  0  0  0
    7.3658    9.9765    4.3288 N   0  0  0  0  0  0  0  0  0  0  0  0
    7.9403    9.5747    3.0734 C   0  0  0  0  0  0  0  0  0  0  0  0
    7.2176    9.5604    2.0462 O   0  0  0  0  0  0  0  0  0  0  0  0
    9.3704    9.1832    2.8522 C   0  0  0  0  0  0  0  0  0  0  0  0
    9.6074    7.6824    2.6678 C   0  0  0  0  0  0  0  0  0  0  0  0
   11.0947    7.2747    2.6223 C   0  0  0  0  0  0  0  0  0  0  0  0
   11.9774    8.4443    2.1577 C   0  0  0  0  0  0  0  0  0  0  0  0
   13.4342    8.1216    1.7033 C   0  0  0  0  0  0  0  0  0  0  0  0
   14.3322    9.3037    1.3800 C   0  0  0  0  0  0  0  0  0  0  0  0
   13.6275    6.9545    0.8494 N   0  0  0  0  0  0  0  0  0  0  0  0
   11.8865    9.5984    3.1769 C   0  0  0  0  0  0  0  0  0  0  0  0
   10.4444   10.0631    3.4705 C   0  0  0  0  0  0  0  0  0  0  0  0
  1  2  1  0
  2  3  1  0
  3  4  1  0
  4  5  1  0
  5  6  1  0
  6  7  1  0
  7  8  2  0
  7  9  1  0
  9 10  1  0
 10 11  1  0
 11 12  1  0
 12 13  1  0
 13 14  1  0
 13 15  1  0
 12 16  1  0
 16 17  1  0
 17  9  1  0
M  CHG  1  15   1
M  END
>  <EmbedRMS>  (108) 
0.25842907567579826

>  <Gold.Version>  (108) 
2020.3.0

>  <Gold.Id.Protein>  (108) 
unknown|1q8t_protein|pdb

>  <Gold.PLP.Fitness>  (108) 
48.2523

>  <Gold.PLP.PLP>  (108) 
-40.1229

>  <Gold.PLP.part.hbond>  (108) 
-1.7573

>  <Gold.PLP.part.metal>  (108) 
0.0000

>  <Gold.PLP.part.buried>  (108) 
-5.3271

>  <Gold.PLP.part.nonpolar>  (108) 
-32.7873

>  <Gold.PLP.part.repulsive>  (108) 
0.0694

>  <Gold.PLP.ligand.clash>  (108) 
0.0000

>  <Gold.PLP.ligand.torsion>  (108) 
0.8844

>  <Gold.PLP.Chemscore.Hbond>  (108) 
2.8960

>  <Gold.PLP.Chemscore.CHOScore>  (108) 
0.0000

>  <Gold.PLP.Chemscore.Metal>  (108) 
0.0000

>  <Gold.Chemscore.Hbonds>  (108) 
donor molecule, donor type, donor heavy atom, donor atom, acceptor molecule, acceptor atom, score
      L1  H    15    39       P1  2691  0.90
      L1  H    15    40       P1  2902  2.00

>  <Gold.PLP.Chemscore.Internal.Correction>  (108) 
1.2103

>  <Gold.PLP.Constraint>  (108) 
-0.0000

>  <Gold.Protein.RotatedTorsions>  (108) 
[  681  677  676  673 ] final -114.22 input -179.99 | X-H torsion
[  702  698  697  694 ] final   -3.31 input  179.99 | X-H torsion
[ 2577 2569 2568 2566 ] final  125.72 input   -0.13 | X-H torsion
[ 2891 2887 2886 2883 ] final   32.73 input  179.98 | X-H torsion
[ 3175 3171 3170 3167 ] final   63.42 input -179.99 | X-H torsion
[ 5278 5270 5269 5267 ] final  -49.19 input    0.55 | X-H torsion
[  641  637  636  633 ] final  -11.13 input  179.99 | X-H torsion
[ 1886 1878 1877 1875 ] final   24.58 input    1.60 | X-H torsion
[  965  957  956  954 ] final  -21.76 input    0.45 | X-H torsion

>  <Gold.Protein.ActiveResidues>  (108) 
 LYS47   THR48   LEU49   GLY50   THR51   GLY52   SER53   PHE54   GLY55   ARG56  
 VAL57   MET58   LEU59   TYR69   ALA70   MET71   LYS72   ILE73   LEU74   GLU91  
 LEU95   VAL104  LYS105  MET118  VAL119  MET120  GLU121  TYR122  VAL123  PRO124 
 GLY125  GLY126  GLU127  MET128  PHE129  TYR164  ASP166  LEU167  LYS168  PRO169 
 GLU170  ASN171  LEU172  LEU173  ILE174  GLN181  VAL182  THR183  ASP184  PHE185 
 GLY186  PHE187  GLY200  THR201  ASN326  PHE327  TYR330  ARG18   ARG19   ASN20  
 ALA21   ILE22   HIS23  

>  <Gold.Protein.RotatedAtoms>  (108) 
    9.6311   19.2424    7.7681 H   0  0  0  0  0  0  0  0  0  0  0  0  # atno 641  bound_to 637 
   16.1193   13.7648    7.4186 H   0  0  0  0  0  0  0  0  0  0  0  0  # atno 681  bound_to 677 
   19.5246   11.8193   -0.5978 H   0  0  0  0  0  0  0  0  0  0  0  0  # atno 702  bound_to 698 
   -6.5907   15.5488   -1.2802 H   0  0  0  0  0  0  0  0  0  0  0  0  # atno 965  bound_to 957 
    2.2309   11.6907   10.3807 H   0  0  0  0  0  0  0  0  0  0  0  0  # atno 1886 bound_to 1878
    9.7803    1.9629   -2.4617 H   0  0  0  0  0  0  0  0  0  0  0  0  # atno 2577 bound_to 2569
    8.2956    5.8677    0.2163 H   0  0  0  0  0  0  0  0  0  0  0  0  # atno 2891 bound_to 2887
   18.3865    2.1875   -1.3213 H   0  0  0  0  0  0  0  0  0  0  0  0  # atno 3175 bound_to 3171
   13.1381    9.8288   10.3954 H   0  0  0  0  0  0  0  0  0  0  0  0  # atno 5278 bound_to 5270
   17.2948   13.4403    6.3943 LP  0  0  0  0  0  0  0  0  0  0  0  0  # atno 5914 bound_to 677 
   15.9134   12.5694    6.3866 LP  0  0  0  0  0  0  0  0  0  0  0  0  # atno 5915 bound_to 677 
   21.0821   11.5296   -0.7645 LP  0  0  0  0  0  0  0  0  0  0  0  0  # atno 5920 bound_to 698 
   20.1224   11.7249   -2.0713 LP  0  0  0  0  0  0  0  0  0  0  0  0  # atno 5921 bound_to 698 
    9.6564    3.2721   -3.3594 LP  0  0  0  0  0  0  0  0  0  0  0  0  # atno 5950 bound_to 2569
   11.1162    2.7254   -2.8729 LP  0  0  0  0  0  0  0  0  0  0  0  0  # atno 5951 bound_to 2569
    7.2605    5.3782    1.3233 LP  0  0  0  0  0  0  0  0  0  0  0  0  # atno 5982 bound_to 2887
    7.6836    6.9513    1.2101 LP  0  0  0  0  0  0  0  0  0  0  0  0  # atno 5983 bound_to 2887
   19.3839    3.0632   -0.4415 LP  0  0  0  0  0  0  0  0  0  0  0  0  # atno 6000 bound_to 3171
   18.1542    2.2434    0.2531 LP  0  0  0  0  0  0  0  0  0  0  0  0  # atno 6001 bound_to 3171
   14.4708   10.0345    9.5479 LP  0  0  0  0  0  0  0  0  0  0  0  0  # atno 6004 bound_to 5270
   13.0026   10.1912    8.8504 LP  0  0  0  0  0  0  0  0  0  0  0  0  # atno 6005 bound_to 5270
   11.1961   19.0575    7.5409 LP  0  0  0  0  0  0  0  0  0  0  0  0  # atno 6055 bound_to 637 
   10.6252   19.7784    8.8903 LP  0  0  0  0  0  0  0  0  0  0  0  0  # atno 6056 bound_to 637 
    1.1924   10.5158   10.6571 LP  0  0  0  0  0  0  0  0  0  0  0  0  # atno 6063 bound_to 1878
    0.8445   12.0561   11.0732 LP  0  0  0  0  0  0  0  0  0  0  0  0  # atno 6064 bound_to 1878
   -6.6576   17.1333   -1.1395 LP  0  0  0  0  0  0  0  0  0  0  0  0  # atno 6067 bound_to 957 
   -7.2092   16.1627    0.0523 LP  0  0  0  0  0  0  0  0  0  0  0  0  # atno 6068 bound_to 957 

>  <STRIFE_LigEff_Score>  (108) 
2.838370588235294

$$$$
unknown|pharmsElabsTestMulti|sdf|109|dock2
     RDKit          3D

 20 20  0  0  0  0  0  0  0  0999 V2000
   14.6224    7.2737    1.7776 C   0  0  0  0  0  0  0  0  0  0  0  0
   14.0460    8.3609    2.6685 C   0  0  0  0  0  0  0  0  0  0  0  0
   14.7787    8.6034    3.9049 N   0  0  0  0  0  0  0  0  0  0  0  0
   12.4941    8.4692    2.7262 C   0  0  0  0  0  0  0  0  0  0  0  0
   11.6819    7.2124    3.0882 C   0  0  0  0  0  0  0  0  0  0  0  0
   10.2333    7.4294    2.6171 C   0  0  0  0  0  0  0  0  0  0  0  0
    9.6237    8.6776    3.2827 C   0  0  0  0  0  0  0  0  0  0  0  0
    8.2267    8.9274    2.7831 C   0  0  0  0  0  0  0  0  0  0  0  0
    7.5398    7.9857    2.2960 O   0  0  0  0  0  0  0  0  0  0  0  0
    7.6998   10.2577    2.8487 N   0  0  0  0  0  0  0  0  0  0  0  0
    6.3764   10.6286    2.3646 C   0  0  0  0  0  0  0  0  0  0  0  0
    5.3044   10.0511    3.2647 C   0  0  0  0  0  0  0  0  0  0  0  0
    4.1891    9.2300    2.7152 C   0  0  0  0  0  0  0  0  0  0  0  0
    3.7566    9.2942    1.4545 C   0  0  0  0  0  0  0  0  0  0  0  0
    2.6928    8.4533    1.0161 N   0  0  0  0  0  0  0  0  0  0  0  0
    5.4253   10.2778    4.5892 C   0  0  0  0  0  0  0  0  0  0  0  0
    4.4843    9.8044    5.6212 C   0  0  0  0  0  0  0  0  0  0  0  0
    3.3004    9.5318    5.3012 O   0  0  0  0  0  0  0  0  0  0  0  0
   10.4932    9.9370    3.1037 C   0  0  0  0  0  0  0  0  0  0  0  0
   11.9518    9.6782    3.5088 C   0  0  0  0  0  0  0  0  0  0  0  0
  1  2  1  0
  2  3  1  0
  2  4  1  0
  4  5  1  0
  5  6  1  0
  6  7  1  0
  7  8  1  0
  8  9  2  0
  8 10  1  0
 10 11  1  0
 11 12  1  0
 12 13  1  0
 13 14  2  0
 14 15  1  0
 12 16  2  0
 16 17  1  0
 17 18  2  0
  7 19  1  0
 19 20  1  0
 20  4  1  0
M  CHG  1   3   1
M  END
>  <EmbedRMS>  (109) 
0.17563675685682514

>  <Gold.Version>  (109) 
2020.3.0

>  <Gold.Id.Protein>  (109) 
unknown|1q8t_protein|pdb

>  <Gold.PLP.Fitness>  (109) 
41.9355

>  <Gold.PLP.PLP>  (109) 
-34.5049

>  <Gold.PLP.part.hbond>  (109) 
-3.5508

>  <Gold.PLP.part.metal>  (109) 
0.0000

>  <Gold.PLP.part.buried>  (109) 
4.7139

>  <Gold.PLP.part.nonpolar>  (109) 
-36.5549

>  <Gold.PLP.part.repulsive>  (109) 
0.9218

>  <Gold.PLP.ligand.clash>  (109) 
0.0000

>  <Gold.PLP.ligand.torsion>  (109) 
1.2510

>  <Gold.PLP.Chemscore.Hbond>  (109) 
2.9913

>  <Gold.PLP.Chemscore.CHOScore>  (109) 
0.0000

>  <Gold.PLP.Chemscore.Metal>  (109) 
0.0000

>  <Gold.Chemscore.Hbonds>  (109) 
donor molecule, donor type, donor heavy atom, donor atom, acceptor molecule, acceptor atom, score
      L1  H     3    25       P1   675  1.00
      P1  H  2887  2891       L1     9  0.99
      P1  H  1888  1903       L1    18  1.00

>  <Gold.PLP.Chemscore.Internal.Correction>  (109) 
0.9588

>  <Gold.PLP.Constraint>  (109) 
-0.0000

>  <Gold.Protein.RotatedTorsions>  (109) 
[  681  677  676  673 ] final   -1.36 input -179.99 | X-H torsion
[  702  698  697  694 ] final  111.08 input  179.99 | X-H torsion
[ 2577 2569 2568 2566 ] final -104.28 input   -0.13 | X-H torsion
[ 2891 2887 2886 2883 ] final -173.98 input  179.98 | X-H torsion
[ 3175 3171 3170 3167 ] final  104.83 input -179.99 | X-H torsion
[ 5278 5270 5269 5267 ] final -156.39 input    0.55 | X-H torsion
[  641  637  636  633 ] final   60.98 input  179.99 | X-H torsion
[ 1886 1878 1877 1875 ] final   65.10 input    1.60 | X-H torsion
[  965  957  956  954 ] final   73.94 input    0.45 | X-H torsion

>  <Gold.Protein.ActiveResidues>  (109) 
 LYS47   THR48   LEU49   GLY50   THR51   GLY52   SER53   PHE54   GLY55   ARG56  
 VAL57   MET58   LEU59   TYR69   ALA70   MET71   LYS72   ILE73   LEU74   GLU91  
 LEU95   VAL104  LYS105  MET118  VAL119  MET120  GLU121  TYR122  VAL123  PRO124 
 GLY125  GLY126  GLU127  MET128  PHE129  TYR164  ASP166  LEU167  LYS168  PRO169 
 GLU170  ASN171  LEU172  LEU173  ILE174  GLN181  VAL182  THR183  ASP184  PHE185 
 GLY186  PHE187  GLY200  THR201  ASN326  PHE327  TYR330  ARG18   ARG19   ASN20  
 ALA21   ILE22   HIS23  

>  <Gold.Protein.RotatedAtoms>  (109) 
    9.9135   19.6915    8.6786 H   0  0  0  0  0  0  0  0  0  0  0  0  # atno 641  bound_to 637 
   15.8559   12.6430    6.4696 H   0  0  0  0  0  0  0  0  0  0  0  0  # atno 681  bound_to 677 
   20.0455   11.7542   -2.0101 H   0  0  0  0  0  0  0  0  0  0  0  0  # atno 702  bound_to 698 
   -7.1278   15.8108   -0.0947 H   0  0  0  0  0  0  0  0  0  0  0  0  # atno 965  bound_to 957 
    1.9153   12.1763   10.6027 H   0  0  0  0  0  0  0  0  0  0  0  0  # atno 1886 bound_to 1878
   11.0468    2.8378   -2.9764 H   0  0  0  0  0  0  0  0  0  0  0  0  # atno 2577 bound_to 2569
    7.3632    6.6273    1.4783 H   0  0  0  0  0  0  0  0  0  0  0  0  # atno 2891 bound_to 2887
   18.0048    1.9641   -0.8680 H   0  0  0  0  0  0  0  0  0  0  0  0  # atno 3175 bound_to 3171
   14.4158   10.0016    9.7487 H   0  0  0  0  0  0  0  0  0  0  0  0  # atno 5278 bound_to 5270
   16.2113   13.8383    7.4601 LP  0  0  0  0  0  0  0  0  0  0  0  0  # atno 5914 bound_to 677 
   17.2740   13.3520    6.3196 LP  0  0  0  0  0  0  0  0  0  0  0  0  # atno 5915 bound_to 677 
   19.5427   11.7974   -0.4992 LP  0  0  0  0  0  0  0  0  0  0  0  0  # atno 5920 bound_to 698 
   21.1140   11.5256   -0.8510 LP  0  0  0  0  0  0  0  0  0  0  0  0  # atno 5921 bound_to 698 
    9.9110    1.8928   -2.3830 LP  0  0  0  0  0  0  0  0  0  0  0  0  # atno 5950 bound_to 2569
    9.5282    3.1835   -3.3073 LP  0  0  0  0  0  0  0  0  0  0  0  0  # atno 5951 bound_to 2569
    8.3761    6.3872    0.2729 LP  0  0  0  0  0  0  0  0  0  0  0  0  # atno 5982 bound_to 2887
    7.5494    5.1428    0.9323 LP  0  0  0  0  0  0  0  0  0  0  0  0  # atno 5983 bound_to 2887
   19.2759    2.8998   -1.0787 LP  0  0  0  0  0  0  0  0  0  0  0  0  # atno 6000 bound_to 3171
   18.6640    2.6420    0.4132 LP  0  0  0  0  0  0  0  0  0  0  0  0  # atno 6001 bound_to 3171
   13.1888   10.2164    8.7562 LP  0  0  0  0  0  0  0  0  0  0  0  0  # atno 6004 bound_to 5270
   12.9402    9.8275   10.3226 LP  0  0  0  0  0  0  0  0  0  0  0  0  # atno 6005 bound_to 5270
   10.1227   18.9792    7.2701 LP  0  0  0  0  0  0  0  0  0  0  0  0  # atno 6055 bound_to 637 
   11.4012   19.3837    8.2021 LP  0  0  0  0  0  0  0  0  0  0  0  0  # atno 6056 bound_to 637 
    1.7901   10.6010   10.4081 LP  0  0  0  0  0  0  0  0  0  0  0  0  # atno 6063 bound_to 1878
    0.5790   11.4596   11.0885 LP  0  0  0  0  0  0  0  0  0  0  0  0  # atno 6064 bound_to 1878
   -6.4831   15.8085   -1.5506 LP  0  0  0  0  0  0  0  0  0  0  0  0  # atno 6067 bound_to 957 
   -6.8180   17.2116   -0.7853 LP  0  0  0  0  0  0  0  0  0  0  0  0  # atno 6068 bound_to 957 

>  <STRIFE_LigEff_Score>  (109) 
2.096775

$$$$
unknown|pharmsElabsTestMulti|sdf|110|dock4
     RDKit          3D

 20 21  0  0  0  0  0  0  0  0999 V2000
   14.4974    6.8013    3.9840 C   0  0  0  0  0  0  0  0  0  0  0  0
   14.0114    7.8508    2.9988 C   0  0  0  0  0  0  0  0  0  0  0  0
   14.9889    8.8738    2.6495 N   0  0  0  0  0  0  0  0  0  0  0  0
   12.5259    8.2984    3.1285 C   0  0  0  0  0  0  0  0  0  0  0  0
   11.4272    7.3664    2.5864 C   0  0  0  0  0  0  0  0  0  0  0  0
   10.1502    8.2012    2.3873 C   0  0  0  0  0  0  0  0  0  0  0  0
    9.7056    8.8471    3.7137 C   0  0  0  0  0  0  0  0  0  0  0  0
    8.4937    9.7140    3.5077 C   0  0  0  0  0  0  0  0  0  0  0  0
    7.9428   10.2915    4.4878 O   0  0  0  0  0  0  0  0  0  0  0  0
    7.9613    9.8616    2.1864 N   0  0  0  0  0  0  0  0  0  0  0  0
    6.7693   10.6482    1.9003 C   0  0  0  0  0  0  0  0  0  0  0  0
    5.5530    9.9405    2.4191 C   0  0  0  0  0  0  0  0  0  0  0  0
    4.7436    9.1936    1.5507 C   0  0  0  0  0  0  0  0  0  0  0  0
    3.6058    8.5454    2.0351 C   0  0  0  0  0  0  0  0  0  0  0  0
    3.2649    8.6429    3.3863 C   0  0  0  0  0  0  0  0  0  0  0  0
    4.0604    9.3952    4.2613 C   0  0  0  0  0  0  0  0  0  0  0  0
    3.7100    9.4968    5.6431 N   0  0  0  0  0  0  0  0  0  0  0  0
    5.2014   10.0472    3.7740 C   0  0  0  0  0  0  0  0  0  0  0  0
   10.8312    9.6489    4.3953 C   0  0  0  0  0  0  0  0  0  0  0  0
   12.1199    8.8224    4.5172 C   0  0  0  0  0  0  0  0  0  0  0  0
  1  2  1  0
  2  3  1  0
  2  4  1  0
  4  5  1  0
  5  6  1  0
  6  7  1  0
  7  8  1  0
  8  9  2  0
  8 10  1  0
 10 11  1  0
 11 12  1  0
 12 13  2  0
 13 14  1  0
 14 15  2  0
 15 16  1  0
 16 17  1  0
 16 18  2  0
  7 19  1  0
 19 20  1  0
 20  4  1  0
 18 12  1  0
M  CHG  1   3   1
M  END
>  <EmbedRMS>  (110) 
0.17309954011637427

>  <Gold.Version>  (110) 
2020.3.0

>  <Gold.Id.Protein>  (110) 
unknown|1q8t_protein|pdb

>  <Gold.PLP.Fitness>  (110) 
51.9299

>  <Gold.PLP.PLP>  (110) 
-47.3354

>  <Gold.PLP.part.hbond>  (110) 
-2.0000

>  <Gold.PLP.part.metal>  (110) 
0.0000

>  <Gold.PLP.part.buried>  (110) 
-7.7754

>  <Gold.PLP.part.nonpolar>  (110) 
-38.4162

>  <Gold.PLP.part.repulsive>  (110) 
0.1572

>  <Gold.PLP.ligand.clash>  (110) 
0.0000

>  <Gold.PLP.ligand.torsion>  (110) 
0.8905

>  <Gold.PLP.Chemscore.Hbond>  (110) 
1.9913

>  <Gold.PLP.Chemscore.CHOScore>  (110) 
0.0000

>  <Gold.PLP.Chemscore.Metal>  (110) 
0.0000

>  <Gold.Chemscore.Hbonds>  (110) 
donor molecule, donor type, donor heavy atom, donor atom, acceptor molecule, acceptor atom, score
      L1  H     3    26       P1   675  1.00
      L1  H    17    40       P1  1891  0.99

>  <Gold.PLP.Chemscore.Internal.Correction>  (110) 
0.4018

>  <Gold.PLP.Constraint>  (110) 
-0.0000

>  <Gold.Protein.RotatedTorsions>  (110) 
[  681  677  676  673 ] final -152.99 input -179.99 | X-H torsion
[  702  698  697  694 ] final   57.86 input  179.99 | X-H torsion
[ 2577 2569 2568 2566 ] final  164.02 input   -0.13 | X-H torsion
[ 2891 2887 2886 2883 ] final    3.81 input  179.98 | X-H torsion
[ 3175 3171 3170 3167 ] final  145.75 input -179.99 | X-H torsion
[ 5278 5270 5269 5267 ] final   81.63 input    0.55 | X-H torsion
[  641  637  636  633 ] final  159.52 input  179.99 | X-H torsion
[ 1886 1878 1877 1875 ] final   95.96 input    1.60 | X-H torsion
[  965  957  956  954 ] final -162.97 input    0.45 | X-H torsion

>  <Gold.Protein.ActiveResidues>  (110) 
 LYS47   THR48   LEU49   GLY50   THR51   GLY52   SER53   PHE54   GLY55   ARG56  
 VAL57   MET58   LEU59   TYR69   ALA70   MET71   LYS72   ILE73   LEU74   GLU91  
 LEU95   VAL104  LYS105  MET118  VAL119  MET120  GLU121  TYR122  VAL123  PRO124 
 GLY125  GLY126  GLU127  MET128  PHE129  TYR164  ASP166  LEU167  LYS168  PRO169 
 GLU170  ASN171  LEU172  LEU173  ILE174  GLN181  VAL182  THR183  ASP184  PHE185 
 GLY186  PHE187  GLY200  THR201  ASN326  PHE327  TYR330  ARG18   ARG19   ASN20  
 ALA21   ILE22   HIS23  

>  <Gold.Protein.RotatedAtoms>  (110) 
   11.2444   19.5160    8.4805 H   0  0  0  0  0  0  0  0  0  0  0  0  # atno 641  bound_to 637 
   16.6627   13.9558    7.2712 H   0  0  0  0  0  0  0  0  0  0  0  0  # atno 681  bound_to 677 
   19.4298   11.8536   -1.5042 H   0  0  0  0  0  0  0  0  0  0  0  0  # atno 702  bound_to 698 
   -6.7834   17.1633   -0.8231 H   0  0  0  0  0  0  0  0  0  0  0  0  # atno 965  bound_to 957 
    1.5063   12.3118   10.8061 H   0  0  0  0  0  0  0  0  0  0  0  0  # atno 1886 bound_to 1878
   10.3621    1.9218   -2.3905 H   0  0  0  0  0  0  0  0  0  0  0  0  # atno 2577 bound_to 2569
    8.1150    5.4747    0.3313 H   0  0  0  0  0  0  0  0  0  0  0  0  # atno 2891 bound_to 2887
   17.9411    1.9984   -0.2460 H   0  0  0  0  0  0  0  0  0  0  0  0  # atno 3175 bound_to 3171
   13.1769   10.2193    8.8138 H   0  0  0  0  0  0  0  0  0  0  0  0  # atno 5278 bound_to 5270
   17.0354   12.9637    6.0825 LP  0  0  0  0  0  0  0  0  0  0  0  0  # atno 5914 bound_to 677 
   15.6008   12.8450    6.8535 LP  0  0  0  0  0  0  0  0  0  0  0  0  # atno 5915 bound_to 677 
   20.3184   11.6540   -0.1973 LP  0  0  0  0  0  0  0  0  0  0  0  0  # atno 5920 bound_to 698 
   20.9858   11.5644   -1.6850 LP  0  0  0  0  0  0  0  0  0  0  0  0  # atno 5921 bound_to 698 
    9.2825    2.8549   -3.0971 LP  0  0  0  0  0  0  0  0  0  0  0  0  # atno 5950 bound_to 2569
   10.8776    3.1859   -3.2101 LP  0  0  0  0  0  0  0  0  0  0  0  0  # atno 5951 bound_to 2569
    7.1406    5.7696    1.5561 LP  0  0  0  0  0  0  0  0  0  0  0  0  # atno 5982 bound_to 2887
    7.9937    6.9734    0.8563 LP  0  0  0  0  0  0  0  0  0  0  0  0  # atno 5983 bound_to 2887
   18.8530    2.5400   -1.4338 LP  0  0  0  0  0  0  0  0  0  0  0  0  # atno 6000 bound_to 3171
   19.1539    2.9656    0.1138 LP  0  0  0  0  0  0  0  0  0  0  0  0  # atno 6001 bound_to 3171
   12.9660    9.8230   10.3420 LP  0  0  0  0  0  0  0  0  0  0  0  0  # atno 6004 bound_to 5270
   14.4665    9.9919    9.7204 LP  0  0  0  0  0  0  0  0  0  0  0  0  # atno 6005 bound_to 5270
    9.6553   19.6139    8.4620 LP  0  0  0  0  0  0  0  0  0  0  0  0  # atno 6055 bound_to 637 
   10.4670   18.9338    7.2189 LP  0  0  0  0  0  0  0  0  0  0  0  0  # atno 6056 bound_to 637 
    2.1456   10.9407   10.3094 LP  0  0  0  0  0  0  0  0  0  0  0  0  # atno 6063 bound_to 1878
    0.6540   10.9773   10.9732 LP  0  0  0  0  0  0  0  0  0  0  0  0  # atno 6064 bound_to 1878
   -7.1696   15.8309   -0.0417 LP  0  0  0  0  0  0  0  0  0  0  0  0  # atno 6067 bound_to 957 
   -6.4942   15.7648   -1.5270 LP  0  0  0  0  0  0  0  0  0  0  0  0  # atno 6068 bound_to 957 

>  <STRIFE_LigEff_Score>  (110) 
2.596495

$$$$
unknown|pharmsElabsTestMulti|sdf|111|dock6
     RDKit          3D

 20 21  0  0  0  0  0  0  0  0999 V2000
    5.4011   10.3525    5.6299 C   0  0  0  0  0  0  0  0  0  0  0  0
    5.0578    9.8721    4.2522 C   0  0  0  0  0  0  0  0  0  0  0  0
    3.7986    9.3104    3.9975 C   0  0  0  0  0  0  0  0  0  0  0  0
    3.4669    8.8858    2.7094 C   0  0  0  0  0  0  0  0  0  0  0  0
    4.3801    9.0354    1.6635 C   0  0  0  0  0  0  0  0  0  0  0  0
    5.6395    9.6059    1.8972 C   0  0  0  0  0  0  0  0  0  0  0  0
    6.5932    9.7982    0.7436 C   0  0  0  0  0  0  0  0  0  0  0  0
    7.9792    9.9032    1.2253 N   0  0  0  0  0  0  0  0  0  0  0  0
    8.5251    8.8967    2.0954 C   0  0  0  0  0  0  0  0  0  0  0  0
    7.7833    7.9676    2.4943 O   0  0  0  0  0  0  0  0  0  0  0  0
    9.9374    8.8386    2.5992 C   0  0  0  0  0  0  0  0  0  0  0  0
   10.8859    8.1003    1.6677 C   0  0  0  0  0  0  0  0  0  0  0  0
   12.2541    7.8073    2.2734 C   0  0  0  0  0  0  0  0  0  0  0  0
   12.6718    8.8039    3.3705 C   0  0  0  0  0  0  0  0  0  0  0  0
   14.1284    8.4708    3.8357 C   0  0  0  0  0  0  0  0  0  0  0  0
   14.2394    6.9892    4.2387 C   0  0  0  0  0  0  0  0  0  0  0  0
   15.1305    8.7667    2.8025 N   0  0  0  0  0  0  0  0  0  0  0  0
   11.6409    8.7431    4.5263 C   0  0  0  0  0  0  0  0  0  0  0  0
   10.1603    8.8535    4.0997 C   0  0  0  0  0  0  0  0  0  0  0  0
    5.9734   10.0268    3.1978 C   0  0  0  0  0  0  0  0  0  0  0  0
  1  2  1  0
  2  3  2  0
  3  4  1  0
  4  5  2  0
  5  6  1  0
  6  7  1  0
  7  8  1  0
  8  9  1  0
  9 10  2  0
  9 11  1  0
 11 12  1  0
 12 13  1  0
 13 14  1  0
 14 15  1  0
 15 16  1  0
 15 17  1  0
 14 18  1  0
 18 19  1  0
  6 20  2  0
 20  2  1  0
 19 11  1  0
M  CHG  1  17   1
M  END
>  <EmbedRMS>  (111) 
0.16810927383701896

>  <Gold.Version>  (111) 
2020.3.0

>  <Gold.Id.Protein>  (111) 
unknown|1q8t_protein|pdb

>  <Gold.PLP.Fitness>  (111) 
51.4996

>  <Gold.PLP.PLP>  (111) 
-46.8656

>  <Gold.PLP.part.hbond>  (111) 
-1.9989

>  <Gold.PLP.part.metal>  (111) 
0.0000

>  <Gold.PLP.part.buried>  (111) 
-1.1407

>  <Gold.PLP.part.nonpolar>  (111) 
-45.0526

>  <Gold.PLP.part.repulsive>  (111) 
0.0213

>  <Gold.PLP.ligand.clash>  (111) 
0.0000

>  <Gold.PLP.ligand.torsion>  (111) 
0.7997

>  <Gold.PLP.Chemscore.Hbond>  (111) 
1.8320

>  <Gold.PLP.Chemscore.CHOScore>  (111) 
0.0000

>  <Gold.PLP.Chemscore.Metal>  (111) 
0.0000

>  <Gold.Chemscore.Hbonds>  (111) 
donor molecule, donor type, donor heavy atom, donor atom, acceptor molecule, acceptor atom, score
      L1  H    17    42       P1   675  0.83
      P1  H  2887  2891       L1    10  1.00

>  <Gold.PLP.Chemscore.Internal.Correction>  (111) 
0.7374

>  <Gold.PLP.Constraint>  (111) 
-0.0000

>  <Gold.Protein.RotatedTorsions>  (111) 
[  681  677  676  673 ] final   31.74 input -179.99 | X-H torsion
[  702  698  697  694 ] final -175.50 input  179.99 | X-H torsion
[ 2577 2569 2568 2566 ] final  -10.98 input   -0.13 | X-H torsion
[ 2891 2887 2886 2883 ] final  167.87 input  179.98 | X-H torsion
[ 3175 3171 3170 3167 ] final  -31.49 input -179.99 | X-H torsion
[ 5278 5270 5269 5267 ] final -141.98 input    0.55 | X-H torsion
[  641  637  636  633 ] final   87.45 input  179.99 | X-H torsion
[ 1886 1878 1877 1875 ] final   -7.44 input    1.60 | X-H torsion
[  965  957  956  954 ] final  162.30 input    0.45 | X-H torsion

>  <Gold.Protein.ActiveResidues>  (111) 
 LYS47   THR48   LEU49   GLY50   THR51   GLY52   SER53   PHE54   GLY55   ARG56  
 VAL57   MET58   LEU59   TYR69   ALA70   MET71   LYS72   ILE73   LEU74   GLU91  
 LEU95   VAL104  LYS105  MET118  VAL119  MET120  GLU121  TYR122  VAL123  PRO124 
 GLY125  GLY126  GLU127  MET128  PHE129  TYR164  ASP166  LEU167  LYS168  PRO169 
 GLU170  ASN171  LEU172  LEU173  ILE174  GLN181  VAL182  THR183  ASP184  PHE185 
 GLY186  PHE187  GLY200  THR201  ASN326  PHE327  TYR330  ARG18   ARG19   ASN20  
 ALA21   ILE22   HIS23  

>  <Gold.Protein.RotatedAtoms>  (111) 
   10.2842   19.7543    8.8422 H   0  0  0  0  0  0  0  0  0  0  0  0  # atno 641  bound_to 637 
   16.2679   12.5997    6.1714 H   0  0  0  0  0  0  0  0  0  0  0  0  # atno 681  bound_to 677 
   21.0058   11.5755   -1.5698 H   0  0  0  0  0  0  0  0  0  0  0  0  # atno 702  bound_to 698 
   -6.9982   17.0246   -0.3538 H   0  0  0  0  0  0  0  0  0  0  0  0  # atno 965  bound_to 957 
    2.2105   11.2028   10.3065 H   0  0  0  0  0  0  0  0  0  0  0  0  # atno 1886 bound_to 1878
    9.9184    3.3302   -3.4009 H   0  0  0  0  0  0  0  0  0  0  0  0  # atno 2577 bound_to 2569
    7.5235    6.8119    1.3367 H   0  0  0  0  0  0  0  0  0  0  0  0  # atno 2891 bound_to 2887
   19.3379    2.9569   -0.8268 H   0  0  0  0  0  0  0  0  0  0  0  0  # atno 3175 bound_to 3171
   14.3539    9.9492    9.9585 H   0  0  0  0  0  0  0  0  0  0  0  0  # atno 5278 bound_to 5270
   15.7937   13.5076    7.3909 LP  0  0  0  0  0  0  0  0  0  0  0  0  # atno 5914 bound_to 677 
   17.2580   13.7283    6.7026 LP  0  0  0  0  0  0  0  0  0  0  0  0  # atno 5915 bound_to 677 
   19.4355   11.8380   -1.6205 LP  0  0  0  0  0  0  0  0  0  0  0  0  # atno 5920 bound_to 698 
   20.2109   11.6730   -0.1928 LP  0  0  0  0  0  0  0  0  0  0  0  0  # atno 5921 bound_to 698 
   11.0935    2.5005   -2.7183 LP  0  0  0  0  0  0  0  0  0  0  0  0  # atno 5950 bound_to 2569
    9.5337    2.0574   -2.5250 LP  0  0  0  0  0  0  0  0  0  0  0  0  # atno 5951 bound_to 2569
    8.3804    6.0992    0.1990 LP  0  0  0  0  0  0  0  0  0  0  0  0  # atno 5982 bound_to 2887
    7.3764    5.2365    1.1552 LP  0  0  0  0  0  0  0  0  0  0  0  0  # atno 5983 bound_to 2887
   18.4496    2.4823    0.4066 LP  0  0  0  0  0  0  0  0  0  0  0  0  # atno 6000 bound_to 3171
   18.0872    2.0146   -1.1154 LP  0  0  0  0  0  0  0  0  0  0  0  0  # atno 6001 bound_to 3171
   13.4183   10.2324    8.7010 LP  0  0  0  0  0  0  0  0  0  0  0  0  # atno 6004 bound_to 5270
   12.7758    9.8666   10.1570 LP  0  0  0  0  0  0  0  0  0  0  0  0  # atno 6005 bound_to 5270
    9.7688   19.1071    7.4818 LP  0  0  0  0  0  0  0  0  0  0  0  0  # atno 6055 bound_to 637 
   11.3647   19.1897    7.8181 LP  0  0  0  0  0  0  0  0  0  0  0  0  # atno 6056 bound_to 637 
    0.7905   10.7624   10.8764 LP  0  0  0  0  0  0  0  0  0  0  0  0  # atno 6063 bound_to 1878
    1.2678   12.3231   10.9321 LP  0  0  0  0  0  0  0  0  0  0  0  0  # atno 6064 bound_to 1878
   -7.0078   15.4333   -0.4056 LP  0  0  0  0  0  0  0  0  0  0  0  0  # atno 6067 bound_to 957 
   -6.4298   16.3084   -1.6573 LP  0  0  0  0  0  0  0  0  0  0  0  0  # atno 6068 bound_to 957 

>  <STRIFE_LigEff_Score>  (111) 
2.57498

$$$$
unknown|pharmsElabsTestMulti|sdf|112|dock9
     RDKit          3D

 18 18  0  0  0  0  0  0  0  0999 V2000
   14.7395    9.0294    1.5217 C   0  0  0  0  0  0  0  0  0  0  0  0
   13.7486    7.8856    1.6535 C   0  0  0  0  0  0  0  0  0  0  0  0
   13.9178    6.8037    0.6918 N   0  0  0  0  0  0  0  0  0  0  0  0
   12.2921    8.2639    2.0518 C   0  0  0  0  0  0  0  0  0  0  0  0
   11.3247    7.1369    2.4565 C   0  0  0  0  0  0  0  0  0  0  0  0
    9.8889    7.6740    2.3292 C   0  0  0  0  0  0  0  0  0  0  0  0
    9.6861    8.9097    3.2262 C   0  0  0  0  0  0  0  0  0  0  0  0
    8.3031    9.4723    3.0554 C   0  0  0  0  0  0  0  0  0  0  0  0
    7.9020    9.8600    1.9211 O   0  0  0  0  0  0  0  0  0  0  0  0
    7.4520    9.5793    4.2013 N   0  0  0  0  0  0  0  0  0  0  0  0
    6.1029   10.1200    4.1296 C   0  0  0  0  0  0  0  0  0  0  0  0
    5.4136    9.9956    5.4880 C   0  0  0  0  0  0  0  0  0  0  0  0
    3.8970    9.9094    5.3217 C   0  0  0  0  0  0  0  0  0  0  0  0
    3.5383    8.7938    4.5093 O   0  0  0  0  0  0  0  0  0  0  0  0
    3.3328    8.8960    3.1308 C   0  0  0  0  0  0  0  0  0  0  0  0
    3.9510    9.7524    2.4428 O   0  0  0  0  0  0  0  0  0  0  0  0
   10.7447   10.0037    2.9880 C   0  0  0  0  0  0  0  0  0  0  0  0
   12.1689    9.4326    3.0453 C   0  0  0  0  0  0  0  0  0  0  0  0
  1  2  1  0
  2  3  1  0
  2  4  1  0
  4  5  1  0
  5  6  1  0
  6  7  1  0
  7  8  1  0
  8  9  2  0
  8 10  1  0
 10 11  1  0
 11 12  1  0
 12 13  1  0
 13 14  1  0
 14 15  1  0
 15 16  2  0
  7 17  1  0
 17 18  1  0
 18  4  1  0
M  CHG  1   3   1
M  END
>  <EmbedRMS>  (112) 
0.18272380109221892

>  <Gold.Version>  (112) 
2020.3.0

>  <Gold.Id.Protein>  (112) 
unknown|1q8t_protein|pdb

>  <Gold.PLP.Fitness>  (112) 
49.5391

>  <Gold.PLP.PLP>  (112) 
-41.7091

>  <Gold.PLP.part.hbond>  (112) 
-2.3142

>  <Gold.PLP.part.metal>  (112) 
0.0000

>  <Gold.PLP.part.buried>  (112) 
-4.7439

>  <Gold.PLP.part.nonpolar>  (112) 
-35.4806

>  <Gold.PLP.part.repulsive>  (112) 
0.2847

>  <Gold.PLP.ligand.clash>  (112) 
0.0000

>  <Gold.PLP.ligand.torsion>  (112) 
0.8344

>  <Gold.PLP.Chemscore.Hbond>  (112) 
2.9516

>  <Gold.PLP.Chemscore.CHOScore>  (112) 
0.0000

>  <Gold.PLP.Chemscore.Metal>  (112) 
0.0000

>  <Gold.Chemscore.Hbonds>  (112) 
donor molecule, donor type, donor heavy atom, donor atom, acceptor molecule, acceptor atom, score
      L1  H     3    24       P1  2691  0.95
      L1  H     3    25       P1  2902  2.00

>  <Gold.PLP.Chemscore.Internal.Correction>  (112) 
0.6441

>  <Gold.PLP.Constraint>  (112) 
-0.0000

>  <Gold.Protein.RotatedTorsions>  (112) 
[  681  677  676  673 ] final  159.76 input -179.99 | X-H torsion
[  702  698  697  694 ] final  160.95 input  179.99 | X-H torsion
[ 2577 2569 2568 2566 ] final -104.62 input   -0.13 | X-H torsion
[ 2891 2887 2886 2883 ] final  128.09 input  179.98 | X-H torsion
[ 3175 3171 3170 3167 ] final  162.33 input -179.99 | X-H torsion
[ 5278 5270 5269 5267 ] final -142.88 input    0.55 | X-H torsion
[  641  637  636  633 ] final  -24.71 input  179.99 | X-H torsion
[ 1886 1878 1877 1875 ] final  112.94 input    1.60 | X-H torsion
[  965  957  956  954 ] final   41.02 input    0.45 | X-H torsion

>  <Gold.Protein.ActiveResidues>  (112) 
 LYS47   THR48   LEU49   GLY50   THR51   GLY52   SER53   PHE54   GLY55   ARG56  
 VAL57   MET58   LEU59   TYR69   ALA70   MET71   LYS72   ILE73   LEU74   GLU91  
 LEU95   VAL104  LYS105  MET118  VAL119  MET120  GLU121  TYR122  VAL123  PRO124 
 GLY125  GLY126  GLU127  MET128  PHE129  TYR164  ASP166  LEU167  LYS168  PRO169 
 GLU170  ASN171  LEU172  LEU173  ILE174  GLN181  VAL182  THR183  ASP184  PHE185 
 GLY186  PHE187  GLY200  THR201  ASN326  PHE327  TYR330  ARG18   ARG19   ASN20  
 ALA21   ILE22   HIS23  

>  <Gold.Protein.RotatedAtoms>  (112) 
    9.7280   19.1525    7.6027 H   0  0  0  0  0  0  0  0  0  0  0  0  # atno 641  bound_to 637 
   17.1667   13.7846    6.7893 H   0  0  0  0  0  0  0  0  0  0  0  0  # atno 681  bound_to 677 
   20.7714   11.6224   -1.8466 H   0  0  0  0  0  0  0  0  0  0  0  0  # atno 702  bound_to 698 
   -6.9762   15.4662   -0.4349 H   0  0  0  0  0  0  0  0  0  0  0  0  # atno 965  bound_to 957 
    1.2642   12.2791   10.9073 H   0  0  0  0  0  0  0  0  0  0  0  0  # atno 1886 bound_to 1878
   11.0480    2.8336   -2.9734 H   0  0  0  0  0  0  0  0  0  0  0  0  # atno 2577 bound_to 2569
    7.9280    6.9416    0.8993 H   0  0  0  0  0  0  0  0  0  0  0  0  # atno 2891 bound_to 2887
   18.0174    2.0852   -0.0151 H   0  0  0  0  0  0  0  0  0  0  0  0  # atno 3175 bound_to 3171
   14.3594    9.9524    9.9459 H   0  0  0  0  0  0  0  0  0  0  0  0  # atno 5278 bound_to 5270
   16.3856   12.5783    6.1029 LP  0  0  0  0  0  0  0  0  0  0  0  0  # atno 5914 bound_to 677 
   15.7201   13.4106    7.3403 LP  0  0  0  0  0  0  0  0  0  0  0  0  # atno 5915 bound_to 677 
   19.3097   11.8533   -1.2572 LP  0  0  0  0  0  0  0  0  0  0  0  0  # atno 5920 bound_to 698 
   20.5833   11.6084   -0.2649 LP  0  0  0  0  0  0  0  0  0  0  0  0  # atno 5921 bound_to 698 
    9.9056    1.8939   -2.3842 LP  0  0  0  0  0  0  0  0  0  0  0  0  # atno 5950 bound_to 2569
    9.5322    3.1868   -3.3093 LP  0  0  0  0  0  0  0  0  0  0  0  0  # atno 5951 bound_to 2569
    8.1822    5.4949    0.2838 LP  0  0  0  0  0  0  0  0  0  0  0  0  # atno 5982 bound_to 2887
    7.1489    5.7044    1.5308 LP  0  0  0  0  0  0  0  0  0  0  0  0  # atno 5983 bound_to 2887
   18.6363    2.3770   -1.4529 LP  0  0  0  0  0  0  0  0  0  0  0  0  # atno 6000 bound_to 3171
   19.2902    3.0373   -0.1102 LP  0  0  0  0  0  0  0  0  0  0  0  0  # atno 6001 bound_to 3171
   13.4036   10.2318    8.7028 LP  0  0  0  0  0  0  0  0  0  0  0  0  # atno 6004 bound_to 5270
   12.7848    9.8639   10.1685 LP  0  0  0  0  0  0  0  0  0  0  0  0  # atno 6005 bound_to 5270
   11.3165   19.1375    7.7107 LP  0  0  0  0  0  0  0  0  0  0  0  0  # atno 6055 bound_to 637 
   10.4027   19.7931    8.8947 LP  0  0  0  0  0  0  0  0  0  0  0  0  # atno 6056 bound_to 637 
    2.2603   11.1943   10.3020 LP  0  0  0  0  0  0  0  0  0  0  0  0  # atno 6063 bound_to 1878
    0.7943   10.7581   10.8740 LP  0  0  0  0  0  0  0  0  0  0  0  0  # atno 6064 bound_to 1878
   -6.4301   16.3296   -1.6562 LP  0  0  0  0  0  0  0  0  0  0  0  0  # atno 6067 bound_to 957 
   -7.0307   17.0534   -0.3213 LP  0  0  0  0  0  0  0  0  0  0  0  0  # atno 6068 bound_to 957 

>  <STRIFE_LigEff_Score>  (112) 
2.7521722222222222

$$$$
unknown|pharmsElabsTestMulti|sdf|113|dock2
     RDKit          3D

 18 18  0  0  0  0  0  0  0  0999 V2000
   13.8958    6.7975    3.3121 C   0  0  0  0  0  0  0  0  0  0  0  0
   13.5957    7.7760    2.1594 C   0  0  0  0  0  0  0  0  0  0  0  0
   13.7065    7.0620    0.8808 N   0  0  0  0  0  0  0  0  0  0  0  0
   12.1903    8.4189    2.3544 C   0  0  0  0  0  0  0  0  0  0  0  0
   11.0903    7.3988    1.9949 C   0  0  0  0  0  0  0  0  0  0  0  0
    9.7219    8.0652    2.0318 C   0  0  0  0  0  0  0  0  0  0  0  0
    9.4401    8.6191    3.4327 C   0  0  0  0  0  0  0  0  0  0  0  0
    8.0832    9.2592    3.4746 C   0  0  0  0  0  0  0  0  0  0  0  0
    7.5676    9.5821    4.5803 O   0  0  0  0  0  0  0  0  0  0  0  0
    7.3820    9.4930    2.2476 N   0  0  0  0  0  0  0  0  0  0  0  0
    6.0894   10.1634    2.1885 C   0  0  0  0  0  0  0  0  0  0  0  0
    5.0537    9.3695    2.9434 C   0  0  0  0  0  0  0  0  0  0  0  0
    4.5774    8.3079    2.3633 N   0  0  0  0  0  0  0  0  0  0  0  0
    4.6060    9.7648    4.2668 N   0  0  0  0  0  0  0  0  0  0  0  0
    3.5964    8.9722    4.9774 C   0  0  0  0  0  0  0  0  0  0  0  0
    5.1850   10.9335    4.9408 C   0  0  0  0  0  0  0  0  0  0  0  0
   10.5348    9.6044    3.8767 C   0  0  0  0  0  0  0  0  0  0  0  0
   11.9291    8.9617    3.7815 C   0  0  0  0  0  0  0  0  0  0  0  0
  1  2  1  0
  2  3  1  0
  2  4  1  0
  4  5  1  0
  5  6  1  0
  6  7  1  0
  7  8  1  0
  8  9  2  0
  8 10  1  0
 10 11  1  0
 11 12  1  0
 12 13  2  0
 12 14  1  0
 14 15  1  0
 14 16  1  0
  7 17  1  0
 17 18  1  0
 18  4  1  0
M  CHG  1   3   1
M  END
>  <EmbedRMS>  (113) 
0.03360966747943531

>  <Gold.Version>  (113) 
2020.3.0

>  <Gold.Id.Protein>  (113) 
unknown|1q8t_protein|pdb

>  <Gold.PLP.Fitness>  (113) 
45.7898

>  <Gold.PLP.PLP>  (113) 
-37.8838

>  <Gold.PLP.part.hbond>  (113) 
-2.0000

>  <Gold.PLP.part.metal>  (113) 
0.0000

>  <Gold.PLP.part.buried>  (113) 
-0.3399

>  <Gold.PLP.part.nonpolar>  (113) 
-35.8968

>  <Gold.PLP.part.repulsive>  (113) 
0.1053

>  <Gold.PLP.ligand.clash>  (113) 
0.0154

>  <Gold.PLP.ligand.torsion>  (113) 
0.5676

>  <Gold.PLP.Chemscore.Hbond>  (113) 
3.0000

>  <Gold.PLP.Chemscore.CHOScore>  (113) 
0.0000

>  <Gold.PLP.Chemscore.Metal>  (113) 
0.0000

>  <Gold.Chemscore.Hbonds>  (113) 
donor molecule, donor type, donor heavy atom, donor atom, acceptor molecule, acceptor atom, score
      L1  H     3    23       P1  2691  1.00
      L1  H     3    24       P1  2902  2.00

>  <Gold.PLP.Chemscore.Internal.Correction>  (113) 
0.0567

>  <Gold.PLP.Constraint>  (113) 
-0.0000

>  <Gold.Protein.RotatedTorsions>  (113) 
[  681  677  676  673 ] final   -7.90 input -179.99 | X-H torsion
[  702  698  697  694 ] final -142.61 input  179.99 | X-H torsion
[ 2577 2569 2568 2566 ] final -131.66 input   -0.13 | X-H torsion
[ 2891 2887 2886 2883 ] final  165.54 input  179.98 | X-H torsion
[ 3175 3171 3170 3167 ] final -165.38 input -179.99 | X-H torsion
[ 5278 5270 5269 5267 ] final   28.94 input    0.55 | X-H torsion
[  641  637  636  633 ] final -147.86 input  179.99 | X-H torsion
[ 1886 1878 1877 1875 ] final  -62.97 input    1.60 | X-H torsion
[  965  957  956  954 ] final -115.29 input    0.45 | X-H torsion

>  <Gold.Protein.ActiveResidues>  (113) 
 LYS47   THR48   LEU49   GLY50   THR51   GLY52   SER53   PHE54   GLY55   ARG56  
 VAL57   MET58   LEU59   TYR69   ALA70   MET71   LYS72   ILE73   LEU74   GLU91  
 LEU95   VAL104  LYS105  MET118  VAL119  MET120  GLU121  TYR122  VAL123  PRO124 
 GLY125  GLY126  GLU127  MET128  PHE129  TYR164  ASP166  LEU167  LYS168  PRO169 
 GLU170  ASN171  LEU172  LEU173  ILE174  GLN181  VAL182  THR183  ASP184  PHE185 
 GLY186  PHE187  GLY200  THR201  ASN326  PHE327  TYR330  ARG18   ARG19   ASN20  
 ALA21   ILE22   HIS23  

>  <Gold.Protein.RotatedAtoms>  (113) 
   11.2932   19.1536    7.7761 H   0  0  0  0  0  0  0  0  0  0  0  0  # atno 641  bound_to 637 
   15.7934   12.6775    6.5425 H   0  0  0  0  0  0  0  0  0  0  0  0  # atno 681  bound_to 677 
   21.1130   11.5469   -1.0745 H   0  0  0  0  0  0  0  0  0  0  0  0  # atno 702  bound_to 698 
   -6.5168   16.8442   -1.4155 H   0  0  0  0  0  0  0  0  0  0  0  0  # atno 965  bound_to 957 
    1.6569   10.5946   10.4468 H   0  0  0  0  0  0  0  0  0  0  0  0  # atno 1886 bound_to 1878
   11.0460    2.4896   -2.7346 H   0  0  0  0  0  0  0  0  0  0  0  0  # atno 2577 bound_to 2569
    7.5462    6.8306    1.3150 H   0  0  0  0  0  0  0  0  0  0  0  0  # atno 2891 bound_to 2887
   18.3060    2.3403    0.3009 H   0  0  0  0  0  0  0  0  0  0  0  0  # atno 3175 bound_to 3171
   12.6612   10.0692    9.4003 H   0  0  0  0  0  0  0  0  0  0  0  0  # atno 5278 bound_to 5270
   16.3074   13.8840    7.4459 LP  0  0  0  0  0  0  0  0  0  0  0  0  # atno 5914 bound_to 677 
   17.2437   13.2701    6.2571 LP  0  0  0  0  0  0  0  0  0  0  0  0  # atno 5915 bound_to 677 
   19.8238   11.7761   -1.9816 LP  0  0  0  0  0  0  0  0  0  0  0  0  # atno 5920 bound_to 698 
   19.7099   11.7649   -0.3527 LP  0  0  0  0  0  0  0  0  0  0  0  0  # atno 5921 bound_to 698 
    9.5255    2.0635   -2.5298 LP  0  0  0  0  0  0  0  0  0  0  0  0  # atno 5950 bound_to 2569
    9.9144    3.3794   -3.4151 LP  0  0  0  0  0  0  0  0  0  0  0  0  # atno 5951 bound_to 2569
    8.3764    6.0613    0.1945 LP  0  0  0  0  0  0  0  0  0  0  0  0  # atno 5982 bound_to 2887
    7.3566    5.2548    1.1825 LP  0  0  0  0  0  0  0  0  0  0  0  0  # atno 5983 bound_to 2887
   18.2299    2.0998   -1.2713 LP  0  0  0  0  0  0  0  0  0  0  0  0  # atno 6000 bound_to 3171
   19.3930    3.0460   -0.6243 LP  0  0  0  0  0  0  0  0  0  0  0  0  # atno 6001 bound_to 3171
   13.7889    9.7948   10.4911 LP  0  0  0  0  0  0  0  0  0  0  0  0  # atno 6004 bound_to 5270
   14.1863   10.1780    8.9543 LP  0  0  0  0  0  0  0  0  0  0  0  0  # atno 6005 bound_to 5270
   10.3511   19.7931    8.8890 LP  0  0  0  0  0  0  0  0  0  0  0  0  # atno 6055 bound_to 637 
    9.7197   19.1363    7.5337 LP  0  0  0  0  0  0  0  0  0  0  0  0  # atno 6056 bound_to 637 
    0.6003   11.5899   11.1013 LP  0  0  0  0  0  0  0  0  0  0  0  0  # atno 6063 bound_to 1878
    2.0408   12.1358   10.5594 LP  0  0  0  0  0  0  0  0  0  0  0  0  # atno 6064 bound_to 1878
   -7.1848   16.5913    0.0075 LP  0  0  0  0  0  0  0  0  0  0  0  0  # atno 6067 bound_to 957 
   -6.7598   15.3404   -0.9523 LP  0  0  0  0  0  0  0  0  0  0  0  0  # atno 6068 bound_to 957 

>  <STRIFE_LigEff_Score>  (113) 
2.543877777777778

$$$$
unknown|pharmsElabsTestMulti|sdf|114|dock6
     RDKit          3D

 17 18  0  0  0  0  0  0  0  0999 V2000
   14.8033    7.9385    3.1501 C   0  0  0  0  0  0  0  0  0  0  0  0
   13.8170    8.1335    1.9887 C   0  0  0  0  0  0  0  0  0  0  0  0
   14.0413    7.1119    0.9597 N   0  0  0  0  0  0  0  0  0  0  0  0
   12.3026    8.2631    2.3789 C   0  0  0  0  0  0  0  0  0  0  0  0
   11.3008    7.6280    1.3966 C   0  0  0  0  0  0  0  0  0  0  0  0
    9.9260    8.2685    1.3816 C   0  0  0  0  0  0  0  0  0  0  0  0
    9.4460    8.6552    2.7759 C   0  0  0  0  0  0  0  0  0  0  0  0
    8.0350    9.1756    2.6886 C   0  0  0  0  0  0  0  0  0  0  0  0
    7.4942    9.3372    1.5577 O   0  0  0  0  0  0  0  0  0  0  0  0
    7.3253    9.5042    3.8912 N   0  0  0  0  0  0  0  0  0  0  0  0
    5.9469    9.9965    3.9321 C   0  0  0  0  0  0  0  0  0  0  0  0
    4.9990    9.1141    3.1341 C   0  0  0  0  0  0  0  0  0  0  0  0
    3.5960    9.5262    3.5305 C   0  0  0  0  0  0  0  0  0  0  0  0
    3.5994    9.9589    5.2993 S   0  0  0  0  0  0  0  0  0  0  0  0
    5.4119   10.1063    5.3570 C   0  0  0  0  0  0  0  0  0  0  0  0
   10.3559    9.7261    3.3876 C   0  0  0  0  0  0  0  0  0  0  0  0
   11.8668    9.4536    3.2585 C   0  0  0  0  0  0  0  0  0  0  0  0
  1  2  1  0
  2  3  1  0
  2  4  1  0
  4  5  1  0
  5  6  1  0
  6  7  1  0
  7  8  1  0
  8  9  2  0
  8 10  1  0
 10 11  1  0
 11 12  1  0
 12 13  1  0
 13 14  1  0
 14 15  1  0
  7 16  1  0
 16 17  1  0
 17  4  1  0
 15 11  1  0
M  CHG  1   3   1
M  END
>  <EmbedRMS>  (114) 
0.16887371723399547

>  <Gold.Version>  (114) 
2020.3.0

>  <Gold.Id.Protein>  (114) 
unknown|1q8t_protein|pdb

>  <Gold.PLP.Fitness>  (114) 
52.2989

>  <Gold.PLP.PLP>  (114) 
-44.1154

>  <Gold.PLP.part.hbond>  (114) 
-2.2060

>  <Gold.PLP.part.metal>  (114) 
0.0000

>  <Gold.PLP.part.buried>  (114) 
-3.6059

>  <Gold.PLP.part.nonpolar>  (114) 
-38.0643

>  <Gold.PLP.part.repulsive>  (114) 
0.0642

>  <Gold.PLP.ligand.clash>  (114) 
0.0000

>  <Gold.PLP.ligand.torsion>  (114) 
0.6896

>  <Gold.PLP.Chemscore.Hbond>  (114) 
3.0000

>  <Gold.PLP.Chemscore.CHOScore>  (114) 
0.0000

>  <Gold.PLP.Chemscore.Metal>  (114) 
0.0000

>  <Gold.Chemscore.Hbonds>  (114) 
donor molecule, donor type, donor heavy atom, donor atom, acceptor molecule, acceptor atom, score
      L1  H     3    22       P1  2691  1.00
      L1  H     3    24       P1  2902  2.00

>  <Gold.PLP.Chemscore.Internal.Correction>  (114) 
0.5627

>  <Gold.PLP.Constraint>  (114) 
-0.0000

>  <Gold.Protein.RotatedTorsions>  (114) 
[  681  677  676  673 ] final  166.31 input -179.99 | X-H torsion
[  702  698  697  694 ] final  -93.68 input  179.99 | X-H torsion
[ 2577 2569 2568 2566 ] final    2.60 input   -0.13 | X-H torsion
[ 2891 2887 2886 2883 ] final  -17.56 input  179.98 | X-H torsion
[ 3175 3171 3170 3167 ] final   22.99 input -179.99 | X-H torsion
[ 5278 5270 5269 5267 ] final   12.90 input    0.55 | X-H torsion
[  641  637  636  633 ] final  119.04 input  179.99 | X-H torsion
[ 1886 1878 1877 1875 ] final   24.97 input    1.60 | X-H torsion
[  965  957  956  954 ] final -144.74 input    0.45 | X-H torsion

>  <Gold.Protein.ActiveResidues>  (114) 
 LYS47   THR48   LEU49   GLY50   THR51   GLY52   SER53   PHE54   GLY55   ARG56  
 VAL57   MET58   LEU59   TYR69   ALA70   MET71   LYS72   ILE73   LEU74   GLU91  
 LEU95   VAL104  LYS105  MET118  VAL119  MET120  GLU121  TYR122  VAL123  PRO124 
 GLY125  GLY126  GLU127  MET128  PHE129  TYR164  ASP166  LEU167  LYS168  PRO169 
 GLU170  ASN171  LEU172  LEU173  ILE174  GLN181  VAL182  THR183  ASP184  PHE185 
 GLY186  PHE187  GLY200  THR201  ASN326  PHE327  TYR330  ARG18   ARG19   ASN20  
 ALA21   ILE22   HIS23  

>  <Gold.Protein.RotatedAtoms>  (114) 
   10.7698   19.7178    8.8238 H   0  0  0  0  0  0  0  0  0  0  0  0  # atno 641  bound_to 637 
   17.1203   13.8333    6.8664 H   0  0  0  0  0  0  0  0  0  0  0  0  # atno 681  bound_to 677 
   20.7640   11.5962   -0.4213 H   0  0  0  0  0  0  0  0  0  0  0  0  # atno 702  bound_to 698 
   -6.6686   17.1071   -1.0764 H   0  0  0  0  0  0  0  0  0  0  0  0  # atno 965  bound_to 957 
    2.2296   11.6964   10.3823 H   0  0  0  0  0  0  0  0  0  0  0  0  # atno 1886 bound_to 1878
    9.7249    3.2537   -3.3620 H   0  0  0  0  0  0  0  0  0  0  0  0  # atno 2577 bound_to 2569
    7.9192    5.2746    0.5101 H   0  0  0  0  0  0  0  0  0  0  0  0  # atno 2891 bound_to 2887
   18.8853    2.5498   -1.3761 H   0  0  0  0  0  0  0  0  0  0  0  0  # atno 3175 bound_to 3171
   12.6347   10.0094    9.6417 H   0  0  0  0  0  0  0  0  0  0  0  0  # atno 5278 bound_to 5270
   16.4842   12.6085    6.0717 LP  0  0  0  0  0  0  0  0  0  0  0  0  # atno 5914 bound_to 677 
   15.6704   13.3291    7.2903 LP  0  0  0  0  0  0  0  0  0  0  0  0  # atno 5915 bound_to 677 
   20.5924   11.6403   -2.0043 LP  0  0  0  0  0  0  0  0  0  0  0  0  # atno 5920 bound_to 698 
   19.3084   11.8489   -1.0171 LP  0  0  0  0  0  0  0  0  0  0  0  0  # atno 5921 bound_to 698 
   11.1181    2.6833   -2.8435 LP  0  0  0  0  0  0  0  0  0  0  0  0  # atno 5950 bound_to 2569
    9.7130    1.9551   -2.4408 LP  0  0  0  0  0  0  0  0  0  0  0  0  # atno 5951 bound_to 2569
    7.1510    6.1120    1.6260 LP  0  0  0  0  0  0  0  0  0  0  0  0  # atno 5982 bound_to 2887
    8.1892    6.8417    0.5982 LP  0  0  0  0  0  0  0  0  0  0  0  0  # atno 5983 bound_to 2887
   19.1268    2.9498    0.1462 LP  0  0  0  0  0  0  0  0  0  0  0  0  # atno 6000 bound_to 3171
   17.8864    1.9756   -0.2770 LP  0  0  0  0  0  0  0  0  0  0  0  0  # atno 6001 bound_to 3171
   14.0293    9.8227   10.3880 LP  0  0  0  0  0  0  0  0  0  0  0  0  # atno 6004 bound_to 5270
   13.9736   10.2130    8.8033 LP  0  0  0  0  0  0  0  0  0  0  0  0  # atno 6005 bound_to 5270
    9.5432   19.3266    7.8871 LP  0  0  0  0  0  0  0  0  0  0  0  0  # atno 6055 bound_to 637 
   11.0789   19.0086    7.4322 LP  0  0  0  0  0  0  0  0  0  0  0  0  # atno 6056 bound_to 637 
    1.1980   10.5144   10.6544 LP  0  0  0  0  0  0  0  0  0  0  0  0  # atno 6063 bound_to 1878
    0.8402   12.0514   11.0743 LP  0  0  0  0  0  0  0  0  0  0  0  0  # atno 6064 bound_to 1878
   -7.2068   16.1141    0.0459 LP  0  0  0  0  0  0  0  0  0  0  0  0  # atno 6067 bound_to 957 
   -6.5779   15.5408   -1.3478 LP  0  0  0  0  0  0  0  0  0  0  0  0  # atno 6068 bound_to 957 

>  <STRIFE_LigEff_Score>  (114) 
3.076405882352941

$$$$
unknown|pharmsElabsTestMulti|sdf|115|dock4
     RDKit          3D

 17 17  0  0  0  0  0  0  0  0999 V2000
   14.4571    7.6381    3.5089 C   0  0  0  0  0  0  0  0  0  0  0  0
   13.2568    7.5936    2.5646 C   0  0  0  0  0  0  0  0  0  0  0  0
   13.4365    8.4639    1.4007 N   0  0  0  0  0  0  0  0  0  0  0  0
   11.8364    7.7015    3.1719 C   0  0  0  0  0  0  0  0  0  0  0  0
   10.7389    7.0976    2.2837 C   0  0  0  0  0  0  0  0  0  0  0  0
    9.3160    7.5500    2.5651 C   0  0  0  0  0  0  0  0  0  0  0  0
    9.2223    9.0260    2.8576 C   0  0  0  0  0  0  0  0  0  0  0  0
    7.8231    9.5640    2.8264 C   0  0  0  0  0  0  0  0  0  0  0  0
    7.4021   10.0052    3.9229 O   0  0  0  0  0  0  0  0  0  0  0  0
    6.9557    9.5942    1.6796 N   0  0  0  0  0  0  0  0  0  0  0  0
    5.5514   10.0062    1.8228 C   0  0  0  0  0  0  0  0  0  0  0  0
    4.7708    8.9813    2.6599 C   0  0  0  0  0  0  0  0  0  0  0  0
    4.9820    9.1950    4.0908 N   0  0  0  0  0  0  0  0  0  0  0  0
    3.9153    9.6028    4.9528 C   0  0  0  0  0  0  0  0  0  0  0  0
    2.7567    9.8006    4.4986 O   0  0  0  0  0  0  0  0  0  0  0  0
   10.1364    9.5555    3.9274 C   0  0  0  0  0  0  0  0  0  0  0  0
   11.5882    9.1374    3.7053 C   0  0  0  0  0  0  0  0  0  0  0  0
  1  2  1  0
  2  3  1  0
  2  4  1  0
  4  5  1  0
  5  6  1  0
  6  7  1  0
  7  8  1  0
  8  9  2  0
  8 10  1  0
 10 11  1  0
 11 12  1  0
 12 13  1  0
 13 14  1  0
 14 15  2  0
  7 16  1  0
 16 17  1  0
 17  4  1  0
M  CHG  1   3   1
M  END
>  <EmbedRMS>  (115) 
0.30207850723488733

>  <Gold.Version>  (115) 
2020.3.0

>  <Gold.Id.Protein>  (115) 
unknown|1q8t_protein|pdb

>  <Gold.PLP.Fitness>  (115) 
44.8236

>  <Gold.PLP.PLP>  (115) 
-36.5415

>  <Gold.PLP.part.hbond>  (115) 
-1.9711

>  <Gold.PLP.part.metal>  (115) 
0.0000

>  <Gold.PLP.part.buried>  (115) 
-4.5507

>  <Gold.PLP.part.nonpolar>  (115) 
-30.5853

>  <Gold.PLP.part.repulsive>  (115) 
0.1823

>  <Gold.PLP.ligand.clash>  (115) 
0.0000

>  <Gold.PLP.ligand.torsion>  (115) 
0.6793

>  <Gold.PLP.Chemscore.Hbond>  (115) 
3.0000

>  <Gold.PLP.Chemscore.CHOScore>  (115) 
0.0000

>  <Gold.PLP.Chemscore.Metal>  (115) 
0.0000

>  <Gold.Chemscore.Hbonds>  (115) 
donor molecule, donor type, donor heavy atom, donor atom, acceptor molecule, acceptor atom, score
      L1  H     3    24       P1  2902  2.00
      P1  H  1888  1903       L1    15  1.00

>  <Gold.PLP.Chemscore.Internal.Correction>  (115) 
0.6406

>  <Gold.PLP.Constraint>  (115) 
-0.0000

>  <Gold.Protein.RotatedTorsions>  (115) 
[  681  677  676  673 ] final   32.11 input -179.99 | X-H torsion
[  702  698  697  694 ] final  -18.07 input  179.99 | X-H torsion
[ 2577 2569 2568 2566 ] final   -7.80 input   -0.13 | X-H torsion
[ 2891 2887 2886 2883 ] final  149.16 input  179.98 | X-H torsion
[ 3175 3171 3170 3167 ] final  -22.63 input -179.99 | X-H torsion
[ 5278 5270 5269 5267 ] final -169.85 input    0.55 | X-H torsion
[  641  637  636  633 ] final -107.93 input  179.99 | X-H torsion
[ 1886 1878 1877 1875 ] final   12.33 input    1.60 | X-H torsion
[  965  957  956  954 ] final  147.12 input    0.45 | X-H torsion

>  <Gold.Protein.ActiveResidues>  (115) 
 LYS47   THR48   LEU49   GLY50   THR51   GLY52   SER53   PHE54   GLY55   ARG56  
 VAL57   MET58   LEU59   TYR69   ALA70   MET71   LYS72   ILE73   LEU74   GLU91  
 LEU95   VAL104  LYS105  MET118  VAL119  MET120  GLU121  TYR122  VAL123  PRO124 
 GLY125  GLY126  GLU127  MET128  PHE129  TYR164  ASP166  LEU167  LYS168  PRO169 
 GLU170  ASN171  LEU172  LEU173  ILE174  GLN181  VAL182  THR183  ASP184  PHE185 
 GLY186  PHE187  GLY200  THR201  ASN326  PHE327  TYR330  ARG18   ARG19   ASN20  
 ALA21   ILE22   HIS23  

>  <Gold.Protein.RotatedAtoms>  (115) 
   10.8788   18.9678    7.3668 H   0  0  0  0  0  0  0  0  0  0  0  0  # atno 641  bound_to 637 
   16.2731   12.6005    6.1690 H   0  0  0  0  0  0  0  0  0  0  0  0  # atno 681  bound_to 677 
   19.6822   11.7882   -0.4328 H   0  0  0  0  0  0  0  0  0  0  0  0  # atno 702  bound_to 698 
   -7.0745   16.8726   -0.1895 H   0  0  0  0  0  0  0  0  0  0  0  0  # atno 965  bound_to 957 
    2.2532   11.5054   10.3393 H   0  0  0  0  0  0  0  0  0  0  0  0  # atno 1886 bound_to 1878
    9.8713    3.3156   -3.3943 H   0  0  0  0  0  0  0  0  0  0  0  0  # atno 2577 bound_to 2569
    7.7122    6.9242    1.1452 H   0  0  0  0  0  0  0  0  0  0  0  0  # atno 2891 bound_to 2887
   19.2991    2.9118   -0.9516 H   0  0  0  0  0  0  0  0  0  0  0  0  # atno 3175 bound_to 3171
   14.4232   10.0519    9.5450 H   0  0  0  0  0  0  0  0  0  0  0  0  # atno 5278 bound_to 5270
   15.7900   13.5032    7.3888 LP  0  0  0  0  0  0  0  0  0  0  0  0  # atno 5914 bound_to 677 
   17.2562   13.7319    6.7072 LP  0  0  0  0  0  0  0  0  0  0  0  0  # atno 5915 bound_to 677 
   21.1477   11.5224   -0.9976 LP  0  0  0  0  0  0  0  0  0  0  0  0  # atno 5920 bound_to 698 
   19.8911   11.7648   -2.0118 LP  0  0  0  0  0  0  0  0  0  0  0  0  # atno 5921 bound_to 698 
   11.1040    2.5430   -2.7471 LP  0  0  0  0  0  0  0  0  0  0  0  0  # atno 5950 bound_to 2569
    9.5729    2.0302   -2.5032 LP  0  0  0  0  0  0  0  0  0  0  0  0  # atno 5951 bound_to 2569
    8.3202    5.7986    0.1967 LP  0  0  0  0  0  0  0  0  0  0  0  0  # atno 5982 bound_to 2887
    7.2380    5.4190    1.3592 LP  0  0  0  0  0  0  0  0  0  0  0  0  # atno 5983 bound_to 2887
   18.5653    2.5697    0.4196 LP  0  0  0  0  0  0  0  0  0  0  0  0  # atno 6000 bound_to 3171
   18.0125    1.9747   -0.9971 LP  0  0  0  0  0  0  0  0  0  0  0  0  # atno 6001 bound_to 3171
   12.9937   10.1897    8.8563 LP  0  0  0  0  0  0  0  0  0  0  0  0  # atno 6004 bound_to 5270
   13.1275    9.8013   10.4368 LP  0  0  0  0  0  0  0  0  0  0  0  0  # atno 6005 bound_to 5270
   10.9784   19.7007    8.7767 LP  0  0  0  0  0  0  0  0  0  0  0  0  # atno 6055 bound_to 637 
    9.5290   19.4244    8.0770 LP  0  0  0  0  0  0  0  0  0  0  0  0  # atno 6056 bound_to 637 
    1.0221   10.5799   10.7431 LP  0  0  0  0  0  0  0  0  0  0  0  0  # atno 6063 bound_to 1878
    0.9912   12.1870   11.0308 LP  0  0  0  0  0  0  0  0  0  0  0  0  # atno 6064 bound_to 1878
   -6.9115   15.3481   -0.6189 LP  0  0  0  0  0  0  0  0  0  0  0  0  # atno 6067 bound_to 957 
   -6.4457   16.5536   -1.6171 LP  0  0  0  0  0  0  0  0  0  0  0  0  # atno 6068 bound_to 957 

>  <STRIFE_LigEff_Score>  (115) 
2.6366823529411763

$$$$
unknown|pharmsElabsTestMulti|sdf|116|dock10
     RDKit          3D

 18 18  0  0  0  0  0  0  0  0999 V2000
    3.3924    7.9546    2.3131 C   0  0  0  0  0  0  0  0  0  0  0  0
    3.6151    9.4142    2.6651 C   0  0  0  0  0  0  0  0  0  0  0  0
    2.8967   10.3052    1.8721 O   0  0  0  0  0  0  0  0  0  0  0  0
    3.6539    9.6813    4.1744 C   0  0  0  0  0  0  0  0  0  0  0  0
    4.9951    9.4725    4.8757 C   0  0  0  0  0  0  0  0  0  0  0  0
    6.0634   10.4101    4.3029 C   0  0  0  0  0  0  0  0  0  0  0  0
    7.4356    9.8710    4.3773 N   0  0  0  0  0  0  0  0  0  0  0  0
    8.1176    9.5874    3.1407 C   0  0  0  0  0  0  0  0  0  0  0  0
    7.4879    9.7122    2.0614 O   0  0  0  0  0  0  0  0  0  0  0  0
    9.5481    9.1546    2.9817 C   0  0  0  0  0  0  0  0  0  0  0  0
    9.7114    7.7960    2.3423 C   0  0  0  0  0  0  0  0  0  0  0  0
   11.1431    7.5021    1.9195 C   0  0  0  0  0  0  0  0  0  0  0  0
   12.2177    7.9457    2.9110 C   0  0  0  0  0  0  0  0  0  0  0  0
   13.6824    7.5844    2.4724 C   0  0  0  0  0  0  0  0  0  0  0  0
   14.5262    6.8000    3.4913 C   0  0  0  0  0  0  0  0  0  0  0  0
   13.7308    6.9248    1.1640 N   0  0  0  0  0  0  0  0  0  0  0  0
   11.9850    9.2912    3.6258 C   0  0  0  0  0  0  0  0  0  0  0  0
   10.5321    9.5367    4.0641 C   0  0  0  0  0  0  0  0  0  0  0  0
  1  2  1  0
  2  3  1  0
  2  4  1  0
  4  5  1  0
  5  6  1  0
  6  7  1  0
  7  8  1  0
  8  9  2  0
  8 10  1  0
 10 11  1  0
 11 12  1  0
 12 13  1  0
 13 14  1  0
 14 15  1  0
 14 16  1  0
 13 17  1  0
 17 18  1  0
 18 10  1  0
M  CHG  1  16   1
M  END
>  <EmbedRMS>  (116) 
0.3138150757084315

>  <Gold.Version>  (116) 
2020.3.0

>  <Gold.Id.Protein>  (116) 
unknown|1q8t_protein|pdb

>  <Gold.PLP.Fitness>  (116) 
51.4186

>  <Gold.PLP.PLP>  (116) 
-43.0805

>  <Gold.PLP.part.hbond>  (116) 
-2.6410

>  <Gold.PLP.part.metal>  (116) 
0.0000

>  <Gold.PLP.part.buried>  (116) 
-4.5083

>  <Gold.PLP.part.nonpolar>  (116) 
-36.2014

>  <Gold.PLP.part.repulsive>  (116) 
0.0656

>  <Gold.PLP.ligand.clash>  (116) 
0.0000

>  <Gold.PLP.ligand.torsion>  (116) 
2.1917

>  <Gold.PLP.Chemscore.Hbond>  (116) 
3.9108

>  <Gold.PLP.Chemscore.CHOScore>  (116) 
0.0000

>  <Gold.PLP.Chemscore.Metal>  (116) 
0.0000

>  <Gold.Chemscore.Hbonds>  (116) 
donor molecule, donor type, donor heavy atom, donor atom, acceptor molecule, acceptor atom, score
      L1  H     3    23       P1  1855  1.00
      L1  H    16    42       P1  2902  1.95
      L1  H    16    43       P1  2691  0.96

>  <Gold.PLP.Chemscore.Internal.Correction>  (116) 
0.9892

>  <Gold.PLP.Constraint>  (116) 
-0.0000

>  <Gold.Protein.RotatedTorsions>  (116) 
[  681  677  676  673 ] final  -10.29 input -179.99 | X-H torsion
[  702  698  697  694 ] final  104.42 input  179.99 | X-H torsion
[ 2577 2569 2568 2566 ] final   50.68 input   -0.13 | X-H torsion
[ 2891 2887 2886 2883 ] final  144.81 input  179.98 | X-H torsion
[ 3175 3171 3170 3167 ] final   93.89 input -179.99 | X-H torsion
[ 5278 5270 5269 5267 ] final   43.57 input    0.55 | X-H torsion
[  641  637  636  633 ] final -107.22 input  179.99 | X-H torsion
[ 1886 1878 1877 1875 ] final  -23.55 input    1.60 | X-H torsion
[  965  957  956  954 ] final -173.31 input    0.45 | X-H torsion

>  <Gold.Protein.ActiveResidues>  (116) 
 LYS47   THR48   LEU49   GLY50   THR51   GLY52   SER53   PHE54   GLY55   ARG56  
 VAL57   MET58   LEU59   TYR69   ALA70   MET71   LYS72   ILE73   LEU74   GLU91  
 LEU95   VAL104  LYS105  MET118  VAL119  MET120  GLU121  TYR122  VAL123  PRO124 
 GLY125  GLY126  GLU127  MET128  PHE129  TYR164  ASP166  LEU167  LYS168  PRO169 
 GLU170  ASN171  LEU172  LEU173  ILE174  GLN181  VAL182  THR183  ASP184  PHE185 
 GLY186  PHE187  GLY200  THR201  ASN326  PHE327  TYR330  ARG18   ARG19   ASN20  
 ALA21   ILE22   HIS23  

>  <Gold.Protein.RotatedAtoms>  (116) 
   10.8689   18.9659    7.3621 H   0  0  0  0  0  0  0  0  0  0  0  0  # atno 641  bound_to 637 
   15.7725   12.6921    6.5699 H   0  0  0  0  0  0  0  0  0  0  0  0  # atno 681  bound_to 677 
   19.9467   11.7712   -1.9817 H   0  0  0  0  0  0  0  0  0  0  0  0  # atno 702  bound_to 698 
   -6.8502   17.1553   -0.6764 H   0  0  0  0  0  0  0  0  0  0  0  0  # atno 965  bound_to 957 
    2.1074   10.9741   10.3130 H   0  0  0  0  0  0  0  0  0  0  0  0  # atno 1886 bound_to 1878
    9.3020    2.7513   -3.0442 H   0  0  0  0  0  0  0  0  0  0  0  0  # atno 2577 bound_to 2569
    7.7572    6.9375    1.0962 H   0  0  0  0  0  0  0  0  0  0  0  0  # atno 2891 bound_to 2887
   18.0801    2.0004   -1.0169 H   0  0  0  0  0  0  0  0  0  0  0  0  # atno 3175 bound_to 3171
   12.7444   10.1209    9.1943 H   0  0  0  0  0  0  0  0  0  0  0  0  # atno 5278 bound_to 5270
   16.3432   13.8988    7.4384 LP  0  0  0  0  0  0  0  0  0  0  0  0  # atno 5914 bound_to 677 
   17.2300   13.2400    6.2358 LP  0  0  0  0  0  0  0  0  0  0  0  0  # atno 5915 bound_to 677 
   19.6197   11.7822   -0.4228 LP  0  0  0  0  0  0  0  0  0  0  0  0  # atno 5920 bound_to 698 
   21.1408   11.5229   -0.9572 LP  0  0  0  0  0  0  0  0  0  0  0  0  # atno 5921 bound_to 698 
   10.8001    3.2465   -3.2579 LP  0  0  0  0  0  0  0  0  0  0  0  0  # atno 5950 bound_to 2569
   10.4763    1.9208   -2.3611 LP  0  0  0  0  0  0  0  0  0  0  0  0  # atno 5951 bound_to 2569
    8.2974    5.7316    0.2070 LP  0  0  0  0  0  0  0  0  0  0  0  0  # atno 5982 bound_to 2887
    7.2134    5.4719    1.4004 LP  0  0  0  0  0  0  0  0  0  0  0  0  # atno 5983 bound_to 2887
   19.3413    2.9682   -0.9259 LP  0  0  0  0  0  0  0  0  0  0  0  0  # atno 6000 bound_to 3171
   18.5193    2.5353    0.4171 LP  0  0  0  0  0  0  0  0  0  0  0  0  # atno 6001 bound_to 3171
   13.5515    9.7838   10.5254 LP  0  0  0  0  0  0  0  0  0  0  0  0  # atno 6004 bound_to 5270
   14.3360   10.1345    9.1368 LP  0  0  0  0  0  0  0  0  0  0  0  0  # atno 6005 bound_to 5270
   10.9881   19.6974    8.7713 LP  0  0  0  0  0  0  0  0  0  0  0  0  # atno 6055 bound_to 637 
    9.5296   19.4297    8.0874 LP  0  0  0  0  0  0  0  0  0  0  0  0  # atno 6056 bound_to 637 
    0.6572   10.9701   10.9705 LP  0  0  0  0  0  0  0  0  0  0  0  0  # atno 6063 bound_to 1878
    1.5096   12.3560   10.8311 LP  0  0  0  0  0  0  0  0  0  0  0  0  # atno 6064 bound_to 1878
   -7.1326   15.6882   -0.1261 LP  0  0  0  0  0  0  0  0  0  0  0  0  # atno 6067 bound_to 957 
   -6.4609   15.9159   -1.5970 LP  0  0  0  0  0  0  0  0  0  0  0  0  # atno 6068 bound_to 957 

>  <STRIFE_LigEff_Score>  (116) 
2.8565888888888886

$$$$
unknown|pharmsElabsTestMulti|sdf|117|dock3
     RDKit          3D

 17 17  0  0  0  0  0  0  0  0999 V2000
   14.5309    7.6349    3.4749 C   0  0  0  0  0  0  0  0  0  0  0  0
   13.3167    7.5983    2.5483 C   0  0  0  0  0  0  0  0  0  0  0  0
   13.4743    8.4870    1.3951 N   0  0  0  0  0  0  0  0  0  0  0  0
   11.9051    7.6899    3.1786 C   0  0  0  0  0  0  0  0  0  0  0  0
   10.7966    7.0982    2.2959 C   0  0  0  0  0  0  0  0  0  0  0  0
    9.3764    7.5401    2.6068 C   0  0  0  0  0  0  0  0  0  0  0  0
    9.2820    9.0101    2.9278 C   0  0  0  0  0  0  0  0  0  0  0  0
    7.8807    9.5433    2.9272 C   0  0  0  0  0  0  0  0  0  0  0  0
    7.4888    9.9999    4.0283 O   0  0  0  0  0  0  0  0  0  0  0  0
    6.9818    9.5536    1.8046 N   0  0  0  0  0  0  0  0  0  0  0  0
    5.5806    9.9635    1.9807 C   0  0  0  0  0  0  0  0  0  0  0  0
    4.8276    8.9503    2.8565 C   0  0  0  0  0  0  0  0  0  0  0  0
    5.0602    9.2027    4.2777 N   0  0  0  0  0  0  0  0  0  0  0  0
    4.0045    9.6253    5.1461 C   0  0  0  0  0  0  0  0  0  0  0  0
    2.8373    9.8031    4.7058 O   0  0  0  0  0  0  0  0  0  0  0  0
   10.2103    9.5234    3.9933 C   0  0  0  0  0  0  0  0  0  0  0  0
   11.6600    9.1149    3.7419 C   0  0  0  0  0  0  0  0  0  0  0  0
  1  2  1  0
  2  3  1  0
  2  4  1  0
  4  5  1  0
  5  6  1  0
  6  7  1  0
  7  8  1  0
  8  9  2  0
  8 10  1  0
 10 11  1  0
 11 12  1  0
 12 13  1  0
 13 14  1  0
 14 15  2  0
  7 16  1  0
 16 17  1  0
 17  4  1  0
M  CHG  1   3   1
M  END
>  <EmbedRMS>  (117) 
0.30207850723488733

>  <Gold.Version>  (117) 
2020.3.0

>  <Gold.Id.Protein>  (117) 
unknown|1q8t_protein|pdb

>  <Gold.PLP.Fitness>  (117) 
44.6138

>  <Gold.PLP.PLP>  (117) 
-36.2269

>  <Gold.PLP.part.hbond>  (117) 
-2.0000

>  <Gold.PLP.part.metal>  (117) 
0.0000

>  <Gold.PLP.part.buried>  (117) 
-4.7926

>  <Gold.PLP.part.nonpolar>  (117) 
-30.2343

>  <Gold.PLP.part.repulsive>  (117) 
0.1721

>  <Gold.PLP.ligand.clash>  (117) 
0.0000

>  <Gold.PLP.ligand.torsion>  (117) 
0.6483

>  <Gold.PLP.Chemscore.Hbond>  (117) 
3.0000

>  <Gold.PLP.Chemscore.CHOScore>  (117) 
0.0000

>  <Gold.PLP.Chemscore.Metal>  (117) 
0.0000

>  <Gold.Chemscore.Hbonds>  (117) 
donor molecule, donor type, donor heavy atom, donor atom, acceptor molecule, acceptor atom, score
      L1  H     3    24       P1  2902  2.00
      P1  H  1888  1903       L1    15  1.00

>  <Gold.PLP.Chemscore.Internal.Correction>  (117) 
0.6835

>  <Gold.PLP.Constraint>  (117) 
-0.0000

>  <Gold.Protein.RotatedTorsions>  (117) 
[  681  677  676  673 ] final -143.22 input -179.99 | X-H torsion
[  702  698  697  694 ] final -175.18 input  179.99 | X-H torsion
[ 2577 2569 2568 2566 ] final   20.85 input   -0.13 | X-H torsion
[ 2891 2887 2886 2883 ] final  162.31 input  179.98 | X-H torsion
[ 3175 3171 3170 3167 ] final   49.05 input -179.99 | X-H torsion
[ 5278 5270 5269 5267 ] final  -36.34 input    0.55 | X-H torsion
[  641  637  636  633 ] final  113.71 input  179.99 | X-H torsion
[ 1886 1878 1877 1875 ] final   91.67 input    1.60 | X-H torsion
[  965  957  956  954 ] final  167.39 input    0.45 | X-H torsion

>  <Gold.Protein.ActiveResidues>  (117) 
 LYS47   THR48   LEU49   GLY50   THR51   GLY52   SER53   PHE54   GLY55   ARG56  
 VAL57   MET58   LEU59   TYR69   ALA70   MET71   LYS72   ILE73   LEU74   GLU91  
 LEU95   VAL104  LYS105  MET118  VAL119  MET120  GLU121  TYR122  VAL123  PRO124 
 GLY125  GLY126  GLU127  MET128  PHE129  TYR164  ASP166  LEU167  LYS168  PRO169 
 GLU170  ASN171  LEU172  LEU173  ILE174  GLN181  VAL182  THR183  ASP184  PHE185 
 GLY186  PHE187  GLY200  THR201  ASN326  PHE327  TYR330  ARG18   ARG19   ASN20  
 ALA21   ILE22   HIS23  

>  <Gold.Protein.RotatedAtoms>  (117) 
   10.6902   19.7324    8.8437 H   0  0  0  0  0  0  0  0  0  0  0  0  # atno 641  bound_to 637 
   16.5258   13.9348    7.3353 H   0  0  0  0  0  0  0  0  0  0  0  0  # atno 681  bound_to 677 
   21.0082   11.5750   -1.5654 H   0  0  0  0  0  0  0  0  0  0  0  0  # atno 702  bound_to 698 
   -6.9694   17.0642   -0.4164 H   0  0  0  0  0  0  0  0  0  0  0  0  # atno 965  bound_to 957 
    1.5673   12.3078   10.7785 H   0  0  0  0  0  0  0  0  0  0  0  0  # atno 1886 bound_to 1878
    9.5063    3.0975   -3.2696 H   0  0  0  0  0  0  0  0  0  0  0  0  # atno 2577 bound_to 2569
    7.5780    6.8543    1.2838 H   0  0  0  0  0  0  0  0  0  0  0  0  # atno 2891 bound_to 2887
   18.5620    2.3084   -1.3906 H   0  0  0  0  0  0  0  0  0  0  0  0  # atno 3175 bound_to 3171
   12.9687    9.8528   10.2907 H   0  0  0  0  0  0  0  0  0  0  0  0  # atno 5278 bound_to 5270
   17.1326   13.0794    6.1369 LP  0  0  0  0  0  0  0  0  0  0  0  0  # atno 5914 bound_to 677 
   15.6476   12.7514    6.7317 LP  0  0  0  0  0  0  0  0  0  0  0  0  # atno 5915 bound_to 677 
   19.4382   11.8376   -1.6250 LP  0  0  0  0  0  0  0  0  0  0  0  0  # atno 5920 bound_to 698 
   20.2057   11.6739   -0.1929 LP  0  0  0  0  0  0  0  0  0  0  0  0  # atno 5921 bound_to 698 
   11.0683    2.9238   -3.0141 LP  0  0  0  0  0  0  0  0  0  0  0  0  # atno 5950 bound_to 2569
    9.9928    1.8790   -2.3675 LP  0  0  0  0  0  0  0  0  0  0  0  0  # atno 5951 bound_to 2569
    8.3691    6.0087    0.1903 LP  0  0  0  0  0  0  0  0  0  0  0  0  # atno 5982 bound_to 2887
    7.3302    5.2824    1.2197 LP  0  0  0  0  0  0  0  0  0  0  0  0  # atno 5983 bound_to 2887
   19.3306    3.0538   -0.2120 LP  0  0  0  0  0  0  0  0  0  0  0  0  # atno 6000 bound_to 3171
   18.0229    2.1256    0.0965 LP  0  0  0  0  0  0  0  0  0  0  0  0  # atno 6001 bound_to 3171
   14.4620    9.9839    9.7526 LP  0  0  0  0  0  0  0  0  0  0  0  0  # atno 6004 bound_to 5270
   13.1896   10.2165    8.7559 LP  0  0  0  0  0  0  0  0  0  0  0  0  # atno 6005 bound_to 5270
    9.5629   19.2869    7.8114 LP  0  0  0  0  0  0  0  0  0  0  0  0  # atno 6055 bound_to 637 
   11.1430   19.0329    7.4869 LP  0  0  0  0  0  0  0  0  0  0  0  0  # atno 6056 bound_to 637 
    2.1063   10.8825   10.3167 LP  0  0  0  0  0  0  0  0  0  0  0  0  # atno 6063 bound_to 1878
    0.6291   11.0396   10.9948 LP  0  0  0  0  0  0  0  0  0  0  0  0  # atno 6064 bound_to 1878
   -7.0374   15.4753   -0.3396 LP  0  0  0  0  0  0  0  0  0  0  0  0  # atno 6067 bound_to 957 
   -6.4305   16.2247   -1.6574 LP  0  0  0  0  0  0  0  0  0  0  0  0  # atno 6068 bound_to 957 

>  <STRIFE_LigEff_Score>  (117) 
2.624341176470588

$$$$
unknown|pharmsElabsTestMulti|sdf|118|dock10
     RDKit          3D

 18 18  0  0  0  0  0  0  0  0999 V2000
    3.9291   10.0407    5.8781 C   0  0  0  0  0  0  0  0  0  0  0  0
    3.8832    9.6733    4.4316 C   0  0  0  0  0  0  0  0  0  0  0  0
    2.7953    9.7623    3.8001 O   0  0  0  0  0  0  0  0  0  0  0  0
    5.0795    9.2456    3.7658 N   0  0  0  0  0  0  0  0  0  0  0  0
    5.1070    8.8835    2.3502 C   0  0  0  0  0  0  0  0  0  0  0  0
    5.7208   10.0106    1.5052 C   0  0  0  0  0  0  0  0  0  0  0  0
    7.1592    9.7799    1.3057 N   0  0  0  0  0  0  0  0  0  0  0  0
    8.0234    9.5857    2.4377 C   0  0  0  0  0  0  0  0  0  0  0  0
    7.5553    9.7298    3.5943 O   0  0  0  0  0  0  0  0  0  0  0  0
    9.4674    9.1864    2.3772 C   0  0  0  0  0  0  0  0  0  0  0  0
    9.7152    7.6767    2.3291 C   0  0  0  0  0  0  0  0  0  0  0  0
   11.1981    7.2704    2.4530 C   0  0  0  0  0  0  0  0  0  0  0  0
   12.1250    8.4026    1.9828 C   0  0  0  0  0  0  0  0  0  0  0  0
   13.6155    8.0483    1.6894 C   0  0  0  0  0  0  0  0  0  0  0  0
   14.5675    9.2104    1.4616 C   0  0  0  0  0  0  0  0  0  0  0  0
   13.8759    6.8732    0.8649 N   0  0  0  0  0  0  0  0  0  0  0  0
   11.9465    9.6312    2.8981 C   0  0  0  0  0  0  0  0  0  0  0  0
   10.4853   10.1139    3.0217 C   0  0  0  0  0  0  0  0  0  0  0  0
  1  2  1  0
  2  3  2  0
  2  4  1  0
  4  5  1  0
  5  6  1  0
  6  7  1  0
  7  8  1  0
  8  9  2  0
  8 10  1  0
 10 11  1  0
 11 12  1  0
 12 13  1  0
 13 14  1  0
 14 15  1  0
 14 16  1  0
 13 17  1  0
 17 18  1  0
 18 10  1  0
M  CHG  1  16   1
M  END
>  <EmbedRMS>  (118) 
0.2509587523478319

>  <Gold.Version>  (118) 
2020.3.0

>  <Gold.Id.Protein>  (118) 
unknown|1q8t_protein|pdb

>  <Gold.PLP.Fitness>  (118) 
50.1647

>  <Gold.PLP.PLP>  (118) 
-38.9129

>  <Gold.PLP.part.hbond>  (118) 
-2.9176

>  <Gold.PLP.part.metal>  (118) 
0.0000

>  <Gold.PLP.part.buried>  (118) 
-4.9572

>  <Gold.PLP.part.nonpolar>  (118) 
-32.5688

>  <Gold.PLP.part.repulsive>  (118) 
0.2419

>  <Gold.PLP.ligand.clash>  (118) 
0.0000

>  <Gold.PLP.ligand.torsion>  (118) 
0.8897

>  <Gold.PLP.Chemscore.Hbond>  (118) 
3.9920

>  <Gold.PLP.Chemscore.CHOScore>  (118) 
0.0000

>  <Gold.PLP.Chemscore.Metal>  (118) 
0.0000

>  <Gold.Chemscore.Hbonds>  (118) 
donor molecule, donor type, donor heavy atom, donor atom, acceptor molecule, acceptor atom, score
      L1  H    16    38       P1  2691  0.99
      L1  H    16    39       P1  2902  2.00
      P1  H  1888  1903       L1     3  1.00

>  <Gold.PLP.Chemscore.Internal.Correction>  (118) 
1.0551

>  <Gold.PLP.Constraint>  (118) 
-0.0000

>  <Gold.Protein.RotatedTorsions>  (118) 
[  681  677  676  673 ] final   78.00 input -179.99 | X-H torsion
[  702  698  697  694 ] final  136.19 input  179.99 | X-H torsion
[ 2577 2569 2568 2566 ] final  173.87 input   -0.13 | X-H torsion
[ 2891 2887 2886 2883 ] final  133.51 input  179.98 | X-H torsion
[ 3175 3171 3170 3167 ] final  -85.19 input -179.99 | X-H torsion
[ 5278 5270 5269 5267 ] final   72.86 input    0.55 | X-H torsion
[  641  637  636  633 ] final -130.87 input  179.99 | X-H torsion
[ 1886 1878 1877 1875 ] final -102.66 input    1.60 | X-H torsion
[  965  957  956  954 ] final   27.55 input    0.45 | X-H torsion

>  <Gold.Protein.ActiveResidues>  (118) 
 LYS47   THR48   LEU49   GLY50   THR51   GLY52   SER53   PHE54   GLY55   ARG56  
 VAL57   MET58   LEU59   TYR69   ALA70   MET71   LYS72   ILE73   LEU74   GLU91  
 LEU95   VAL104  LYS105  MET118  VAL119  MET120  GLU121  TYR122  VAL123  PRO124 
 GLY125  GLY126  GLU127  MET128  PHE129  TYR164  ASP166  LEU167  LYS168  PRO169 
 GLU170  ASN171  LEU172  LEU173  ILE174  GLN181  VAL182  THR183  ASP184  PHE185 
 GLY186  PHE187  GLY200  THR201  ASN326  PHE327  TYR330  ARG18   ARG19   ASN20  
 ALA21   ILE22   HIS23  

>  <Gold.Protein.RotatedAtoms>  (118) 
   11.1561   19.0569    7.5716 H   0  0  0  0  0  0  0  0  0  0  0  0  # atno 641  bound_to 637 
   16.8991   12.8953    6.0735 H   0  0  0  0  0  0  0  0  0  0  0  0  # atno 681  bound_to 677 
   20.4291   11.6862   -2.0093 H   0  0  0  0  0  0  0  0  0  0  0  0  # atno 702  bound_to 698 
   -6.8948   15.3958   -0.6153 H   0  0  0  0  0  0  0  0  0  0  0  0  # atno 965  bound_to 957 
    1.1005   10.5954   10.6922 H   0  0  0  0  0  0  0  0  0  0  0  0  # atno 1886 bound_to 1878
   10.5089    1.9634   -2.4086 H   0  0  0  0  0  0  0  0  0  0  0  0  # atno 2577 bound_to 2569
    7.8736    6.9485    0.9640 H   0  0  0  0  0  0  0  0  0  0  0  0  # atno 2891 bound_to 2887
   19.2150    2.9706   -0.0272 H   0  0  0  0  0  0  0  0  0  0  0  0  # atno 3175 bound_to 3171
   13.0555   10.2029    8.8752 H   0  0  0  0  0  0  0  0  0  0  0  0  # atno 5278 bound_to 5270
   15.5791   12.9421    6.9632 LP  0  0  0  0  0  0  0  0  0  0  0  0  # atno 5914 bound_to 677 
   16.8083   13.9827    7.2334 LP  0  0  0  0  0  0  0  0  0  0  0  0  # atno 5915 bound_to 677 
   19.3427   11.8396   -0.8545 LP  0  0  0  0  0  0  0  0  0  0  0  0  # atno 5920 bound_to 698 
   20.9103   11.5549   -0.4965 LP  0  0  0  0  0  0  0  0  0  0  0  0  # atno 5921 bound_to 698 
    9.2457    2.7242   -3.0091 LP  0  0  0  0  0  0  0  0  0  0  0  0  # atno 5950 bound_to 2569
   10.7599    3.2728   -3.2790 LP  0  0  0  0  0  0  0  0  0  0  0  0  # atno 5951 bound_to 2569
    8.2240    5.5673    0.2527 LP  0  0  0  0  0  0  0  0  0  0  0  0  # atno 5982 bound_to 2887
    7.1643    5.6247    1.4938 LP  0  0  0  0  0  0  0  0  0  0  0  0  # atno 5983 bound_to 2887
   17.9305    2.0319   -0.0964 LP  0  0  0  0  0  0  0  0  0  0  0  0  # atno 6000 bound_to 3171
   18.7357    2.4506   -1.4539 LP  0  0  0  0  0  0  0  0  0  0  0  0  # atno 6001 bound_to 3171
   13.0876    9.8057   10.4172 LP  0  0  0  0  0  0  0  0  0  0  0  0  # atno 6004 bound_to 5270
   14.4726   10.0265    9.5807 LP  0  0  0  0  0  0  0  0  0  0  0  0  # atno 6005 bound_to 5270
   10.6292   19.7779    8.8898 LP  0  0  0  0  0  0  0  0  0  0  0  0  # atno 6055 bound_to 637 
    9.5860   19.2533    7.7482 LP  0  0  0  0  0  0  0  0  0  0  0  0  # atno 6056 bound_to 637 
    0.9283   12.1373   11.0501 LP  0  0  0  0  0  0  0  0  0  0  0  0  # atno 6063 bound_to 1878
    2.2985   11.5876   10.3523 LP  0  0  0  0  0  0  0  0  0  0  0  0  # atno 6064 bound_to 1878
   -6.4449   16.5471   -1.6190 LP  0  0  0  0  0  0  0  0  0  0  0  0  # atno 6067 bound_to 957 
   -7.1016   16.9100   -0.1686 LP  0  0  0  0  0  0  0  0  0  0  0  0  # atno 6068 bound_to 957 

>  <STRIFE_LigEff_Score>  (118) 
2.786927777777778

$$$$
unknown|pharmsElabsTestMulti|sdf|119|dock3
     RDKit          3D

 20 21  0  0  0  0  0  0  0  0999 V2000
    4.0495    9.7987    5.7217 C   0  0  0  0  0  0  0  0  0  0  0  0
    4.2308    9.5780    4.2433 C   0  0  0  0  0  0  0  0  0  0  0  0
    3.2244    8.9007    3.5340 C   0  0  0  0  0  0  0  0  0  0  0  0
    3.3305    8.7098    2.1562 C   0  0  0  0  0  0  0  0  0  0  0  0
    4.4418    9.1920    1.4668 C   0  0  0  0  0  0  0  0  0  0  0  0
    5.4528    9.8651    2.1543 C   0  0  0  0  0  0  0  0  0  0  0  0
    5.3627   10.0669    3.5437 C   0  0  0  0  0  0  0  0  0  0  0  0
    6.4839   10.8048    4.2336 C   0  0  0  0  0  0  0  0  0  0  0  0
    7.6620    9.9513    4.3342 N   0  0  0  0  0  0  0  0  0  0  0  0
    8.4796    9.6180    3.2056 C   0  0  0  0  0  0  0  0  0  0  0  0
    8.1973   10.0595    2.0582 O   0  0  0  0  0  0  0  0  0  0  0  0
    9.6942    8.7539    3.3992 C   0  0  0  0  0  0  0  0  0  0  0  0
   10.0032    7.9762    2.1215 C   0  0  0  0  0  0  0  0  0  0  0  0
   11.1373    6.9840    2.3331 C   0  0  0  0  0  0  0  0  0  0  0  0
   12.3657    7.5262    3.1120 C   0  0  0  0  0  0  0  0  0  0  0  0
   13.7631    7.4732    2.4637 C   0  0  0  0  0  0  0  0  0  0  0  0
   14.9848    7.6097    3.3722 C   0  0  0  0  0  0  0  0  0  0  0  0
   13.8706    8.3641    1.3003 N   0  0  0  0  0  0  0  0  0  0  0  0
   12.1468    8.7718    4.0246 C   0  0  0  0  0  0  0  0  0  0  0  0
   10.8996    9.6137    3.7629 C   0  0  0  0  0  0  0  0  0  0  0  0
  1  2  1  0
  2  3  2  0
  3  4  1  0
  4  5  2  0
  5  6  1  0
  6  7  2  0
  7  8  1  0
  8  9  1  0
  9 10  1  0
 10 11  2  0
 10 12  1  0
 12 13  1  0
 13 14  1  0
 14 15  1  0
 15 16  1  0
 16 17  1  0
 16 18  1  0
 15 19  1  0
 19 20  1  0
  7  2  1  0
 20 12  1  0
M  CHG  1  18   1
M  END
>  <EmbedRMS>  (119) 
0.19204016474732244

>  <Gold.Version>  (119) 
2020.3.0

>  <Gold.Id.Protein>  (119) 
unknown|1q8t_protein|pdb

>  <Gold.PLP.Fitness>  (119) 
52.8586

>  <Gold.PLP.PLP>  (119) 
-48.7683

>  <Gold.PLP.part.hbond>  (119) 
-1.0000

>  <Gold.PLP.part.metal>  (119) 
0.0000

>  <Gold.PLP.part.buried>  (119) 
-1.9248

>  <Gold.PLP.part.nonpolar>  (119) 
-47.0904

>  <Gold.PLP.part.repulsive>  (119) 
0.0000

>  <Gold.PLP.ligand.clash>  (119) 
0.0000

>  <Gold.PLP.ligand.torsion>  (119) 
1.1623

>  <Gold.PLP.Chemscore.Hbond>  (119) 
2.0000

>  <Gold.PLP.Chemscore.CHOScore>  (119) 
0.0000

>  <Gold.PLP.Chemscore.Metal>  (119) 
0.0000

>  <Gold.Chemscore.Hbonds>  (119) 
donor molecule, donor type, donor heavy atom, donor atom, acceptor molecule, acceptor atom, score
      L1  H    18    41       P1  2902  2.00

>  <Gold.PLP.Chemscore.Internal.Correction>  (119) 
0.4148

>  <Gold.PLP.Constraint>  (119) 
-0.0000

>  <Gold.Protein.RotatedTorsions>  (119) 
[  681  677  676  673 ] final  -90.49 input -179.99 | X-H torsion
[  702  698  697  694 ] final -167.83 input  179.99 | X-H torsion
[ 2577 2569 2568 2566 ] final -110.36 input   -0.13 | X-H torsion
[ 2891 2887 2886 2883 ] final   -4.03 input  179.98 | X-H torsion
[ 3175 3171 3170 3167 ] final  -21.27 input -179.99 | X-H torsion
[ 5278 5270 5269 5267 ] final   -0.56 input    0.55 | X-H torsion
[  641  637  636  633 ] final  169.77 input  179.99 | X-H torsion
[ 1886 1878 1877 1875 ] final  -22.53 input    1.60 | X-H torsion
[  965  957  956  954 ] final  -83.03 input    0.45 | X-H torsion

>  <Gold.Protein.ActiveResidues>  (119) 
 LYS47   THR48   LEU49   GLY50   THR51   GLY52   SER53   PHE54   GLY55   ARG56  
 VAL57   MET58   LEU59   TYR69   ALA70   MET71   LYS72   ILE73   LEU74   GLU91  
 LEU95   VAL104  LYS105  MET118  VAL119  MET120  GLU121  TYR122  VAL123  PRO124 
 GLY125  GLY126  GLU127  MET128  PHE129  TYR164  ASP166  LEU167  LYS168  PRO169 
 GLU170  ASN171  LEU172  LEU173  ILE174  GLN181  VAL182  THR183  ASP184  PHE185 
 GLY186  PHE187  GLY200  THR201  ASN326  PHE327  TYR330  ARG18   ARG19   ASN20  
 ALA21   ILE22   HIS23  

>  <Gold.Protein.RotatedAtoms>  (119) 
   11.3111   19.4470    8.3527 H   0  0  0  0  0  0  0  0  0  0  0  0  # atno 641  bound_to 637 
   15.8408   13.5310    7.3593 H   0  0  0  0  0  0  0  0  0  0  0  0  # atno 681  bound_to 677 
   21.0557   11.5646   -1.4614 H   0  0  0  0  0  0  0  0  0  0  0  0  # atno 702  bound_to 698 
   -6.4370   16.3893   -1.6003 H   0  0  0  0  0  0  0  0  0  0  0  0  # atno 965  bound_to 957 
    2.1156   10.9877   10.3117 H   0  0  0  0  0  0  0  0  0  0  0  0  # atno 1886 bound_to 1878
   11.0642    2.7617   -2.9223 H   0  0  0  0  0  0  0  0  0  0  0  0  # atno 2577 bound_to 2569
    8.0478    5.3902    0.3889 H   0  0  0  0  0  0  0  0  0  0  0  0  # atno 2891 bound_to 2887
   19.2917    2.9039   -0.9699 H   0  0  0  0  0  0  0  0  0  0  0  0  # atno 3175 bound_to 3171
   12.6664    9.9600    9.8433 H   0  0  0  0  0  0  0  0  0  0  0  0  # atno 5278 bound_to 5270
   17.2680   13.7066    6.6748 LP  0  0  0  0  0  0  0  0  0  0  0  0  # atno 5914 bound_to 677 
   16.2332   12.5492    6.1684 LP  0  0  0  0  0  0  0  0  0  0  0  0  # atno 5915 bound_to 677 
   19.5067   11.8274   -1.7240 LP  0  0  0  0  0  0  0  0  0  0  0  0  # atno 5920 bound_to 698 
   20.0873   11.6951   -0.2034 LP  0  0  0  0  0  0  0  0  0  0  0  0  # atno 5921 bound_to 698 
    9.8169    1.9169   -2.4067 LP  0  0  0  0  0  0  0  0  0  0  0  0  # atno 5950 bound_to 2569
    9.6040    3.2394   -3.3406 LP  0  0  0  0  0  0  0  0  0  0  0  0  # atno 5951 bound_to 2569
    7.1343    5.8929    1.5928 LP  0  0  0  0  0  0  0  0  0  0  0  0  # atno 5982 bound_to 2887
    8.0707    6.9391    0.7589 LP  0  0  0  0  0  0  0  0  0  0  0  0  # atno 5983 bound_to 2887
   18.5832    2.5830    0.4196 LP  0  0  0  0  0  0  0  0  0  0  0  0  # atno 6000 bound_to 3171
   18.0022    1.9696   -0.9778 LP  0  0  0  0  0  0  0  0  0  0  0  0  # atno 6001 bound_to 3171
   14.2018    9.8575   10.2544 LP  0  0  0  0  0  0  0  0  0  0  0  0  # atno 6004 bound_to 5270
   13.7678   10.2302    8.7249 LP  0  0  0  0  0  0  0  0  0  0  0  0  # atno 6005 bound_to 5270
    9.7524   19.6721    8.5866 LP  0  0  0  0  0  0  0  0  0  0  0  0  # atno 6055 bound_to 637 
   10.2995   18.9483    7.2289 LP  0  0  0  0  0  0  0  0  0  0  0  0  # atno 6056 bound_to 637 
    0.6639   10.9558   10.9651 LP  0  0  0  0  0  0  0  0  0  0  0  0  # atno 6063 bound_to 1878
    1.4943   12.3561   10.8379 LP  0  0  0  0  0  0  0  0  0  0  0  0  # atno 6064 bound_to 1878
   -7.0535   17.0145   -0.2721 LP  0  0  0  0  0  0  0  0  0  0  0  0  # atno 6067 bound_to 957 
   -6.9752   15.3964   -0.4780 LP  0  0  0  0  0  0  0  0  0  0  0  0  # atno 6068 bound_to 957 

>  <STRIFE_LigEff_Score>  (119) 
2.6429300000000002

$$$$
unknown|pharmsElabsTestMulti|sdf|120|dock4
     RDKit          3D

 14 14  0  0  0  0  0  0  0  0999 V2000
    3.8990    9.7429    5.3606 C   0  0  0  0  0  0  0  0  0  0  0  0
    4.7998   10.0264    4.1648 C   0  0  0  0  0  0  0  0  0  0  0  0
    6.1073    9.4067    4.3525 N   0  0  0  0  0  0  0  0  0  0  0  0
    7.1354    9.4618    3.3561 C   0  0  0  0  0  0  0  0  0  0  0  0
    6.9586   10.1256    2.2961 O   0  0  0  0  0  0  0  0  0  0  0  0
    8.4391    8.7477    3.5927 C   0  0  0  0  0  0  0  0  0  0  0  0
    8.7588    7.8202    2.4219 C   0  0  0  0  0  0  0  0  0  0  0  0
    9.9953    6.9763    2.6977 C   0  0  0  0  0  0  0  0  0  0  0  0
   11.2031    7.7356    3.3091 C   0  0  0  0  0  0  0  0  0  0  0  0
   12.5635    7.7160    2.5839 C   0  0  0  0  0  0  0  0  0  0  0  0
   13.8312    7.8608    3.4257 C   0  0  0  0  0  0  0  0  0  0  0  0
   12.5919    8.6249    1.4297 N   0  0  0  0  0  0  0  0  0  0  0  0
   10.9086    9.0755    4.0507 C   0  0  0  0  0  0  0  0  0  0  0  0
    9.5730    9.7547    3.7535 C   0  0  0  0  0  0  0  0  0  0  0  0
  1  2  1  0
  2  3  1  0
  3  4  1  0
  4  5  2  0
  4  6  1  0
  6  7  1  0
  7  8  1  0
  8  9  1  0
  9 10  1  0
 10 11  1  0
 10 12  1  0
  9 13  1  0
 13 14  1  0
 14  6  1  0
M  CHG  1  12   1
M  END
>  <EmbedRMS>  (120) 
0.22880006867790334

>  <Gold.Version>  (120) 
2020.3.0

>  <Gold.Id.Protein>  (120) 
unknown|1q8t_protein|pdb

>  <Gold.PLP.Fitness>  (120) 
34.7167

>  <Gold.PLP.PLP>  (120) 
-29.0264

>  <Gold.PLP.part.hbond>  (120) 
-1.0000

>  <Gold.PLP.part.metal>  (120) 
0.0000

>  <Gold.PLP.part.buried>  (120) 
0.7749

>  <Gold.PLP.part.nonpolar>  (120) 
-28.5664

>  <Gold.PLP.part.repulsive>  (120) 
0.0000

>  <Gold.PLP.ligand.clash>  (120) 
0.0000

>  <Gold.PLP.ligand.torsion>  (120) 
0.3476

>  <Gold.PLP.Chemscore.Hbond>  (120) 
2.0000

>  <Gold.PLP.Chemscore.CHOScore>  (120) 
0.0000

>  <Gold.PLP.Chemscore.Metal>  (120) 
0.0000

>  <Gold.Chemscore.Hbonds>  (120) 
donor molecule, donor type, donor heavy atom, donor atom, acceptor molecule, acceptor atom, score
      L1  H    12    31       P1  2902  2.00

>  <Gold.PLP.Chemscore.Internal.Correction>  (120) 
0.3856

>  <Gold.PLP.Constraint>  (120) 
-0.0000

>  <Gold.Protein.RotatedTorsions>  (120) 
[  681  677  676  673 ] final   69.62 input -179.99 | X-H torsion
[  702  698  697  694 ] final   30.03 input  179.99 | X-H torsion
[ 2577 2569 2568 2566 ] final  -43.20 input   -0.13 | X-H torsion
[ 2891 2887 2886 2883 ] final   22.50 input  179.98 | X-H torsion
[ 3175 3171 3170 3167 ] final  110.72 input -179.99 | X-H torsion
[ 5278 5270 5269 5267 ] final  153.65 input    0.55 | X-H torsion
[  641  637  636  633 ] final  169.10 input  179.99 | X-H torsion
[ 1886 1878 1877 1875 ] final   34.74 input    1.60 | X-H torsion
[  965  957  956  954 ] final  -17.72 input    0.45 | X-H torsion

>  <Gold.Protein.ActiveResidues>  (120) 
 LYS47   THR48   LEU49   GLY50   THR51   GLY52   SER53   PHE54   GLY55   ARG56  
 VAL57   MET58   LEU59   TYR69   ALA70   MET71   LYS72   ILE73   LEU74   GLU91  
 LEU95   VAL104  LYS105  MET118  VAL119  MET120  GLU121  TYR122  VAL123  PRO124 
 GLY125  GLY126  GLU127  MET128  PHE129  TYR164  ASP166  LEU167  LYS168  PRO169 
 GLU170  ASN171  LEU172  LEU173  ILE174  GLN181  VAL182  THR183  ASP184  PHE185 
 GLY186  PHE187  GLY200  THR201  ASN326  PHE327  TYR330  ARG18   ARG19   ASN20  
 ALA21   ILE22   HIS23  

>  <Gold.Protein.RotatedAtoms>  (120) 
   11.3076   19.4516    8.3613 H   0  0  0  0  0  0  0  0  0  0  0  0  # atno 641  bound_to 637 
   16.7958   12.8161    6.0589 H   0  0  0  0  0  0  0  0  0  0  0  0  # atno 681  bound_to 677 
   19.3517   11.8593   -1.0805 H   0  0  0  0  0  0  0  0  0  0  0  0  # atno 702  bound_to 698 
   -6.6125   15.5130   -1.2330 H   0  0  0  0  0  0  0  0  0  0  0  0  # atno 965  bound_to 957 
    2.1847   11.8356   10.4258 H   0  0  0  0  0  0  0  0  0  0  0  0  # atno 1886 bound_to 1878
   10.4145    3.3527   -3.3802 H   0  0  0  0  0  0  0  0  0  0  0  0  # atno 2577 bound_to 2569
    8.2457    5.7175    0.2381 H   0  0  0  0  0  0  0  0  0  0  0  0  # atno 2891 bound_to 2887
   17.9737    1.9523   -0.7822 H   0  0  0  0  0  0  0  0  0  0  0  0  # atno 3175 bound_to 3171
   14.2043   10.1735    9.0428 H   0  0  0  0  0  0  0  0  0  0  0  0  # atno 5278 bound_to 5270
   15.5781   13.0397    7.0606 LP  0  0  0  0  0  0  0  0  0  0  0  0  # atno 5914 bound_to 677 
   16.9181   13.9685    7.1513 LP  0  0  0  0  0  0  0  0  0  0  0  0  # atno 5915 bound_to 677 
   20.7394   11.5823   -0.3492 LP  0  0  0  0  0  0  0  0  0  0  0  0  # atno 5920 bound_to 698 
   20.6470   11.6301   -1.9788 LP  0  0  0  0  0  0  0  0  0  0  0  0  # atno 5921 bound_to 698 
   10.8384    2.1166   -2.4705 LP  0  0  0  0  0  0  0  0  0  0  0  0  # atno 5950 bound_to 2569
    9.2665    2.4175   -2.7946 LP  0  0  0  0  0  0  0  0  0  0  0  0  # atno 5951 bound_to 2569
    7.2015    5.5015    1.4212 LP  0  0  0  0  0  0  0  0  0  0  0  0  # atno 5982 bound_to 2887
    7.7952    6.9861    1.0892 LP  0  0  0  0  0  0  0  0  0  0  0  0  # atno 5983 bound_to 2887
   19.2308    2.8567   -1.1528 LP  0  0  0  0  0  0  0  0  0  0  0  0  # atno 6000 bound_to 3171
   18.7417    2.6974    0.3971 LP  0  0  0  0  0  0  0  0  0  0  0  0  # atno 6001 bound_to 3171
   12.6379   10.0733    9.3130 LP  0  0  0  0  0  0  0  0  0  0  0  0  # atno 6004 bound_to 5270
   13.7135    9.7897   10.5085 LP  0  0  0  0  0  0  0  0  0  0  0  0  # atno 6005 bound_to 5270
    9.7454   19.6686    8.5790 LP  0  0  0  0  0  0  0  0  0  0  0  0  # atno 6055 bound_to 637 
   10.3103   18.9469    7.2274 LP  0  0  0  0  0  0  0  0  0  0  0  0  # atno 6056 bound_to 637 
    1.3426   10.4940   10.5872 LP  0  0  0  0  0  0  0  0  0  0  0  0  # atno 6063 bound_to 1878
    0.7429   11.9253   11.0956 LP  0  0  0  0  0  0  0  0  0  0  0  0  # atno 6064 bound_to 1878
   -6.6329   17.1046   -1.1942 LP  0  0  0  0  0  0  0  0  0  0  0  0  # atno 6067 bound_to 957 
   -7.2108   16.2290    0.0572 LP  0  0  0  0  0  0  0  0  0  0  0  0  # atno 6068 bound_to 957 

>  <STRIFE_LigEff_Score>  (120) 
2.479764285714286

$$$$
unknown|pharmsElabsTestMulti|sdf|121|dock4
     RDKit          3D

 17 17  0  0  0  0  0  0  0  0999 V2000
    5.0427    9.8033    2.7792 C   0  0  0  0  0  0  0  0  0  0  0  0
    5.7536    9.3104    4.0145 C   0  0  0  0  0  0  0  0  0  0  0  0
    5.4184   10.0547    5.3098 C   0  0  0  0  0  0  0  0  0  0  0  0
    3.8937   10.1858    5.3028 C   0  0  0  0  0  0  0  0  0  0  0  0
    3.2757    8.9563    5.1572 O   0  0  0  0  0  0  0  0  0  0  0  0
    7.1525    8.9247    3.9689 N   0  0  0  0  0  0  0  0  0  0  0  0
    8.0599    9.2800    2.9399 C   0  0  0  0  0  0  0  0  0  0  0  0
    7.6977   10.1000    2.0553 O   0  0  0  0  0  0  0  0  0  0  0  0
    9.4933    8.8088    3.0187 C   0  0  0  0  0  0  0  0  0  0  0  0
    9.8852    8.1530    1.7004 C   0  0  0  0  0  0  0  0  0  0  0  0
   11.2823    7.5630    1.7325 C   0  0  0  0  0  0  0  0  0  0  0  0
   12.3343    8.4239    2.4567 C   0  0  0  0  0  0  0  0  0  0  0  0
   13.8123    8.2688    1.9514 C   0  0  0  0  0  0  0  0  0  0  0  0
   14.8578    7.8938    3.0125 C   0  0  0  0  0  0  0  0  0  0  0  0
   13.9148    7.3640    0.8007 N   0  0  0  0  0  0  0  0  0  0  0  0
   11.9154    9.7563    3.1097 C   0  0  0  0  0  0  0  0  0  0  0  0
   10.4103    9.9980    3.3352 C   0  0  0  0  0  0  0  0  0  0  0  0
  1  2  1  0
  2  3  1  0
  3  4  1  0
  4  5  1  0
  2  6  1  0
  6  7  1  0
  7  8  2  0
  7  9  1  0
  9 10  1  0
 10 11  1  0
 11 12  1  0
 12 13  1  0
 13 14  1  0
 13 15  1  0
 12 16  1  0
 16 17  1  0
 17  9  1  0
M  CHG  1  15   1
M  END
>  <EmbedRMS>  (121) 
0.26860030186857947

>  <Gold.Version>  (121) 
2020.3.0

>  <Gold.Id.Protein>  (121) 
unknown|1q8t_protein|pdb

>  <Gold.PLP.Fitness>  (121) 
52.9049

>  <Gold.PLP.PLP>  (121) 
-40.6636

>  <Gold.PLP.part.hbond>  (121) 
-4.0000

>  <Gold.PLP.part.metal>  (121) 
0.0000

>  <Gold.PLP.part.buried>  (121) 
-4.6700

>  <Gold.PLP.part.nonpolar>  (121) 
-32.5470

>  <Gold.PLP.part.repulsive>  (121) 
0.0432

>  <Gold.PLP.ligand.clash>  (121) 
0.0000

>  <Gold.PLP.ligand.torsion>  (121) 
1.3519

>  <Gold.PLP.Chemscore.Hbond>  (121) 
4.6000

>  <Gold.PLP.Chemscore.CHOScore>  (121) 
0.0000

>  <Gold.PLP.Chemscore.Metal>  (121) 
0.0000

>  <Gold.Chemscore.Hbonds>  (121) 
donor molecule, donor type, donor heavy atom, donor atom, acceptor molecule, acceptor atom, score
      L1  H     5    26       P1  1891  0.75
      L1  H    15    38       P1  2691  1.00
      L1  H    15    39       P1  2902  2.00
      P1  H  1888  1903       L1     5  0.85

>  <Gold.PLP.Chemscore.Internal.Correction>  (121) 
1.1450

>  <Gold.PLP.Constraint>  (121) 
-0.0000

>  <Gold.Protein.RotatedTorsions>  (121) 
[  681  677  676  673 ] final  -72.16 input -179.99 | X-H torsion
[  702  698  697  694 ] final  -96.22 input  179.99 | X-H torsion
[ 2577 2569 2568 2566 ] final    6.18 input   -0.13 | X-H torsion
[ 2891 2887 2886 2883 ] final  -81.97 input  179.98 | X-H torsion
[ 3175 3171 3170 3167 ] final  141.27 input -179.99 | X-H torsion
[ 5278 5270 5269 5267 ] final    6.42 input    0.55 | X-H torsion
[  641  637  636  633 ] final   59.69 input  179.99 | X-H torsion
[ 1886 1878 1877 1875 ] final -128.20 input    1.60 | X-H torsion
[  965  957  956  954 ] final  -24.67 input    0.45 | X-H torsion

>  <Gold.Protein.ActiveResidues>  (121) 
 LYS47   THR48   LEU49   GLY50   THR51   GLY52   SER53   PHE54   GLY55   ARG56  
 VAL57   MET58   LEU59   TYR69   ALA70   MET71   LYS72   ILE73   LEU74   GLU91  
 LEU95   VAL104  LYS105  MET118  VAL119  MET120  GLU121  TYR122  VAL123  PRO124 
 GLY125  GLY126  GLU127  MET128  PHE129  TYR164  ASP166  LEU167  LYS168  PRO169 
 GLU170  ASN171  LEU172  LEU173  ILE174  GLN181  VAL182  THR183  ASP184  PHE185 
 GLY186  PHE187  GLY200  THR201  ASN326  PHE327  TYR330  ARG18   ARG19   ASN20  
 ALA21   ILE22   HIS23  

>  <Gold.Protein.RotatedAtoms>  (121) 
    9.8978   19.6864    8.6669 H   0  0  0  0  0  0  0  0  0  0  0  0  # atno 641  bound_to 637 
   15.6923   13.3183    7.2404 H   0  0  0  0  0  0  0  0  0  0  0  0  # atno 681  bound_to 677 
   20.7946   11.5912   -0.4460 H   0  0  0  0  0  0  0  0  0  0  0  0  # atno 702  bound_to 698 
   -6.5756   15.5767   -1.3127 H   0  0  0  0  0  0  0  0  0  0  0  0  # atno 965  bound_to 957 
    0.8090   10.8066   10.8568 H   0  0  0  0  0  0  0  0  0  0  0  0  # atno 1886 bound_to 1878
    9.6776    3.2275   -3.3473 H   0  0  0  0  0  0  0  0  0  0  0  0  # atno 2577 bound_to 2569
    7.3082    5.3620    1.2388 H   0  0  0  0  0  0  0  0  0  0  0  0  # atno 2891 bound_to 2887
   17.9304    1.9817   -0.3131 H   0  0  0  0  0  0  0  0  0  0  0  0  # atno 3175 bound_to 3171
   12.6439    9.9854    9.7397 H   0  0  0  0  0  0  0  0  0  0  0  0  # atno 5278 bound_to 5270
   17.1503   13.8628    6.9027 LP  0  0  0  0  0  0  0  0  0  0  0  0  # atno 5914 bound_to 677 
   16.5072   12.6168    6.0657 LP  0  0  0  0  0  0  0  0  0  0  0  0  # atno 5915 bound_to 677 
   20.5542   11.6474   -2.0196 LP  0  0  0  0  0  0  0  0  0  0  0  0  # atno 5920 bound_to 698 
   19.3144   11.8470   -0.9759 LP  0  0  0  0  0  0  0  0  0  0  0  0  # atno 5921 bound_to 698 
   11.1157    2.7316   -2.8772 LP  0  0  0  0  0  0  0  0  0  0  0  0  # atno 5950 bound_to 2569
    9.7651    1.9343   -2.4226 LP  0  0  0  0  0  0  0  0  0  0  0  0  # atno 5951 bound_to 2569
    7.6267    6.9222    1.2691 LP  0  0  0  0  0  0  0  0  0  0  0  0  # atno 5982 bound_to 2887
    8.3566    5.9396    0.1882 LP  0  0  0  0  0  0  0  0  0  0  0  0  # atno 5983 bound_to 2887
   18.9091    2.5840   -1.4153 LP  0  0  0  0  0  0  0  0  0  0  0  0  # atno 6000 bound_to 3171
   19.1090    2.9392    0.1660 LP  0  0  0  0  0  0  0  0  0  0  0  0  # atno 6001 bound_to 3171
   14.1164    9.8383   10.3286 LP  0  0  0  0  0  0  0  0  0  0  0  0  # atno 6004 bound_to 5270
   13.8769   10.2227    8.7597 LP  0  0  0  0  0  0  0  0  0  0  0  0  # atno 6005 bound_to 5270
   10.1425   18.9749    7.2638 LP  0  0  0  0  0  0  0  0  0  0  0  0  # atno 6055 bound_to 637 
   11.3978   19.3934    8.2207 LP  0  0  0  0  0  0  0  0  0  0  0  0  # atno 6056 bound_to 637 
    1.2790   12.3262   10.9277 LP  0  0  0  0  0  0  0  0  0  0  0  0  # atno 6063 bound_to 1878
    2.2547   11.1763   10.3014 LP  0  0  0  0  0  0  0  0  0  0  0  0  # atno 6064 bound_to 1878
   -6.6758   17.1513   -1.0991 LP  0  0  0  0  0  0  0  0  0  0  0  0  # atno 6067 bound_to 957 
   -7.2069   16.1154    0.0461 LP  0  0  0  0  0  0  0  0  0  0  0  0  # atno 6068 bound_to 957 

>  <STRIFE_LigEff_Score>  (121) 
3.1120529411764704

$$$$
unknown|pharmsElabsTestMulti|sdf|122|dock6
     RDKit          3D

 18 18  0  0  0  0  0  0  0  0999 V2000
    4.2962    9.5318    1.9785 C   0  0  0  0  0  0  0  0  0  0  0  0
    5.2579    8.7565    2.8786 C   0  0  0  0  0  0  0  0  0  0  0  0
    5.9379    9.6703    3.9113 C   0  0  0  0  0  0  0  0  0  0  0  0
    5.2499    9.5996    5.2919 C   0  0  0  0  0  0  0  0  0  0  0  0
    3.8950   10.3045    5.2823 C   0  0  0  0  0  0  0  0  0  0  0  0
    2.9348    9.4998    4.6531 O   0  0  0  0  0  0  0  0  0  0  0  0
    7.3652    9.3501    4.0175 N   0  0  0  0  0  0  0  0  0  0  0  0
    8.2914    9.3973    2.9215 C   0  0  0  0  0  0  0  0  0  0  0  0
    7.9151    9.7747    1.7771 O   0  0  0  0  0  0  0  0  0  0  0  0
    9.7285    9.0173    3.1501 C   0  0  0  0  0  0  0  0  0  0  0  0
   10.0383    7.6805    2.4793 C   0  0  0  0  0  0  0  0  0  0  0  0
   11.4434    7.2001    2.8128 C   0  0  0  0  0  0  0  0  0  0  0  0
   12.5583    8.2766    2.7258 C   0  0  0  0  0  0  0  0  0  0  0  0
   13.7670    8.0500    1.7962 C   0  0  0  0  0  0  0  0  0  0  0  0
   14.4485    9.2758    1.1882 C   0  0  0  0  0  0  0  0  0  0  0  0
   13.4960    7.0353    0.7687 N   0  0  0  0  0  0  0  0  0  0  0  0
   12.1252    9.7707    2.8355 C   0  0  0  0  0  0  0  0  0  0  0  0
   10.6532   10.0872    2.5797 C   0  0  0  0  0  0  0  0  0  0  0  0
  1  2  1  0
  2  3  1  0
  3  4  1  0
  4  5  1  0
  5  6  1  0
  3  7  1  0
  7  8  1  0
  8  9  2  0
  8 10  1  0
 10 11  1  0
 11 12  1  0
 12 13  1  0
 13 14  1  0
 14 15  1  0
 14 16  1  0
 13 17  1  0
 17 18  1  0
 18 10  1  0
M  CHG  1  16   1
M  END
>  <EmbedRMS>  (122) 
0.20292344882046753

>  <Gold.Version>  (122) 
2020.3.0

>  <Gold.Id.Protein>  (122) 
unknown|1q8t_protein|pdb

>  <Gold.PLP.Fitness>  (122) 
50.6994

>  <Gold.PLP.PLP>  (122) 
-42.8410

>  <Gold.PLP.part.hbond>  (122) 
-2.8014

>  <Gold.PLP.part.metal>  (122) 
0.0000

>  <Gold.PLP.part.buried>  (122) 
-5.5628

>  <Gold.PLP.part.nonpolar>  (122) 
-35.9215

>  <Gold.PLP.part.repulsive>  (122) 
0.0605

>  <Gold.PLP.ligand.clash>  (122) 
0.0000

>  <Gold.PLP.ligand.torsion>  (122) 
2.1964

>  <Gold.PLP.Chemscore.Hbond>  (122) 
3.8000

>  <Gold.PLP.Chemscore.CHOScore>  (122) 
0.0000

>  <Gold.PLP.Chemscore.Metal>  (122) 
0.0000

>  <Gold.Chemscore.Hbonds>  (122) 
donor molecule, donor type, donor heavy atom, donor atom, acceptor molecule, acceptor atom, score
      L1  H    16    41       P1  2691  0.80
      L1  H    16    42       P1  2902  2.00
      P1  H  1888  1903       L1     6  1.00

>  <Gold.PLP.Chemscore.Internal.Correction>  (122) 
0.8513

>  <Gold.PLP.Constraint>  (122) 
-0.0000

>  <Gold.Protein.RotatedTorsions>  (122) 
[  681  677  676  673 ] final -165.47 input -179.99 | X-H torsion
[  702  698  697  694 ] final -145.28 input  179.99 | X-H torsion
[ 2577 2569 2568 2566 ] final  -80.04 input   -0.13 | X-H torsion
[ 2891 2887 2886 2883 ] final  152.10 input  179.98 | X-H torsion
[ 3175 3171 3170 3167 ] final  -10.06 input -179.99 | X-H torsion
[ 5278 5270 5269 5267 ] final  145.87 input    0.55 | X-H torsion
[  641  637  636  633 ] final  106.42 input  179.99 | X-H torsion
[ 1886 1878 1877 1875 ] final -105.28 input    1.60 | X-H torsion
[  965  957  956  954 ] final  124.08 input    0.45 | X-H torsion

>  <Gold.Protein.ActiveResidues>  (122) 
 LYS47   THR48   LEU49   GLY50   THR51   GLY52   SER53   PHE54   GLY55   ARG56  
 VAL57   MET58   LEU59   TYR69   ALA70   MET71   LYS72   ILE73   LEU74   GLU91  
 LEU95   VAL104  LYS105  MET118  VAL119  MET120  GLU121  TYR122  VAL123  PRO124 
 GLY125  GLY126  GLU127  MET128  PHE129  TYR164  ASP166  LEU167  LYS168  PRO169 
 GLU170  ASN171  LEU172  LEU173  ILE174  GLN181  VAL182  THR183  ASP184  PHE185 
 GLY186  PHE187  GLY200  THR201  ASN326  PHE327  TYR330  ARG18   ARG19   ASN20  
 ALA21   ILE22   HIS23  

>  <Gold.Protein.RotatedAtoms>  (122) 
   10.5785   19.7470    8.8600 H   0  0  0  0  0  0  0  0  0  0  0  0  # atno 641  bound_to 637 
   16.8274   13.9537    7.1672 H   0  0  0  0  0  0  0  0  0  0  0  0  # atno 681  bound_to 677 
   21.1150   11.5474   -1.1164 H   0  0  0  0  0  0  0  0  0  0  0  0  # atno 702  bound_to 698 
   -7.1530   16.5658   -0.0235 H   0  0  0  0  0  0  0  0  0  0  0  0  # atno 965  bound_to 957 
    1.0666   10.6100   10.7097 H   0  0  0  0  0  0  0  0  0  0  0  0  # atno 1886 bound_to 1878
   10.8841    3.1105   -3.1776 H   0  0  0  0  0  0  0  0  0  0  0  0  # atno 2577 bound_to 2569
    7.6817    6.9124    1.1776 H   0  0  0  0  0  0  0  0  0  0  0  0  # atno 2891 bound_to 2887
   19.2173    2.8305   -1.1103 H   0  0  0  0  0  0  0  0  0  0  0  0  # atno 3175 bound_to 3171
   14.1182   10.1932    8.9592 H   0  0  0  0  0  0  0  0  0  0  0  0  # atno 5278 bound_to 5270
   16.8864   12.8291    6.0413 LP  0  0  0  0  0  0  0  0  0  0  0  0  # atno 5914 bound_to 677 
   15.5764   12.9818    7.0042 LP  0  0  0  0  0  0  0  0  0  0  0  0  # atno 5915 bound_to 677 
   19.7852   11.7826   -1.9613 LP  0  0  0  0  0  0  0  0  0  0  0  0  # atno 5920 bound_to 698 
   19.7463   11.7580   -0.3290 LP  0  0  0  0  0  0  0  0  0  0  0  0  # atno 5921 bound_to 698 
   10.3050    1.8819   -2.3466 LP  0  0  0  0  0  0  0  0  0  0  0  0  # atno 5950 bound_to 2569
    9.3055    2.9072   -3.1318 LP  0  0  0  0  0  0  0  0  0  0  0  0  # atno 5951 bound_to 2569
    8.3338    5.8448    0.1919 LP  0  0  0  0  0  0  0  0  0  0  0  0  # atno 5982 bound_to 2887
    7.2564    5.3852    1.3298 LP  0  0  0  0  0  0  0  0  0  0  0  0  # atno 5983 bound_to 2887
   18.7317    2.6903    0.3997 LP  0  0  0  0  0  0  0  0  0  0  0  0  # atno 6000 bound_to 3171
   17.9321    1.9396   -0.8101 LP  0  0  0  0  0  0  0  0  0  0  0  0  # atno 6001 bound_to 3171
   12.6050   10.0434    9.4330 LP  0  0  0  0  0  0  0  0  0  0  0  0  # atno 6004 bound_to 5270
   13.8371    9.7989   10.4765 LP  0  0  0  0  0  0  0  0  0  0  0  0  # atno 6005 bound_to 5270
    9.6024   19.2337    7.7116 LP  0  0  0  0  0  0  0  0  0  0  0  0  # atno 6055 bound_to 637 
   11.2211   19.0708    7.5696 LP  0  0  0  0  0  0  0  0  0  0  0  0  # atno 6056 bound_to 637 
    0.9606   12.1639   11.0404 LP  0  0  0  0  0  0  0  0  0  0  0  0  # atno 6063 bound_to 1878
    2.3019   11.5456   10.3436 LP  0  0  0  0  0  0  0  0  0  0  0  0  # atno 6064 bound_to 1878
   -6.7556   15.3423   -0.9616 LP  0  0  0  0  0  0  0  0  0  0  0  0  # atno 6067 bound_to 957 
   -6.5190   16.8827   -1.4492 LP  0  0  0  0  0  0  0  0  0  0  0  0  # atno 6068 bound_to 957 

>  <STRIFE_LigEff_Score>  (122) 
2.8166333333333333

$$$$
unknown|pharmsElabsTestMulti|sdf|123|dock9
     RDKit          3D

 17 18  0  0  0  0  0  0  0  0999 V2000
   14.4885    7.3136    3.6162 C   0  0  0  0  0  0  0  0  0  0  0  0
   13.6000    7.8903    2.5036 C   0  0  0  0  0  0  0  0  0  0  0  0
   13.7142    7.0705    1.2917 N   0  0  0  0  0  0  0  0  0  0  0  0
   12.1053    8.1812    2.8877 C   0  0  0  0  0  0  0  0  0  0  0  0
   11.0463    7.3300    2.1624 C   0  0  0  0  0  0  0  0  0  0  0  0
    9.6926    7.9966    1.9919 C   0  0  0  0  0  0  0  0  0  0  0  0
    9.2619    8.7864    3.2231 C   0  0  0  0  0  0  0  0  0  0  0  0
    7.8635    9.3322    3.0167 C   0  0  0  0  0  0  0  0  0  0  0  0
    7.6086   10.0965    2.0481 O   0  0  0  0  0  0  0  0  0  0  0  0
    6.8863    9.1539    4.0333 N   0  0  0  0  0  0  0  0  0  0  0  0
    5.5136    9.6139    3.9877 C   0  0  0  0  0  0  0  0  0  0  0  0
    4.7331    9.1312    2.8104 C   0  0  0  0  0  0  0  0  0  0  0  0
    3.2997    9.4706    3.2007 C   0  0  0  0  0  0  0  0  0  0  0  0
    3.2759    9.8404    4.6280 N   0  0  0  0  0  0  0  0  0  0  0  0
    4.5978    9.5018    5.1684 C   0  0  0  0  0  0  0  0  0  0  0  0
   10.2377    9.9411    3.4961 C   0  0  0  0  0  0  0  0  0  0  0  0
   11.7357    9.5876    3.3998 C   0  0  0  0  0  0  0  0  0  0  0  0
  1  2  1  0
  2  3  1  0
  2  4  1  0
  4  5  1  0
  5  6  1  0
  6  7  1  0
  7  8  1  0
  8  9  2  0
  8 10  1  0
 10 11  1  0
 11 12  1  0
 12 13  1  0
 13 14  1  0
 14 15  1  0
  7 16  1  0
 16 17  1  0
 17  4  1  0
 15 11  1  0
M  CHG  1   3   1
M  END
>  <EmbedRMS>  (123) 
0.2595569453876857

>  <Gold.Version>  (123) 
2020.3.0

>  <Gold.Id.Protein>  (123) 
unknown|1q8t_protein|pdb

>  <Gold.PLP.Fitness>  (123) 
50.4147

>  <Gold.PLP.PLP>  (123) 
-41.6194

>  <Gold.PLP.part.hbond>  (123) 
-3.0000

>  <Gold.PLP.part.metal>  (123) 
0.0000

>  <Gold.PLP.part.buried>  (123) 
-5.2409

>  <Gold.PLP.part.nonpolar>  (123) 
-33.5808

>  <Gold.PLP.part.repulsive>  (123) 
0.0489

>  <Gold.PLP.ligand.clash>  (123) 
0.0000

>  <Gold.PLP.ligand.torsion>  (123) 
1.3583

>  <Gold.PLP.Chemscore.Hbond>  (123) 
3.6000

>  <Gold.PLP.Chemscore.CHOScore>  (123) 
0.0000

>  <Gold.PLP.Chemscore.Metal>  (123) 
0.0000

>  <Gold.Chemscore.Hbonds>  (123) 
donor molecule, donor type, donor heavy atom, donor atom, acceptor molecule, acceptor atom, score
      L1  H     3    22       P1  2902  2.00
      L1  H     3    23       P1  2691  1.00
      P1  H  1888  1903       L1    14  0.60

>  <Gold.PLP.Chemscore.Internal.Correction>  (123) 
0.7120

>  <Gold.PLP.Constraint>  (123) 
-0.0000

>  <Gold.Protein.RotatedTorsions>  (123) 
[  681  677  676  673 ] final -126.35 input -179.99 | X-H torsion
[  702  698  697  694 ] final   21.57 input  179.99 | X-H torsion
[ 2577 2569 2568 2566 ] final  109.50 input   -0.13 | X-H torsion
[ 2891 2887 2886 2883 ] final  -36.72 input  179.98 | X-H torsion
[ 3175 3171 3170 3167 ] final  -71.74 input -179.99 | X-H torsion
[ 5278 5270 5269 5267 ] final -145.69 input    0.55 | X-H torsion
[  641  637  636  633 ] final   10.33 input  179.99 | X-H torsion
[ 1886 1878 1877 1875 ] final -130.65 input    1.60 | X-H torsion
[  965  957  956  954 ] final  169.27 input    0.45 | X-H torsion

>  <Gold.Protein.ActiveResidues>  (123) 
 LYS47   THR48   LEU49   GLY50   THR51   GLY52   SER53   PHE54   GLY55   ARG56  
 VAL57   MET58   LEU59   TYR69   ALA70   MET71   LYS72   ILE73   LEU74   GLU91  
 LEU95   VAL104  LYS105  MET118  VAL119  MET120  GLU121  TYR122  VAL123  PRO124 
 GLY125  GLY126  GLU127  MET128  PHE129  TYR164  ASP166  LEU167  LYS168  PRO169 
 GLU170  ASN171  LEU172  LEU173  ILE174  GLN181  VAL182  THR183  ASP184  PHE185 
 GLY186  PHE187  GLY200  THR201  ASN326  PHE327  TYR330  ARG18   ARG19   ASN20  
 ALA21   ILE22   HIS23  

>  <Gold.Protein.RotatedAtoms>  (123) 
    9.5747   19.3942    8.0593 H   0  0  0  0  0  0  0  0  0  0  0  0  # atno 641  bound_to 637 
   16.2854   13.8542    7.4043 H   0  0  0  0  0  0  0  0  0  0  0  0  # atno 681  bound_to 677 
   19.3688   11.8537   -0.9493 H   0  0  0  0  0  0  0  0  0  0  0  0  # atno 702  bound_to 698 
   -6.9584   17.0773   -0.4403 H   0  0  0  0  0  0  0  0  0  0  0  0  # atno 965  bound_to 957 
    0.7867   10.8341   10.8713 H   0  0  0  0  0  0  0  0  0  0  0  0  # atno 1886 bound_to 1878
    9.5725    2.0734   -2.5536 H   0  0  0  0  0  0  0  0  0  0  0  0  # atno 2577 bound_to 2569
    7.7228    5.1869    0.7166 H   0  0  0  0  0  0  0  0  0  0  0  0  # atno 2891 bound_to 2887
   19.3020    3.0106   -0.2138 H   0  0  0  0  0  0  0  0  0  0  0  0  # atno 3175 bound_to 3171
   14.3750    9.9624    9.9059 H   0  0  0  0  0  0  0  0  0  0  0  0  # atno 5278 bound_to 5270
   17.2519   13.2896    6.2714 LP  0  0  0  0  0  0  0  0  0  0  0  0  # atno 5914 bound_to 677 
   15.7814   12.6261    6.5246 LP  0  0  0  0  0  0  0  0  0  0  0  0  # atno 5915 bound_to 677 
   20.8482   11.5647   -0.4344 LP  0  0  0  0  0  0  0  0  0  0  0  0  # atno 5920 bound_to 698 
   20.5203   11.6536   -2.0316 LP  0  0  0  0  0  0  0  0  0  0  0  0  # atno 5921 bound_to 698 
    9.8961    3.3743   -3.4128 LP  0  0  0  0  0  0  0  0  0  0  0  0  # atno 5950 bound_to 2569
   11.0953    2.5069   -2.7227 LP  0  0  0  0  0  0  0  0  0  0  0  0  # atno 5951 bound_to 2569
    7.2319    6.4144    1.6047 LP  0  0  0  0  0  0  0  0  0  0  0  0  # atno 5982 bound_to 2887
    8.3151    6.6315    0.4021 LP  0  0  0  0  0  0  0  0  0  0  0  0  # atno 5983 bound_to 2887
   18.0168    2.1199    0.0869 LP  0  0  0  0  0  0  0  0  0  0  0  0  # atno 6000 bound_to 3171
   18.5578    2.3205   -1.4408 LP  0  0  0  0  0  0  0  0  0  0  0  0  # atno 6001 bound_to 3171
   13.3578   10.2296    8.7099 LP  0  0  0  0  0  0  0  0  0  0  0  0  # atno 6004 bound_to 5270
   12.8140    9.8555   10.2035 LP  0  0  0  0  0  0  0  0  0  0  0  0  # atno 6005 bound_to 5270
   10.9267   18.9673    7.3348 LP  0  0  0  0  0  0  0  0  0  0  0  0  # atno 6055 bound_to 637 
   10.9541   19.7087    8.7896 LP  0  0  0  0  0  0  0  0  0  0  0  0  # atno 6056 bound_to 637 
    1.3155   12.3354   10.9132 LP  0  0  0  0  0  0  0  0  0  0  0  0  # atno 6063 bound_to 1878
    2.2417   11.1381   10.3006 LP  0  0  0  0  0  0  0  0  0  0  0  0  # atno 6064 bound_to 1878
   -7.0480   15.4924   -0.3161 LP  0  0  0  0  0  0  0  0  0  0  0  0  # atno 6067 bound_to 957 
   -6.4316   16.1938   -1.6557 LP  0  0  0  0  0  0  0  0  0  0  0  0  # atno 6068 bound_to 957 

>  <STRIFE_LigEff_Score>  (123) 
2.9655705882352943

$$$$
unknown|pharmsElabsTestMulti|sdf|124|dock6
     RDKit          3D

 20 21  0  0  0  0  0  0  0  0999 V2000
    2.5315    8.1133    1.4443 C   0  0  0  0  0  0  0  0  0  0  0  0
    3.5715    8.7994    2.2754 C   0  0  0  0  0  0  0  0  0  0  0  0
    4.2550    9.9155    1.7710 C   0  0  0  0  0  0  0  0  0  0  0  0
    5.2376   10.5442    2.5396 C   0  0  0  0  0  0  0  0  0  0  0  0
    5.5497   10.0612    3.8194 C   0  0  0  0  0  0  0  0  0  0  0  0
    6.6159   10.7320    4.6350 C   0  0  0  0  0  0  0  0  0  0  0  0
    7.8473    9.9523    4.5844 N   0  0  0  0  0  0  0  0  0  0  0  0
    8.4272    9.5114    3.3522 C   0  0  0  0  0  0  0  0  0  0  0  0
    7.8636    9.7805    2.2529 O   0  0  0  0  0  0  0  0  0  0  0  0
    9.7244    8.7410    3.3699 C   0  0  0  0  0  0  0  0  0  0  0  0
   10.0988    8.3472    1.9454 C   0  0  0  0  0  0  0  0  0  0  0  0
   11.3347    7.4681    1.8887 C   0  0  0  0  0  0  0  0  0  0  0  0
   12.4548    7.8558    2.8724 C   0  0  0  0  0  0  0  0  0  0  0  0
   13.9124    7.4724    2.4338 C   0  0  0  0  0  0  0  0  0  0  0  0
   14.7101    6.6004    3.4152 C   0  0  0  0  0  0  0  0  0  0  0  0
   13.9533    6.8850    1.0897 N   0  0  0  0  0  0  0  0  0  0  0  0
   12.2610    9.0571    3.8215 C   0  0  0  0  0  0  0  0  0  0  0  0
   10.8282    9.5944    4.0052 C   0  0  0  0  0  0  0  0  0  0  0  0
    4.8850    8.9284    4.3119 C   0  0  0  0  0  0  0  0  0  0  0  0
    3.9040    8.2991    3.5425 C   0  0  0  0  0  0  0  0  0  0  0  0
  1  2  1  0
  2  3  2  0
  3  4  1  0
  4  5  2  0
  5  6  1  0
  6  7  1  0
  7  8  1  0
  8  9  2  0
  8 10  1  0
 10 11  1  0
 11 12  1  0
 12 13  1  0
 13 14  1  0
 14 15  1  0
 14 16  1  0
 13 17  1  0
 17 18  1  0
  5 19  1  0
 19 20  2  0
 20  2  1  0
 18 10  1  0
M  CHG  1  16   1
M  END
>  <EmbedRMS>  (124) 
0.1554419486542057

>  <Gold.Version>  (124) 
2020.3.0

>  <Gold.Id.Protein>  (124) 
unknown|1q8t_protein|pdb

>  <Gold.PLP.Fitness>  (124) 
45.6961

>  <Gold.PLP.PLP>  (124) 
-38.7634

>  <Gold.PLP.part.hbond>  (124) 
-2.0000

>  <Gold.PLP.part.metal>  (124) 
0.0000

>  <Gold.PLP.part.buried>  (124) 
-3.8562

>  <Gold.PLP.part.nonpolar>  (124) 
-32.8236

>  <Gold.PLP.part.repulsive>  (124) 
0.0785

>  <Gold.PLP.ligand.clash>  (124) 
0.0065

>  <Gold.PLP.ligand.torsion>  (124) 
1.3325

>  <Gold.PLP.Chemscore.Hbond>  (124) 
3.0000

>  <Gold.PLP.Chemscore.CHOScore>  (124) 
0.0000

>  <Gold.PLP.Chemscore.Metal>  (124) 
0.0000

>  <Gold.Chemscore.Hbonds>  (124) 
donor molecule, donor type, donor heavy atom, donor atom, acceptor molecule, acceptor atom, score
      L1  H    16    39       P1  2902  2.00
      L1  H    16    40       P1  2691  1.00

>  <Gold.PLP.Chemscore.Internal.Correction>  (124) 
0.6041

>  <Gold.PLP.Constraint>  (124) 
-0.0000

>  <Gold.Protein.RotatedTorsions>  (124) 
[  681  677  676  673 ] final  -34.63 input -179.99 | X-H torsion
[  702  698  697  694 ] final  -66.89 input  179.99 | X-H torsion
[ 2577 2569 2568 2566 ] final  112.97 input   -0.13 | X-H torsion
[ 2891 2887 2886 2883 ] final -178.48 input  179.98 | X-H torsion
[ 3175 3171 3170 3167 ] final -113.74 input -179.99 | X-H torsion
[ 5278 5270 5269 5267 ] final -112.24 input    0.55 | X-H torsion
[  641  637  636  633 ] final  -51.70 input  179.99 | X-H torsion
[ 1886 1878 1877 1875 ] final  -68.03 input    1.60 | X-H torsion
[  965  957  956  954 ] final -107.10 input    0.45 | X-H torsion

>  <Gold.Protein.ActiveResidues>  (124) 
 LYS47   THR48   LEU49   GLY50   THR51   GLY52   SER53   PHE54   GLY55   ARG56  
 VAL57   MET58   LEU59   TYR69   ALA70   MET71   LYS72   ILE73   LEU74   GLU91  
 LEU95   VAL104  LYS105  MET118  VAL119  MET120  GLU121  TYR122  VAL123  PRO124 
 GLY125  GLY126  GLU127  MET128  PHE129  TYR164  ASP166  LEU167  LYS168  PRO169 
 GLU170  ASN171  LEU172  LEU173  ILE174  GLN181  VAL182  THR183  ASP184  PHE185 
 GLY186  PHE187  GLY200  THR201  ASN326  PHE327  TYR330  ARG18   ARG19   ASN20  
 ALA21   ILE22   HIS23  

>  <Gold.Protein.RotatedAtoms>  (124) 
   10.0361   19.0106    7.3585 H   0  0  0  0  0  0  0  0  0  0  0  0  # atno 641  bound_to 637 
   15.6306   12.8927    6.8567 H   0  0  0  0  0  0  0  0  0  0  0  0  # atno 681  bound_to 677 
   20.3893   11.6594   -0.2537 H   0  0  0  0  0  0  0  0  0  0  0  0  # atno 702  bound_to 698 
   -6.4865   16.7406   -1.4841 H   0  0  0  0  0  0  0  0  0  0  0  0  # atno 965  bound_to 957 
    1.5863   10.5714   10.4740 H   0  0  0  0  0  0  0  0  0  0  0  0  # atno 1886 bound_to 1878
    9.6135    2.0456   -2.5313 H   0  0  0  0  0  0  0  0  0  0  0  0  # atno 2577 bound_to 2569
    7.3999    6.6792    1.4481 H   0  0  0  0  0  0  0  0  0  0  0  0  # atno 2891 bound_to 2887
   18.9345    2.8016    0.2692 H   0  0  0  0  0  0  0  0  0  0  0  0  # atno 3175 bound_to 3171
   14.0706    9.8597   10.3094 H   0  0  0  0  0  0  0  0  0  0  0  0  # atno 5278 bound_to 5270
   16.7052   13.9825    7.2971 LP  0  0  0  0  0  0  0  0  0  0  0  0  # atno 5914 bound_to 677 
   17.0173   12.9451    6.0752 LP  0  0  0  0  0  0  0  0  0  0  0  0  # atno 5915 bound_to 677 
   20.9387   11.5740   -1.7465 LP  0  0  0  0  0  0  0  0  0  0  0  0  # atno 5920 bound_to 698 
   19.3563   11.8488   -1.4513 LP  0  0  0  0  0  0  0  0  0  0  0  0  # atno 5921 bound_to 698 
    9.8422    3.3571   -3.4048 LP  0  0  0  0  0  0  0  0  0  0  0  0  # atno 5950 bound_to 2569
   11.1061    2.5533   -2.7541 LP  0  0  0  0  0  0  0  0  0  0  0  0  # atno 5951 bound_to 2569
    8.3830    6.3177    0.2483 LP  0  0  0  0  0  0  0  0  0  0  0  0  # atno 5982 bound_to 2887
    7.5038    5.1578    0.9887 LP  0  0  0  0  0  0  0  0  0  0  0  0  # atno 5983 bound_to 2887
   17.8783    1.9341   -0.5479 LP  0  0  0  0  0  0  0  0  0  0  0  0  # atno 6000 bound_to 3171
   19.0832    2.7262   -1.3144 LP  0  0  0  0  0  0  0  0  0  0  0  0  # atno 6001 bound_to 3171
   13.8973   10.2209    8.7679 LP  0  0  0  0  0  0  0  0  0  0  0  0  # atno 6004 bound_to 5270
   12.5949    9.9723    9.7210 LP  0  0  0  0  0  0  0  0  0  0  0  0  # atno 6005 bound_to 5270
   11.4111   19.3287    8.0955 LP  0  0  0  0  0  0  0  0  0  0  0  0  # atno 6055 bound_to 637 
    9.9837   19.7513    8.7669 LP  0  0  0  0  0  0  0  0  0  0  0  0  # atno 6056 bound_to 637 
    0.6222   11.6701   11.1054 LP  0  0  0  0  0  0  0  0  0  0  0  0  # atno 6063 bound_to 1878
    2.0932   12.0800   10.5267 LP  0  0  0  0  0  0  0  0  0  0  0  0  # atno 6064 bound_to 1878
   -7.1610   16.7143   -0.0421 LP  0  0  0  0  0  0  0  0  0  0  0  0  # atno 6067 bound_to 957 
   -6.8155   15.3266   -0.8304 LP  0  0  0  0  0  0  0  0  0  0  0  0  # atno 6068 bound_to 957 

>  <STRIFE_LigEff_Score>  (124) 
2.284805

$$$$
unknown|pharmsElabsTestMulti|sdf|125|dock8
     RDKit          3D

 18 19  0  0  0  0  0  0  0  0999 V2000
   13.8831    8.0239    3.7147 C   0  0  0  0  0  0  0  0  0  0  0  0
   13.0730    8.2671    2.4300 C   0  0  0  0  0  0  0  0  0  0  0  0
   13.5600    7.3972    1.3551 N   0  0  0  0  0  0  0  0  0  0  0  0
   11.5091    8.2286    2.5742 C   0  0  0  0  0  0  0  0  0  0  0  0
   10.7720    7.9060    1.2754 C   0  0  0  0  0  0  0  0  0  0  0  0
    9.2584    7.8149    1.3962 C   0  0  0  0  0  0  0  0  0  0  0  0
    8.6685    8.8870    2.2809 C   0  0  0  0  0  0  0  0  0  0  0  0
    7.1736    8.9987    2.1878 C   0  0  0  0  0  0  0  0  0  0  0  0
    6.5428    8.0924    2.7853 O   0  0  0  0  0  0  0  0  0  0  0  0
    6.4316   10.0183    1.4946 N   0  0  0  0  0  0  0  0  0  0  0  0
    4.9662    9.8911    1.4346 C   0  0  0  0  0  0  0  0  0  0  0  0
    4.3562    9.7799    2.7906 C   0  0  0  0  0  0  0  0  0  0  0  0
    5.0679    9.7568    3.9339 N   0  0  0  0  0  0  0  0  0  0  0  0
    4.0988    9.6184    4.8638 C   0  0  0  0  0  0  0  0  0  0  0  0
    2.8672    9.5589    4.3197 N   0  0  0  0  0  0  0  0  0  0  0  0
    3.0393    9.6620    3.0158 N   0  0  0  0  0  0  0  0  0  0  0  0
    9.3155    9.1091    3.6295 C   0  0  0  0  0  0  0  0  0  0  0  0
   10.8413    9.2536    3.5119 C   0  0  0  0  0  0  0  0  0  0  0  0
  1  2  1  0
  2  3  1  0
  2  4  1  0
  4  5  1  0
  5  6  1  0
  6  7  1  0
  7  8  1  0
  8  9  2  0
  8 10  1  0
 10 11  1  0
 11 12  1  0
 12 13  2  0
 13 14  1  0
 14 15  2  0
 15 16  1  0
  7 17  1  0
 17 18  1  0
 18  4  1  0
 16 12  1  0
M  CHG  1   3   1
M  END
>  <EmbedRMS>  (125) 
0.26092352120004825

>  <Gold.Version>  (125) 
2020.3.0

>  <Gold.Id.Protein>  (125) 
unknown|1q8t_protein|pdb

>  <Gold.PLP.Fitness>  (125) 
47.8706

>  <Gold.PLP.PLP>  (125) 
-31.4764

>  <Gold.PLP.part.hbond>  (125) 
-5.0000

>  <Gold.PLP.part.metal>  (125) 
0.0000

>  <Gold.PLP.part.buried>  (125) 
1.5182

>  <Gold.PLP.part.nonpolar>  (125) 
-28.4230

>  <Gold.PLP.part.repulsive>  (125) 
0.2914

>  <Gold.PLP.ligand.clash>  (125) 
0.0000

>  <Gold.PLP.ligand.torsion>  (125) 
0.6304

>  <Gold.PLP.Chemscore.Hbond>  (125) 
5.6125

>  <Gold.PLP.Chemscore.CHOScore>  (125) 
0.0000

>  <Gold.PLP.Chemscore.Metal>  (125) 
0.0000

>  <Gold.Chemscore.Hbonds>  (125) 
donor molecule, donor type, donor heavy atom, donor atom, acceptor molecule, acceptor atom, score
      L1  H     3    23       P1  2902  2.00
      L1  H     3    24       P1  2691  1.00
      L1  H    16    36       P1  1855  0.98
      P1  H  2887  2891       L1     9  0.64
      P1  H  1888  1903       L1    15  1.00

>  <Gold.PLP.Chemscore.Internal.Correction>  (125) 
0.8175

>  <Gold.PLP.Constraint>  (125) 
-0.0000

>  <Gold.Protein.RotatedTorsions>  (125) 
[  681  677  676  673 ] final   94.12 input -179.99 | X-H torsion
[  702  698  697  694 ] final  -25.13 input  179.99 | X-H torsion
[ 2577 2569 2568 2566 ] final  -94.20 input   -0.13 | X-H torsion
[ 2891 2887 2886 2883 ] final -158.77 input  179.98 | X-H torsion
[ 3175 3171 3170 3167 ] final -110.03 input -179.99 | X-H torsion
[ 5278 5270 5269 5267 ] final  -62.32 input    0.55 | X-H torsion
[  641  637  636  633 ] final -165.58 input  179.99 | X-H torsion
[ 1886 1878 1877 1875 ] final   11.38 input    1.60 | X-H torsion
[  965  957  956  954 ] final  -95.08 input    0.45 | X-H torsion

>  <Gold.Protein.ActiveResidues>  (125) 
 LYS47   THR48   LEU49   GLY50   THR51   GLY52   SER53   PHE54   GLY55   ARG56  
 VAL57   MET58   LEU59   TYR69   ALA70   MET71   LYS72   ILE73   LEU74   GLU91  
 LEU95   VAL104  LYS105  MET118  VAL119  MET120  GLU121  TYR122  VAL123  PRO124 
 GLY125  GLY126  GLU127  MET128  PHE129  TYR164  ASP166  LEU167  LYS168  PRO169 
 GLU170  ASN171  LEU172  LEU173  ILE174  GLN181  VAL182  THR183  ASP184  PHE185 
 GLY186  PHE187  GLY200  THR201  ASN326  PHE327  TYR330  ARG18   ARG19   ASN20  
 ALA21   ILE22   HIS23  

>  <Gold.Protein.RotatedAtoms>  (125) 
   11.3595   19.2724    8.0161 H   0  0  0  0  0  0  0  0  0  0  0  0  # atno 641  bound_to 637 
   17.0679   13.0687    6.1407 H   0  0  0  0  0  0  0  0  0  0  0  0  # atno 681  bound_to 677 
   19.7711   11.7712   -0.3697 H   0  0  0  0  0  0  0  0  0  0  0  0  # atno 702  bound_to 698 
   -6.4541   16.5719   -1.5590 H   0  0  0  0  0  0  0  0  0  0  0  0  # atno 965  bound_to 957 
    2.2534   11.4908   10.3367 H   0  0  0  0  0  0  0  0  0  0  0  0  # atno 1886 bound_to 1878
   10.9967    2.9585   -3.0639 H   0  0  0  0  0  0  0  0  0  0  0  0  # atno 2577 bound_to 2569
    7.2576    6.4284    1.5529 H   0  0  0  0  0  0  0  0  0  0  0  0  # atno 2891 bound_to 2887
   18.9765    2.8290    0.2404 H   0  0  0  0  0  0  0  0  0  0  0  0  # atno 3175 bound_to 3171
   13.3313    9.8144   10.4619 H   0  0  0  0  0  0  0  0  0  0  0  0  # atno 5278 bound_to 5270
   15.6325   12.7756    6.7650 LP  0  0  0  0  0  0  0  0  0  0  0  0  # atno 5914 bound_to 677 
   16.5772   13.9668    7.3608 LP  0  0  0  0  0  0  0  0  0  0  0  0  # atno 5915 bound_to 677 
   21.1578   11.5229   -1.1132 LP  0  0  0  0  0  0  0  0  0  0  0  0  # atno 5920 bound_to 698 
   19.7874   11.7822   -1.9625 LP  0  0  0  0  0  0  0  0  0  0  0  0  # atno 5921 bound_to 698 
   10.0730    1.8715   -2.3564 LP  0  0  0  0  0  0  0  0  0  0  0  0  # atno 5950 bound_to 2569
    9.4189    3.0777   -3.2418 LP  0  0  0  0  0  0  0  0  0  0  0  0  # atno 5951 bound_to 2569
    8.3251    6.6048    0.3841 LP  0  0  0  0  0  0  0  0  0  0  0  0  # atno 5982 bound_to 2887
    7.7115    5.1346    0.7426 LP  0  0  0  0  0  0  0  0  0  0  0  0  # atno 5983 bound_to 2887
   17.8745    1.9393   -0.4873 LP  0  0  0  0  0  0  0  0  0  0  0  0  # atno 6000 bound_to 3171
   19.0427    2.6922   -1.3447 LP  0  0  0  0  0  0  0  0  0  0  0  0  # atno 6001 bound_to 3171
   14.4311   10.0849    9.3421 LP  0  0  0  0  0  0  0  0  0  0  0  0  # atno 6004 bound_to 5270
   12.8390   10.1560    8.9862 LP  0  0  0  0  0  0  0  0  0  0  0  0  # atno 6005 bound_to 5270
   10.0723   19.7688    8.8110 LP  0  0  0  0  0  0  0  0  0  0  0  0  # atno 6055 bound_to 637 
    9.9287   19.0354    7.3590 LP  0  0  0  0  0  0  0  0  0  0  0  0  # atno 6056 bound_to 637 
    1.0096   10.5865   10.7497 LP  0  0  0  0  0  0  0  0  0  0  0  0  # atno 6063 bound_to 1878
    1.0036   12.1958   11.0269 LP  0  0  0  0  0  0  0  0  0  0  0  0  # atno 6064 bound_to 1878
   -7.1138   16.8775   -0.1425 LP  0  0  0  0  0  0  0  0  0  0  0  0  # atno 6067 bound_to 957 
   -6.8969   15.3410   -0.6512 LP  0  0  0  0  0  0  0  0  0  0  0  0  # atno 6068 bound_to 957 

>  <STRIFE_LigEff_Score>  (125) 
2.659477777777778

$$$$
unknown|pharmsElabsTestMulti|sdf|126|dock5
     RDKit          3D

 17 17  0  0  0  0  0  0  0  0999 V2000
    3.9096    9.1980    4.9954 C   0  0  0  0  0  0  0  0  0  0  0  0
    3.3034   10.0065    3.8601 C   0  0  0  0  0  0  0  0  0  0  0  0
    3.3526    9.2432    2.6081 N   0  0  0  0  0  0  0  0  0  0  0  0
    4.7543    9.0037    2.2534 C   0  0  0  0  0  0  0  0  0  0  0  0
    5.4921   10.3253    2.0147 C   0  0  0  0  0  0  0  0  0  0  0  0
    6.9169   10.0748    1.7529 N   0  0  0  0  0  0  0  0  0  0  0  0
    7.7712    9.5879    2.8020 C   0  0  0  0  0  0  0  0  0  0  0  0
    7.2962    9.4294    3.9539 O   0  0  0  0  0  0  0  0  0  0  0  0
    9.2142    9.2114    2.6500 C   0  0  0  0  0  0  0  0  0  0  0  0
    9.4806    7.7083    2.5382 C   0  0  0  0  0  0  0  0  0  0  0  0
   10.9746    7.3239    2.5643 C   0  0  0  0  0  0  0  0  0  0  0  0
   11.8561    8.4876    2.0830 C   0  0  0  0  0  0  0  0  0  0  0  0
   13.3335    8.1706    1.6961 C   0  0  0  0  0  0  0  0  0  0  0  0
   14.2406    9.3559    1.4130 C   0  0  0  0  0  0  0  0  0  0  0  0
   13.5704    7.0034    0.8532 N   0  0  0  0  0  0  0  0  0  0  0  0
   11.7099    9.6817    3.0482 C   0  0  0  0  0  0  0  0  0  0  0  0
   10.2511   10.1342    3.2690 C   0  0  0  0  0  0  0  0  0  0  0  0
  1  2  1  0
  2  3  1  0
  3  4  1  0
  4  5  1  0
  5  6  1  0
  6  7  1  0
  7  8  2  0
  7  9  1  0
  9 10  1  0
 10 11  1  0
 11 12  1  0
 12 13  1  0
 13 14  1  0
 13 15  1  0
 12 16  1  0
 16 17  1  0
 17  9  1  0
M  CHG  1  15   1
M  END
>  <EmbedRMS>  (126) 
0.25842907567579826

>  <Gold.Version>  (126) 
2020.3.0

>  <Gold.Id.Protein>  (126) 
unknown|1q8t_protein|pdb

>  <Gold.PLP.Fitness>  (126) 
47.8913

>  <Gold.PLP.PLP>  (126) 
-39.1254

>  <Gold.PLP.part.hbond>  (126) 
-2.2428

>  <Gold.PLP.part.metal>  (126) 
0.0000

>  <Gold.PLP.part.buried>  (126) 
-3.9171

>  <Gold.PLP.part.nonpolar>  (126) 
-33.4536

>  <Gold.PLP.part.repulsive>  (126) 
0.0638

>  <Gold.PLP.ligand.clash>  (126) 
0.0000

>  <Gold.PLP.ligand.torsion>  (126) 
0.5880

>  <Gold.PLP.Chemscore.Hbond>  (126) 
2.9440

>  <Gold.PLP.Chemscore.CHOScore>  (126) 
0.0000

>  <Gold.PLP.Chemscore.Metal>  (126) 
0.0000

>  <Gold.Chemscore.Hbonds>  (126) 
donor molecule, donor type, donor heavy atom, donor atom, acceptor molecule, acceptor atom, score
      L1  H    15    40       P1  2691  0.94
      L1  H    15    41       P1  2902  2.00

>  <Gold.PLP.Chemscore.Internal.Correction>  (126) 
1.1099

>  <Gold.PLP.Constraint>  (126) 
-0.0000

>  <Gold.Protein.RotatedTorsions>  (126) 
[  681  677  676  673 ] final   17.65 input -179.99 | X-H torsion
[  702  698  697  694 ] final  -88.12 input  179.99 | X-H torsion
[ 2577 2569 2568 2566 ] final  -33.48 input   -0.13 | X-H torsion
[ 2891 2887 2886 2883 ] final  -48.01 input  179.98 | X-H torsion
[ 3175 3171 3170 3167 ] final -107.30 input -179.99 | X-H torsion
[ 5278 5270 5269 5267 ] final -124.06 input    0.55 | X-H torsion
[  641  637  636  633 ] final   93.08 input  179.99 | X-H torsion
[ 1886 1878 1877 1875 ] final    8.86 input    1.60 | X-H torsion
[  965  957  956  954 ] final -152.39 input    0.45 | X-H torsion

>  <Gold.Protein.ActiveResidues>  (126) 
 LYS47   THR48   LEU49   GLY50   THR51   GLY52   SER53   PHE54   GLY55   ARG56  
 VAL57   MET58   LEU59   TYR69   ALA70   MET71   LYS72   ILE73   LEU74   GLU91  
 LEU95   VAL104  LYS105  MET118  VAL119  MET120  GLU121  TYR122  VAL123  PRO124 
 GLY125  GLY126  GLU127  MET128  PHE129  TYR164  ASP166  LEU167  LYS168  PRO169 
 GLU170  ASN171  LEU172  LEU173  ILE174  GLN181  VAL182  THR183  ASP184  PHE185 
 GLY186  PHE187  GLY200  THR201  ASN326  PHE327  TYR330  ARG18   ARG19   ASN20  
 ALA21   ILE22   HIS23  

>  <Gold.Protein.RotatedAtoms>  (126) 
   10.3709   19.7568    8.8565 H   0  0  0  0  0  0  0  0  0  0  0  0  # atno 641  bound_to 637 
   16.0773   12.5906    6.2804 H   0  0  0  0  0  0  0  0  0  0  0  0  # atno 681  bound_to 677 
   20.6931   11.6078   -0.3721 H   0  0  0  0  0  0  0  0  0  0  0  0  # atno 702  bound_to 698 
   -6.7157   17.1414   -0.9722 H   0  0  0  0  0  0  0  0  0  0  0  0  # atno 965  bound_to 957 
    2.2527   11.4521   10.3304 H   0  0  0  0  0  0  0  0  0  0  0  0  # atno 1886 bound_to 1878
   10.2655    3.3703   -3.4033 H   0  0  0  0  0  0  0  0  0  0  0  0  # atno 2577 bound_to 2569
    7.6070    5.1806    0.8493 H   0  0  0  0  0  0  0  0  0  0  0  0  # atno 2891 bound_to 2887
   19.0067    2.8483    0.2171 H   0  0  0  0  0  0  0  0  0  0  0  0  # atno 3175 bound_to 3171
   14.2055    9.8912   10.1876 H   0  0  0  0  0  0  0  0  0  0  0  0  # atno 5278 bound_to 5270
   15.9525   13.6653    7.4489 LP  0  0  0  0  0  0  0  0  0  0  0  0  # atno 5914 bound_to 677 
   17.2998   13.5803    6.5300 LP  0  0  0  0  0  0  0  0  0  0  0  0  # atno 5915 bound_to 677 
   20.6735   11.6252   -1.9648 LP  0  0  0  0  0  0  0  0  0  0  0  0  # atno 5920 bound_to 698 
   19.3018   11.8518   -1.1083 LP  0  0  0  0  0  0  0  0  0  0  0  0  # atno 5921 bound_to 698 
   10.9420    2.2200   -2.5347 LP  0  0  0  0  0  0  0  0  0  0  0  0  # atno 5950 bound_to 2569
    9.3198    2.2957   -2.7061 LP  0  0  0  0  0  0  0  0  0  0  0  0  # atno 5951 bound_to 2569
    7.3078    6.5764    1.5556 LP  0  0  0  0  0  0  0  0  0  0  0  0  # atno 5982 bound_to 2887
    8.3611    6.4763    0.3117 LP  0  0  0  0  0  0  0  0  0  0  0  0  # atno 5983 bound_to 2887
   17.8738    1.9446   -0.4426 LP  0  0  0  0  0  0  0  0  0  0  0  0  # atno 6000 bound_to 3171
   19.0117    2.6666   -1.3648 LP  0  0  0  0  0  0  0  0  0  0  0  0  # atno 6001 bound_to 3171
   13.7117   10.2327    8.7123 LP  0  0  0  0  0  0  0  0  0  0  0  0  # atno 6004 bound_to 5270
   12.6385    9.9274    9.9047 LP  0  0  0  0  0  0  0  0  0  0  0  0  # atno 6005 bound_to 5270
    9.7105   19.1423    7.5445 LP  0  0  0  0  0  0  0  0  0  0  0  0  # atno 6055 bound_to 637 
   11.3317   19.1518    7.7404 LP  0  0  0  0  0  0  0  0  0  0  0  0  # atno 6056 bound_to 637 
    0.9771   10.6051   10.7672 LP  0  0  0  0  0  0  0  0  0  0  0  0  # atno 6063 bound_to 1878
    1.0367   12.2179   11.0160 LP  0  0  0  0  0  0  0  0  0  0  0  0  # atno 6064 bound_to 1878
   -7.1958   15.9918    0.0192 LP  0  0  0  0  0  0  0  0  0  0  0  0  # atno 6067 bound_to 957 
   -6.5393   15.6269   -1.4308 LP  0  0  0  0  0  0  0  0  0  0  0  0  # atno 6068 bound_to 957 

>  <STRIFE_LigEff_Score>  (126) 
2.817135294117647

$$$$
unknown|pharmsElabsTestMulti|sdf|127|dock10
     RDKit          3D

 17 17  0  0  0  0  0  0  0  0999 V2000
    3.2849    8.7772    2.1167 C   0  0  0  0  0  0  0  0  0  0  0  0
    4.2291    9.7060    2.7225 N   0  0  0  0  0  0  0  0  0  0  0  0
    4.5103    9.6855    4.1261 C   0  0  0  0  0  0  0  0  0  0  0  0
    3.9414    8.8504    4.8801 O   0  0  0  0  0  0  0  0  0  0  0  0
    5.4755   10.6641    4.7093 C   0  0  0  0  0  0  0  0  0  0  0  0
    6.8558   10.1569    4.6859 N   0  0  0  0  0  0  0  0  0  0  0  0
    7.4246    9.7876    3.4181 C   0  0  0  0  0  0  0  0  0  0  0  0
    6.7031    9.8419    2.3907 O   0  0  0  0  0  0  0  0  0  0  0  0
    8.8416    9.3558    3.1789 C   0  0  0  0  0  0  0  0  0  0  0  0
    9.0219    7.8610    2.9012 C   0  0  0  0  0  0  0  0  0  0  0  0
   10.4920    7.3981    2.8357 C   0  0  0  0  0  0  0  0  0  0  0  0
   11.4218    8.5566    2.4422 C   0  0  0  0  0  0  0  0  0  0  0  0
   12.8668    8.2027    1.9720 C   0  0  0  0  0  0  0  0  0  0  0  0
   13.8313    9.3606    1.7785 C   0  0  0  0  0  0  0  0  0  0  0  0
   13.0113    7.1181    1.0069 N   0  0  0  0  0  0  0  0  0  0  0  0
   11.3726    9.6515    3.5275 C   0  0  0  0  0  0  0  0  0  0  0  0
    9.9486   10.1556    3.8465 C   0  0  0  0  0  0  0  0  0  0  0  0
  1  2  1  0
  2  3  1  0
  3  4  2  0
  3  5  1  0
  5  6  1  0
  6  7  1  0
  7  8  2  0
  7  9  1  0
  9 10  1  0
 10 11  1  0
 11 12  1  0
 12 13  1  0
 13 14  1  0
 13 15  1  0
 12 16  1  0
 16 17  1  0
 17  9  1  0
M  CHG  1  15   1
M  END
>  <EmbedRMS>  (127) 
0.2569057114362328

>  <Gold.Version>  (127) 
2020.3.0

>  <Gold.Id.Protein>  (127) 
unknown|1q8t_protein|pdb

>  <Gold.PLP.Fitness>  (127) 
42.2371

>  <Gold.PLP.PLP>  (127) 
-34.9840

>  <Gold.PLP.part.hbond>  (127) 
-1.6405

>  <Gold.PLP.part.metal>  (127) 
0.0000

>  <Gold.PLP.part.buried>  (127) 
-4.4427

>  <Gold.PLP.part.nonpolar>  (127) 
-29.4203

>  <Gold.PLP.part.repulsive>  (127) 
0.1612

>  <Gold.PLP.ligand.clash>  (127) 
0.0048

>  <Gold.PLP.ligand.torsion>  (127) 
0.8780

>  <Gold.PLP.Chemscore.Hbond>  (127) 
2.6720

>  <Gold.PLP.Chemscore.CHOScore>  (127) 
0.0000

>  <Gold.PLP.Chemscore.Metal>  (127) 
0.0000

>  <Gold.Chemscore.Hbonds>  (127) 
donor molecule, donor type, donor heavy atom, donor atom, acceptor molecule, acceptor atom, score
      L1  H    15    36       P1  2691  0.67
      L1  H    15    37       P1  2902  2.00

>  <Gold.PLP.Chemscore.Internal.Correction>  (127) 
0.9978

>  <Gold.PLP.Constraint>  (127) 
-0.0000

>  <Gold.Protein.RotatedTorsions>  (127) 
[  681  677  676  673 ] final  -41.59 input -179.99 | X-H torsion
[  702  698  697  694 ] final  -28.68 input  179.99 | X-H torsion
[ 2577 2569 2568 2566 ] final  102.71 input   -0.13 | X-H torsion
[ 2891 2887 2886 2883 ] final  -64.58 input  179.98 | X-H torsion
[ 3175 3171 3170 3167 ] final -127.07 input -179.99 | X-H torsion
[ 5278 5270 5269 5267 ] final  -54.70 input    0.55 | X-H torsion
[  641  637  636  633 ] final  -89.74 input  179.99 | X-H torsion
[ 1886 1878 1877 1875 ] final   55.05 input    1.60 | X-H torsion
[  965  957  956  954 ] final    6.28 input    0.45 | X-H torsion

>  <Gold.Protein.ActiveResidues>  (127) 
 LYS47   THR48   LEU49   GLY50   THR51   GLY52   SER53   PHE54   GLY55   ARG56  
 VAL57   MET58   LEU59   TYR69   ALA70   MET71   LYS72   ILE73   LEU74   GLU91  
 LEU95   VAL104  LYS105  MET118  VAL119  MET120  GLU121  TYR122  VAL123  PRO124 
 GLY125  GLY126  GLU127  MET128  PHE129  TYR164  ASP166  LEU167  LYS168  PRO169 
 GLU170  ASN171  LEU172  LEU173  ILE174  GLN181  VAL182  THR183  ASP184  PHE185 
 GLY186  PHE187  GLY200  THR201  ASN326  PHE327  TYR330  ARG18   ARG19   ASN20  
 ALA21   ILE22   HIS23  

>  <Gold.Protein.RotatedAtoms>  (127) 
   10.6102   18.9395    7.2820 H   0  0  0  0  0  0  0  0  0  0  0  0  # atno 641  bound_to 637 
   15.6158   12.9645    6.9371 H   0  0  0  0  0  0  0  0  0  0  0  0  # atno 681  bound_to 677 
   19.8185   11.7623   -0.3423 H   0  0  0  0  0  0  0  0  0  0  0  0  # atno 702  bound_to 698 
   -6.7581   15.3831   -0.9159 H   0  0  0  0  0  0  0  0  0  0  0  0  # atno 965  bound_to 957 
    2.0238   12.0827   10.5389 H   0  0  0  0  0  0  0  0  0  0  0  0  # atno 1886 bound_to 1878
    9.4990    2.1336   -2.6008 H   0  0  0  0  0  0  0  0  0  0  0  0  # atno 2577 bound_to 2569
    7.4481    5.2329    1.0459 H   0  0  0  0  0  0  0  0  0  0  0  0  # atno 2891 bound_to 2887
   18.7742    2.6928    0.3450 H   0  0  0  0  0  0  0  0  0  0  0  0  # atno 3175 bound_to 3171
   13.2172    9.8214   10.4285 H   0  0  0  0  0  0  0  0  0  0  0  0  # atno 5278 bound_to 5270
   16.8028   13.9830    7.2371 LP  0  0  0  0  0  0  0  0  0  0  0  0  # atno 5914 bound_to 677 
   16.9353   12.8690    6.0505 LP  0  0  0  0  0  0  0  0  0  0  0  0  # atno 5915 bound_to 677 
   21.1576   11.5241   -1.1715 LP  0  0  0  0  0  0  0  0  0  0  0  0  # atno 5920 bound_to 698 
   19.7378   11.7904   -1.9330 LP  0  0  0  0  0  0  0  0  0  0  0  0  # atno 5921 bound_to 698 
   10.0044    3.4001   -3.4229 LP  0  0  0  0  0  0  0  0  0  0  0  0  # atno 5950 bound_to 2569
   11.0645    2.4176   -2.6629 LP  0  0  0  0  0  0  0  0  0  0  0  0  # atno 5951 bound_to 2569
    7.4500    6.7763    1.4389 LP  0  0  0  0  0  0  0  0  0  0  0  0  # atno 5982 bound_to 2887
    8.3862    6.2212    0.2215 LP  0  0  0  0  0  0  0  0  0  0  0  0  # atno 5983 bound_to 2887
   17.9178    1.9352   -0.7632 LP  0  0  0  0  0  0  0  0  0  0  0  0  # atno 6000 bound_to 3171
   19.2123    2.8396   -1.1788 LP  0  0  0  0  0  0  0  0  0  0  0  0  # atno 6001 bound_to 3171
   14.4601   10.0560    9.4605 LP  0  0  0  0  0  0  0  0  0  0  0  0  # atno 6004 bound_to 5270
   12.9301   10.1775    8.9029 LP  0  0  0  0  0  0  0  0  0  0  0  0  # atno 6005 bound_to 5270
   11.2003   19.6005    8.6048 LP  0  0  0  0  0  0  0  0  0  0  0  0  # atno 6055 bound_to 637 
    9.5899   19.5544    8.3383 LP  0  0  0  0  0  0  0  0  0  0  0  0  # atno 6056 bound_to 637 
    1.6467   10.5377   10.4605 LP  0  0  0  0  0  0  0  0  0  0  0  0  # atno 6063 bound_to 1878
    0.6081   11.6215   11.1033 LP  0  0  0  0  0  0  0  0  0  0  0  0  # atno 6064 bound_to 1878
   -6.5097   16.8549   -1.4702 LP  0  0  0  0  0  0  0  0  0  0  0  0  # atno 6067 bound_to 957 
   -7.1808   16.6156   -0.0008 LP  0  0  0  0  0  0  0  0  0  0  0  0  # atno 6068 bound_to 957 

>  <STRIFE_LigEff_Score>  (127) 
2.484535294117647

$$$$
unknown|pharmsElabsTestMulti|sdf|128|dock5
     RDKit          3D

 13 13  0  0  0  0  0  0  0  0999 V2000
    5.0823    9.2999    2.7945 C   0  0  0  0  0  0  0  0  0  0  0  0
    6.4831    9.2837    2.3664 N   0  0  0  0  0  0  0  0  0  0  0  0
    7.5256    9.1404    3.3420 C   0  0  0  0  0  0  0  0  0  0  0  0
    7.2218    9.1135    4.5604 O   0  0  0  0  0  0  0  0  0  0  0  0
    8.9867    8.9895    3.0386 C   0  0  0  0  0  0  0  0  0  0  0  0
    9.4829    7.5430    2.9671 C   0  0  0  0  0  0  0  0  0  0  0  0
   11.0143    7.4000    2.8456 C   0  0  0  0  0  0  0  0  0  0  0  0
   11.6410    8.6548    2.2172 C   0  0  0  0  0  0  0  0  0  0  0  0
   13.1027    8.5490    1.6830 C   0  0  0  0  0  0  0  0  0  0  0  0
   13.7242    9.8168    1.1219 C   0  0  0  0  0  0  0  0  0  0  0  0
   13.4743    7.3237    0.9834 N   0  0  0  0  0  0  0  0  0  0  0  0
   11.4024    9.8687    3.1380 C   0  0  0  0  0  0  0  0  0  0  0  0
    9.9191   10.1001    3.4969 C   0  0  0  0  0  0  0  0  0  0  0  0
  1  2  1  0
  2  3  1  0
  3  4  2  0
  3  5  1  0
  5  6  1  0
  6  7  1  0
  7  8  1  0
  8  9  1  0
  9 10  1  0
  9 11  1  0
  8 12  1  0
 12 13  1  0
 13  5  1  0
M  CHG  1  11   1
M  END
>  <EmbedRMS>  (128) 
0.29639754771625826

>  <Gold.Version>  (128) 
2020.3.0

>  <Gold.Id.Protein>  (128) 
unknown|1q8t_protein|pdb

>  <Gold.PLP.Fitness>  (128) 
34.1296

>  <Gold.PLP.PLP>  (128) 
-25.7299

>  <Gold.PLP.part.hbond>  (128) 
-2.0000

>  <Gold.PLP.part.metal>  (128) 
0.0000

>  <Gold.PLP.part.buried>  (128) 
-3.2213

>  <Gold.PLP.part.nonpolar>  (128) 
-20.1246

>  <Gold.PLP.part.repulsive>  (128) 
0.0592

>  <Gold.PLP.ligand.clash>  (128) 
0.0000

>  <Gold.PLP.ligand.torsion>  (128) 
0.5386

>  <Gold.PLP.Chemscore.Hbond>  (128) 
2.8160

>  <Gold.PLP.Chemscore.CHOScore>  (128) 
0.0000

>  <Gold.PLP.Chemscore.Metal>  (128) 
0.0000

>  <Gold.Chemscore.Hbonds>  (128) 
donor molecule, donor type, donor heavy atom, donor atom, acceptor molecule, acceptor atom, score
      L1  H    11    29       P1  2691  0.82
      L1  H    11    30       P1  2902  2.00

>  <Gold.PLP.Chemscore.Internal.Correction>  (128) 
1.0290

>  <Gold.PLP.Constraint>  (128) 
-0.0000

>  <Gold.Protein.RotatedTorsions>  (128) 
[  681  677  676  673 ] final  -67.36 input -179.99 | X-H torsion
[  702  698  697  694 ] final  -17.61 input  179.99 | X-H torsion
[ 2577 2569 2568 2566 ] final  -76.81 input   -0.13 | X-H torsion
[ 2891 2887 2886 2883 ] final  -99.59 input  179.98 | X-H torsion
[ 3175 3171 3170 3167 ] final -170.81 input -179.99 | X-H torsion
[ 5278 5270 5269 5267 ] final  110.99 input    0.55 | X-H torsion
[  641  637  636  633 ] final -173.06 input  179.99 | X-H torsion
[ 1886 1878 1877 1875 ] final    9.29 input    1.60 | X-H torsion
[  965  957  956  954 ] final -145.51 input    0.45 | X-H torsion

>  <Gold.Protein.ActiveResidues>  (128) 
 LYS47   THR48   LEU49   GLY50   THR51   GLY52   SER53   PHE54   GLY55   ARG56  
 VAL57   MET58   LEU59   TYR69   ALA70   MET71   LYS72   ILE73   LEU74   GLU91  
 LEU95   VAL104  LYS105  MET118  VAL119  MET120  GLU121  TYR122  VAL123  PRO124 
 GLY125  GLY126  GLU127  MET128  PHE129  TYR164  ASP166  LEU167  LYS168  PRO169 
 GLU170  ASN171  LEU172  LEU173  ILE174  GLN181  VAL182  THR183  ASP184  PHE185 
 GLY186  PHE187  GLY200  THR201  ASN326  PHE327  TYR330  ARG18   ARG19   ASN20  
 ALA21   ILE22   HIS23  

>  <Gold.Protein.RotatedAtoms>  (128) 
   11.3621   19.3254    8.1200 H   0  0  0  0  0  0  0  0  0  0  0  0  # atno 641  bound_to 637 
   15.6654   13.2610    7.2002 H   0  0  0  0  0  0  0  0  0  0  0  0  # atno 681  bound_to 677 
   19.6767   11.7893   -0.4373 H   0  0  0  0  0  0  0  0  0  0  0  0  # atno 702  bound_to 698 
   -6.6732   17.1112   -1.0662 H   0  0  0  0  0  0  0  0  0  0  0  0  # atno 965  bound_to 957 
    2.2529   11.4587   10.3314 H   0  0  0  0  0  0  0  0  0  0  0  0  # atno 1886 bound_to 1878
   10.8520    3.1415   -3.2015 H   0  0  0  0  0  0  0  0  0  0  0  0  # atno 2577 bound_to 2569
    7.2076    5.5580    1.4022 H   0  0  0  0  0  0  0  0  0  0  0  0  # atno 2891 bound_to 2887
   18.2471    2.2918    0.2637 H   0  0  0  0  0  0  0  0  0  0  0  0  # atno 3175 bound_to 3171
   13.6259   10.2398    8.7494 H   0  0  0  0  0  0  0  0  0  0  0  0  # atno 5278 bound_to 5270
   17.1069   13.8942    6.9607 LP  0  0  0  0  0  0  0  0  0  0  0  0  # atno 5914 bound_to 677 
   16.5790   12.6458    6.0500 LP  0  0  0  0  0  0  0  0  0  0  0  0  # atno 5915 bound_to 677 
   21.1466   11.5225   -0.9901 LP  0  0  0  0  0  0  0  0  0  0  0  0  # atno 5920 bound_to 698 
   19.8980   11.7636   -2.0146 LP  0  0  0  0  0  0  0  0  0  0  0  0  # atno 5921 bound_to 698 
   10.3574    1.8909   -2.3490 LP  0  0  0  0  0  0  0  0  0  0  0  0  # atno 5950 bound_to 2569
    9.2869    2.8657   -3.1043 LP  0  0  0  0  0  0  0  0  0  0  0  0  # atno 5951 bound_to 2569
    7.8180    6.9896    1.0636 LP  0  0  0  0  0  0  0  0  0  0  0  0  # atno 5982 bound_to 2887
    8.2712    5.6658    0.2216 LP  0  0  0  0  0  0  0  0  0  0  0  0  # atno 5983 bound_to 2887
   18.2927    2.1398   -1.3208 LP  0  0  0  0  0  0  0  0  0  0  0  0  # atno 6000 bound_to 3171
   19.3922    3.0570   -0.5356 LP  0  0  0  0  0  0  0  0  0  0  0  0  # atno 6001 bound_to 3171
   12.6682    9.9095    9.9785 LP  0  0  0  0  0  0  0  0  0  0  0  0  # atno 6004 bound_to 5270
   14.2918    9.8837   10.1518 LP  0  0  0  0  0  0  0  0  0  0  0  0  # atno 6005 bound_to 5270
    9.9647   19.7468    8.7560 LP  0  0  0  0  0  0  0  0  0  0  0  0  # atno 6055 bound_to 637 
   10.0336   19.0017    7.3045 LP  0  0  0  0  0  0  0  0  0  0  0  0  # atno 6056 bound_to 637 
    0.9826   10.6018   10.7643 LP  0  0  0  0  0  0  0  0  0  0  0  0  # atno 6063 bound_to 1878
    1.0310   12.2143   11.0179 LP  0  0  0  0  0  0  0  0  0  0  0  0  # atno 6064 bound_to 1878
   -7.2060   16.1017    0.0439 LP  0  0  0  0  0  0  0  0  0  0  0  0  # atno 6067 bound_to 957 
   -6.5739   15.5489   -1.3566 LP  0  0  0  0  0  0  0  0  0  0  0  0  # atno 6068 bound_to 957 

>  <STRIFE_LigEff_Score>  (128) 
2.6253538461538466

$$$$
unknown|pharmsElabsTestMulti|sdf|129|dock7
     RDKit          3D

 20 21  0  0  0  0  0  0  0  0999 V2000
    5.0999   10.1010    5.5994 C   0  0  0  0  0  0  0  0  0  0  0  0
    4.8383    9.6661    4.1890 C   0  0  0  0  0  0  0  0  0  0  0  0
    3.6075    9.0867    3.8493 C   0  0  0  0  0  0  0  0  0  0  0  0
    3.3516    8.7043    2.5310 C   0  0  0  0  0  0  0  0  0  0  0  0
    4.3126    8.9142    1.5397 C   0  0  0  0  0  0  0  0  0  0  0  0
    5.5443    9.5032    1.8588 C   0  0  0  0  0  0  0  0  0  0  0  0
    6.5501    9.7608    0.7636 C   0  0  0  0  0  0  0  0  0  0  0  0
    7.9025    9.9110    1.3228 N   0  0  0  0  0  0  0  0  0  0  0  0
    8.4531    8.8942    2.1779 C   0  0  0  0  0  0  0  0  0  0  0  0
    7.7396    7.9135    2.4971 O   0  0  0  0  0  0  0  0  0  0  0  0
    9.8387    8.8819    2.7538 C   0  0  0  0  0  0  0  0  0  0  0  0
   10.8351    8.0865    1.9250 C   0  0  0  0  0  0  0  0  0  0  0  0
   12.1725    7.8467    2.6168 C   0  0  0  0  0  0  0  0  0  0  0  0
   12.5314    8.9212    3.6598 C   0  0  0  0  0  0  0  0  0  0  0  0
   13.9642    8.6323    4.2189 C   0  0  0  0  0  0  0  0  0  0  0  0
   14.0571    7.1870    4.7410 C   0  0  0  0  0  0  0  0  0  0  0  0
   15.0147    8.8515    3.2151 N   0  0  0  0  0  0  0  0  0  0  0  0
   11.4444    8.9349    4.7646 C   0  0  0  0  0  0  0  0  0  0  0  0
    9.9865    9.0044    4.2586 C   0  0  0  0  0  0  0  0  0  0  0  0
    5.8019    9.8814    3.1895 C   0  0  0  0  0  0  0  0  0  0  0  0
  1  2  1  0
  2  3  2  0
  3  4  1  0
  4  5  2  0
  5  6  1  0
  6  7  1  0
  7  8  1  0
  8  9  1  0
  9 10  2  0
  9 11  1  0
 11 12  1  0
 12 13  1  0
 13 14  1  0
 14 15  1  0
 15 16  1  0
 15 17  1  0
 14 18  1  0
 18 19  1  0
  6 20  2  0
 20  2  1  0
 19 11  1  0
M  CHG  1  17   1
M  END
>  <EmbedRMS>  (129) 
0.16810927383701896

>  <Gold.Version>  (129) 
2020.3.0

>  <Gold.Id.Protein>  (129) 
unknown|1q8t_protein|pdb

>  <Gold.PLP.Fitness>  (129) 
52.1164

>  <Gold.PLP.PLP>  (129) 
-47.0082

>  <Gold.PLP.part.hbond>  (129) 
-1.8636

>  <Gold.PLP.part.metal>  (129) 
0.0000

>  <Gold.PLP.part.buried>  (129) 
0.4470

>  <Gold.PLP.part.nonpolar>  (129) 
-46.4817

>  <Gold.PLP.part.repulsive>  (129) 
0.0214

>  <Gold.PLP.ligand.clash>  (129) 
0.0000

>  <Gold.PLP.ligand.torsion>  (129) 
0.7776

>  <Gold.PLP.Chemscore.Hbond>  (129) 
1.9760

>  <Gold.PLP.Chemscore.CHOScore>  (129) 
0.0000

>  <Gold.PLP.Chemscore.Metal>  (129) 
0.0000

>  <Gold.Chemscore.Hbonds>  (129) 
donor molecule, donor type, donor heavy atom, donor atom, acceptor molecule, acceptor atom, score
      L1  H    17    41       P1   675  0.98
      P1  H  2887  2891       L1    10  1.00

>  <Gold.PLP.Chemscore.Internal.Correction>  (129) 
0.7354

>  <Gold.PLP.Constraint>  (129) 
-0.0000

>  <Gold.Protein.RotatedTorsions>  (129) 
[  681  677  676  673 ] final -113.01 input -179.99 | X-H torsion
[  702  698  697  694 ] final -156.48 input  179.99 | X-H torsion
[ 2577 2569 2568 2566 ] final  178.01 input   -0.13 | X-H torsion
[ 2891 2887 2886 2883 ] final -179.70 input  179.98 | X-H torsion
[ 3175 3171 3170 3167 ] final   56.29 input -179.99 | X-H torsion
[ 5278 5270 5269 5267 ] final   44.11 input    0.55 | X-H torsion
[  641  637  636  633 ] final  -29.52 input  179.99 | X-H torsion
[ 1886 1878 1877 1875 ] final -107.28 input    1.60 | X-H torsion
[  965  957  956  954 ] final -171.41 input    0.45 | X-H torsion

>  <Gold.Protein.ActiveResidues>  (129) 
 LYS47   THR48   LEU49   GLY50   THR51   GLY52   SER53   PHE54   GLY55   ARG56  
 VAL57   MET58   LEU59   TYR69   ALA70   MET71   LYS72   ILE73   LEU74   GLU91  
 LEU95   VAL104  LYS105  MET118  VAL119  MET120  GLU121  TYR122  VAL123  PRO124 
 GLY125  GLY126  GLU127  MET128  PHE129  TYR164  ASP166  LEU167  LYS168  PRO169 
 GLU170  ASN171  LEU172  LEU173  ILE174  GLN181  VAL182  THR183  ASP184  PHE185 
 GLY186  PHE187  GLY200  THR201  ASN326  PHE327  TYR330  ARG18   ARG19   ASN20  
 ALA21   ILE22   HIS23  

>  <Gold.Protein.RotatedAtoms>  (129) 
    9.7727   19.1230    7.5499 H   0  0  0  0  0  0  0  0  0  0  0  0  # atno 641  bound_to 637 
   16.1033   13.7546    7.4183 H   0  0  0  0  0  0  0  0  0  0  0  0  # atno 681  bound_to 677 
   21.1023   11.5530   -1.2907 H   0  0  0  0  0  0  0  0  0  0  0  0  # atno 702  bound_to 698 
   -6.8379   17.1590   -0.7032 H   0  0  0  0  0  0  0  0  0  0  0  0  # atno 965  bound_to 957 
    1.0411   10.6223   10.7230 H   0  0  0  0  0  0  0  0  0  0  0  0  # atno 1886 bound_to 1878
   10.5681    1.9869   -2.4206 H   0  0  0  0  0  0  0  0  0  0  0  0  # atno 2577 bound_to 2569
    7.4103    6.6925    1.4393 H   0  0  0  0  0  0  0  0  0  0  0  0  # atno 2891 bound_to 2887
   18.4723    2.2456   -1.3623 H   0  0  0  0  0  0  0  0  0  0  0  0  # atno 3175 bound_to 3171
   12.7485   10.1227    9.1871 H   0  0  0  0  0  0  0  0  0  0  0  0  # atno 5278 bound_to 5270
   17.2970   13.4550    6.4075 LP  0  0  0  0  0  0  0  0  0  0  0  0  # atno 5914 bound_to 677 
   15.9280   12.5654    6.3736 LP  0  0  0  0  0  0  0  0  0  0  0  0  # atno 5915 bound_to 677 
   19.6354   11.8071   -1.8574 LP  0  0  0  0  0  0  0  0  0  0  0  0  # atno 5920 bound_to 698 
   19.9095   11.7275   -0.2495 LP  0  0  0  0  0  0  0  0  0  0  0  0  # atno 5921 bound_to 698 
    9.2383    2.6683   -2.9708 LP  0  0  0  0  0  0  0  0  0  0  0  0  # atno 5950 bound_to 2569
   10.7049    3.3040   -3.3048 LP  0  0  0  0  0  0  0  0  0  0  0  0  # atno 5951 bound_to 2569
    8.3842    6.2986    0.2423 LP  0  0  0  0  0  0  0  0  0  0  0  0  # atno 5982 bound_to 2887
    7.4918    5.1627    1.0039 LP  0  0  0  0  0  0  0  0  0  0  0  0  # atno 5983 bound_to 2887
   19.3631    3.0630   -0.3260 LP  0  0  0  0  0  0  0  0  0  0  0  0  # atno 6000 bound_to 3171
   18.0847    2.1825    0.1808 LP  0  0  0  0  0  0  0  0  0  0  0  0  # atno 6001 bound_to 3171
   13.5426    9.7837   10.5255 LP  0  0  0  0  0  0  0  0  0  0  0  0  # atno 6004 bound_to 5270
   14.3406   10.1327    9.1442 LP  0  0  0  0  0  0  0  0  0  0  0  0  # atno 6005 bound_to 5270
   11.3480   19.1691    7.7760 LP  0  0  0  0  0  0  0  0  0  0  0  0  # atno 6055 bound_to 637 
   10.3242   19.7925    8.8850 LP  0  0  0  0  0  0  0  0  0  0  0  0  # atno 6056 bound_to 637 
    0.9861   12.1832   11.0325 LP  0  0  0  0  0  0  0  0  0  0  0  0  # atno 6063 bound_to 1878
    2.3032   11.5133   10.3375 LP  0  0  0  0  0  0  0  0  0  0  0  0  # atno 6064 bound_to 1878
   -7.1402   15.7131   -0.1089 LP  0  0  0  0  0  0  0  0  0  0  0  0  # atno 6067 bound_to 957 
   -6.4662   15.8871   -1.5861 LP  0  0  0  0  0  0  0  0  0  0  0  0  # atno 6068 bound_to 957 

>  <STRIFE_LigEff_Score>  (129) 
2.60582

$$$$
unknown|pharmsElabsTestMulti|sdf|130|dock3
     RDKit          3D

 15 15  0  0  0  0  0  0  0  0999 V2000
    3.7530   10.0951    5.1289 C   0  0  0  0  0  0  0  0  0  0  0  0
    5.2494    9.8378    5.2939 C   0  0  0  0  0  0  0  0  0  0  0  0
    5.9929    9.9796    3.9641 C   0  0  0  0  0  0  0  0  0  0  0  0
    7.3710    9.5215    4.0945 N   0  0  0  0  0  0  0  0  0  0  0  0
    8.2519    9.4441    2.9737 C   0  0  0  0  0  0  0  0  0  0  0  0
    7.8673    9.8225    1.8310 O   0  0  0  0  0  0  0  0  0  0  0  0
    9.6505    8.9358    3.1863 C   0  0  0  0  0  0  0  0  0  0  0  0
    9.8992    7.6542    2.3696 C   0  0  0  0  0  0  0  0  0  0  0  0
   11.3504    7.1730    2.5386 C   0  0  0  0  0  0  0  0  0  0  0  0
   12.2842    8.3040    2.0707 C   0  0  0  0  0  0  0  0  0  0  0  0
   13.7546    7.9497    1.7032 C   0  0  0  0  0  0  0  0  0  0  0  0
   14.7114    9.1147    1.5157 C   0  0  0  0  0  0  0  0  0  0  0  0
   13.9647    6.8227    0.8033 N   0  0  0  0  0  0  0  0  0  0  0  0
   12.1168    9.5261    2.9904 C   0  0  0  0  0  0  0  0  0  0  0  0
   10.6760   10.0467    2.8900 C   0  0  0  0  0  0  0  0  0  0  0  0
  1  2  1  0
  2  3  1  0
  3  4  1  0
  4  5  1  0
  5  6  2  0
  5  7  1  0
  7  8  1  0
  8  9  1  0
  9 10  1  0
 10 11  1  0
 11 12  1  0
 11 13  1  0
 10 14  1  0
 14 15  1  0
 15  7  1  0
M  CHG  1  13   1
M  END
>  <EmbedRMS>  (130) 
0.2000484947854372

>  <Gold.Version>  (130) 
2020.3.0

>  <Gold.Id.Protein>  (130) 
unknown|1q8t_protein|pdb

>  <Gold.PLP.Fitness>  (130) 
42.6937

>  <Gold.PLP.PLP>  (130) 
-33.7889

>  <Gold.PLP.part.hbond>  (130) 
-1.9361

>  <Gold.PLP.part.metal>  (130) 
0.0000

>  <Gold.PLP.part.buried>  (130) 
-2.6067

>  <Gold.PLP.part.nonpolar>  (130) 
-29.7069

>  <Gold.PLP.part.repulsive>  (130) 
0.0909

>  <Gold.PLP.ligand.clash>  (130) 
0.0000

>  <Gold.PLP.ligand.torsion>  (130) 
0.2534

>  <Gold.PLP.Chemscore.Hbond>  (130) 
2.9920

>  <Gold.PLP.Chemscore.CHOScore>  (130) 
0.0000

>  <Gold.PLP.Chemscore.Metal>  (130) 
0.0000

>  <Gold.Chemscore.Hbonds>  (130) 
donor molecule, donor type, donor heavy atom, donor atom, acceptor molecule, acceptor atom, score
      L1  H    13    34       P1  2691  0.99
      L1  H    13    35       P1  2902  2.00

>  <Gold.PLP.Chemscore.Internal.Correction>  (130) 
0.4357

>  <Gold.PLP.Constraint>  (130) 
-0.0000

>  <Gold.Protein.RotatedTorsions>  (130) 
[  681  677  676  673 ] final -174.76 input -179.99 | X-H torsion
[  702  698  697  694 ] final  -95.75 input  179.99 | X-H torsion
[ 2577 2569 2568 2566 ] final    5.91 input   -0.13 | X-H torsion
[ 2891 2887 2886 2883 ] final  120.12 input  179.98 | X-H torsion
[ 3175 3171 3170 3167 ] final  -73.71 input -179.99 | X-H torsion
[ 5278 5270 5269 5267 ] final  159.09 input    0.55 | X-H torsion
[  641  637  636  633 ] final  138.80 input  179.99 | X-H torsion
[ 1886 1878 1877 1875 ] final  109.03 input    1.60 | X-H torsion
[  965  957  956  954 ] final -172.97 input    0.45 | X-H torsion

>  <Gold.Protein.ActiveResidues>  (130) 
 LYS47   THR48   LEU49   GLY50   THR51   GLY52   SER53   PHE54   GLY55   ARG56  
 VAL57   MET58   LEU59   TYR69   ALA70   MET71   LYS72   ILE73   LEU74   GLU91  
 LEU95   VAL104  LYS105  MET118  VAL119  MET120  GLU121  TYR122  VAL123  PRO124 
 GLY125  GLY126  GLU127  MET128  PHE129  TYR164  ASP166  LEU167  LYS168  PRO169 
 GLU170  ASN171  LEU172  LEU173  ILE174  GLN181  VAL182  THR183  ASP184  PHE185 
 GLY186  PHE187  GLY200  THR201  ASN326  PHE327  TYR330  ARG18   ARG19   ASN20  
 ALA21   ILE22   HIS23  

>  <Gold.Protein.RotatedAtoms>  (130) 
   11.0367   19.6371    8.6949 H   0  0  0  0  0  0  0  0  0  0  0  0  # atno 641  bound_to 637 
   16.9382   13.9313    7.0763 H   0  0  0  0  0  0  0  0  0  0  0  0  # atno 681  bound_to 677 
   20.7891   11.5921   -0.4414 H   0  0  0  0  0  0  0  0  0  0  0  0  # atno 702  bound_to 698 
   -6.8480   17.1560   -0.6813 H   0  0  0  0  0  0  0  0  0  0  0  0  # atno 965  bound_to 957 
    1.3194   12.2934   10.8854 H   0  0  0  0  0  0  0  0  0  0  0  0  # atno 1886 bound_to 1878
    9.6812    3.2297   -3.3485 H   0  0  0  0  0  0  0  0  0  0  0  0  # atno 2577 bound_to 2569
    8.0048    6.9172    0.8045 H   0  0  0  0  0  0  0  0  0  0  0  0  # atno 2891 bound_to 2887
   19.2914    3.0065   -0.1852 H   0  0  0  0  0  0  0  0  0  0  0  0  # atno 3175 bound_to 3171
   14.2572   10.1581    9.1075 H   0  0  0  0  0  0  0  0  0  0  0  0  # atno 5278 bound_to 5270
   16.7614   12.7418    6.0322 LP  0  0  0  0  0  0  0  0  0  0  0  0  # atno 5914 bound_to 677 
   15.5848   13.0926    7.1089 LP  0  0  0  0  0  0  0  0  0  0  0  0  # atno 5915 bound_to 677 
   20.5613   11.6461   -2.0170 LP  0  0  0  0  0  0  0  0  0  0  0  0  # atno 5920 bound_to 698 
   19.3131   11.8474   -0.9834 LP  0  0  0  0  0  0  0  0  0  0  0  0  # atno 5921 bound_to 698 
   11.1160    2.7279   -2.8746 LP  0  0  0  0  0  0  0  0  0  0  0  0  # atno 5950 bound_to 2569
    9.7610    1.9358   -2.4239 LP  0  0  0  0  0  0  0  0  0  0  0  0  # atno 5951 bound_to 2569
    8.1140    5.3979    0.3395 LP  0  0  0  0  0  0  0  0  0  0  0  0  # atno 5982 bound_to 2887
    7.1362    5.8270    1.5749 LP  0  0  0  0  0  0  0  0  0  0  0  0  # atno 5983 bound_to 2887
   18.0019    2.1056    0.0619 LP  0  0  0  0  0  0  0  0  0  0  0  0  # atno 6000 bound_to 3171
   18.5838    2.3391   -1.4459 LP  0  0  0  0  0  0  0  0  0  0  0  0  # atno 6001 bound_to 3171
   12.6707   10.0936    9.2324 LP  0  0  0  0  0  0  0  0  0  0  0  0  # atno 6004 bound_to 5270
   13.6251    9.7857   10.5211 LP  0  0  0  0  0  0  0  0  0  0  0  0  # atno 6005 bound_to 5270
    9.5406   19.4739    8.1752 LP  0  0  0  0  0  0  0  0  0  0  0  0  # atno 6055 bound_to 637 
   10.8004   18.9464    7.2799 LP  0  0  0  0  0  0  0  0  0  0  0  0  # atno 6056 bound_to 637 
    2.2400   11.1333   10.3006 LP  0  0  0  0  0  0  0  0  0  0  0  0  # atno 6063 bound_to 1878
    0.7565   10.8040   10.8985 LP  0  0  0  0  0  0  0  0  0  0  0  0  # atno 6064 bound_to 1878
   -7.1340   15.6927   -0.1229 LP  0  0  0  0  0  0  0  0  0  0  0  0  # atno 6067 bound_to 957 
   -6.4619   15.9107   -1.5951 LP  0  0  0  0  0  0  0  0  0  0  0  0  # atno 6068 bound_to 957 

>  <STRIFE_LigEff_Score>  (130) 
2.8462466666666666

$$$$
unknown|pharmsElabsTestMulti|sdf|131|dock4
     RDKit          3D

 17 17  0  0  0  0  0  0  0  0999 V2000
    3.6914    9.5769    1.8513 C   0  0  0  0  0  0  0  0  0  0  0  0
    3.3489    8.6605    3.0145 C   0  0  0  0  0  0  0  0  0  0  0  0
    3.5178    9.3689    4.2881 N   0  0  0  0  0  0  0  0  0  0  0  0
    4.8998    9.1995    4.7455 C   0  0  0  0  0  0  0  0  0  0  0  0
    5.8027   10.3004    4.1793 C   0  0  0  0  0  0  0  0  0  0  0  0
    7.2019    9.8495    4.1513 N   0  0  0  0  0  0  0  0  0  0  0  0
    7.8504    9.5791    2.8969 C   0  0  0  0  0  0  0  0  0  0  0  0
    7.1919    9.6834    1.8324 O   0  0  0  0  0  0  0  0  0  0  0  0
    9.2896    9.1983    2.7214 C   0  0  0  0  0  0  0  0  0  0  0  0
    9.5538    7.6927    2.6427 C   0  0  0  0  0  0  0  0  0  0  0  0
   11.0481    7.3086    2.6443 C   0  0  0  0  0  0  0  0  0  0  0  0
   11.9179    8.4590    2.1127 C   0  0  0  0  0  0  0  0  0  0  0  0
   13.3861    8.1315    1.7002 C   0  0  0  0  0  0  0  0  0  0  0  0
   14.2818    9.3079    1.3510 C   0  0  0  0  0  0  0  0  0  0  0  0
   13.6054    6.9349    0.8947 N   0  0  0  0  0  0  0  0  0  0  0  0
   11.7938    9.6779    3.0496 C   0  0  0  0  0  0  0  0  0  0  0  0
   10.3403   10.1365    3.2922 C   0  0  0  0  0  0  0  0  0  0  0  0
  1  2  1  0
  2  3  1  0
  3  4  1  0
  4  5  1  0
  5  6  1  0
  6  7  1  0
  7  8  2  0
  7  9  1  0
  9 10  1  0
 10 11  1  0
 11 12  1  0
 12 13  1  0
 13 14  1  0
 13 15  1  0
 12 16  1  0
 16 17  1  0
 17  9  1  0
M  CHG  1  15   1
M  END
>  <EmbedRMS>  (131) 
0.25842907567579826

>  <Gold.Version>  (131) 
2020.3.0

>  <Gold.Id.Protein>  (131) 
unknown|1q8t_protein|pdb

>  <Gold.PLP.Fitness>  (131) 
47.0042

>  <Gold.PLP.PLP>  (131) 
-39.2362

>  <Gold.PLP.part.hbond>  (131) 
-2.0632

>  <Gold.PLP.part.metal>  (131) 
0.0000

>  <Gold.PLP.part.buried>  (131) 
-4.7624

>  <Gold.PLP.part.nonpolar>  (131) 
-32.3820

>  <Gold.PLP.part.repulsive>  (131) 
0.0692

>  <Gold.PLP.ligand.clash>  (131) 
0.0000

>  <Gold.PLP.ligand.torsion>  (131) 
1.0420

>  <Gold.PLP.Chemscore.Hbond>  (131) 
2.8862

>  <Gold.PLP.Chemscore.CHOScore>  (131) 
0.0000

>  <Gold.PLP.Chemscore.Metal>  (131) 
0.0000

>  <Gold.Chemscore.Hbonds>  (131) 
donor molecule, donor type, donor heavy atom, donor atom, acceptor molecule, acceptor atom, score
      L1  H    15    39       P1  2902  2.00
      L1  H    15    41       P1  2691  0.82
      P1  H  1888  1903       L1     3  0.07

>  <Gold.PLP.Chemscore.Internal.Correction>  (131) 
1.1935

>  <Gold.PLP.Constraint>  (131) 
-0.0000

>  <Gold.Protein.RotatedTorsions>  (131) 
[  681  677  676  673 ] final   89.51 input -179.99 | X-H torsion
[  702  698  697  694 ] final  -28.45 input  179.99 | X-H torsion
[ 2577 2569 2568 2566 ] final   62.25 input   -0.13 | X-H torsion
[ 2891 2887 2886 2883 ] final  -59.25 input  179.98 | X-H torsion
[ 3175 3171 3170 3167 ] final  -56.31 input -179.99 | X-H torsion
[ 5278 5270 5269 5267 ] final   29.28 input    0.55 | X-H torsion
[  641  637  636  633 ] final  138.05 input  179.99 | X-H torsion
[ 1886 1878 1877 1875 ] final -127.62 input    1.60 | X-H torsion
[  965  957  956  954 ] final  142.08 input    0.45 | X-H torsion

>  <Gold.Protein.ActiveResidues>  (131) 
 LYS47   THR48   LEU49   GLY50   THR51   GLY52   SER53   PHE54   GLY55   ARG56  
 VAL57   MET58   LEU59   TYR69   ALA70   MET71   LYS72   ILE73   LEU74   GLU91  
 LEU95   VAL104  LYS105  MET118  VAL119  MET120  GLU121  TYR122  VAL123  PRO124 
 GLY125  GLY126  GLU127  MET128  PHE129  TYR164  ASP166  LEU167  LYS168  PRO169 
 GLU170  ASN171  LEU172  LEU173  ILE174  GLN181  VAL182  THR183  ASP184  PHE185 
 GLY186  PHE187  GLY200  THR201  ASN326  PHE327  TYR330  ARG18   ARG19   ASN20  
 ALA21   ILE22   HIS23  

>  <Gold.Protein.RotatedAtoms>  (131) 
   11.0277   19.6408    8.7012 H   0  0  0  0  0  0  0  0  0  0  0  0  # atno 641  bound_to 637 
   17.0242   13.0168    6.1164 H   0  0  0  0  0  0  0  0  0  0  0  0  # atno 681  bound_to 677 
   19.8154   11.7629   -0.3440 H   0  0  0  0  0  0  0  0  0  0  0  0  # atno 702  bound_to 698 
   -7.0959   16.8122   -0.1438 H   0  0  0  0  0  0  0  0  0  0  0  0  # atno 965  bound_to 957 
    0.8144   10.8002   10.8533 H   0  0  0  0  0  0  0  0  0  0  0  0  # atno 1886 bound_to 1878
    9.2841    2.6031   -2.9426 H   0  0  0  0  0  0  0  0  0  0  0  0  # atno 2577 bound_to 2569
    7.4970    5.2082    0.9833 H   0  0  0  0  0  0  0  0  0  0  0  0  # atno 2891 bound_to 2887
   19.3573    3.0209   -0.4477 H   0  0  0  0  0  0  0  0  0  0  0  0  # atno 3175 bound_to 3171
   12.6625   10.0705    9.3953 H   0  0  0  0  0  0  0  0  0  0  0  0  # atno 5278 bound_to 5270
   15.6105   12.8198    6.8225 LP  0  0  0  0  0  0  0  0  0  0  0  0  # atno 5914 bound_to 677 
   16.6452   13.9772    7.3289 LP  0  0  0  0  0  0  0  0  0  0  0  0  # atno 5915 bound_to 677 
   21.1577   11.5240   -1.1678 LP  0  0  0  0  0  0  0  0  0  0  0  0  # atno 5920 bound_to 698 
   19.7409   11.7899   -1.9350 LP  0  0  0  0  0  0  0  0  0  0  0  0  # atno 5921 bound_to 698 
   10.6459    3.3323   -3.3287 LP  0  0  0  0  0  0  0  0  0  0  0  0  # atno 5950 bound_to 2569
   10.6492    1.9911   -2.3972 LP  0  0  0  0  0  0  0  0  0  0  0  0  # atno 5951 bound_to 2569
    7.4009    6.7178    1.4817 LP  0  0  0  0  0  0  0  0  0  0  0  0  # atno 5982 bound_to 2887
    8.3838    6.3057    0.2445 LP  0  0  0  0  0  0  0  0  0  0  0  0  # atno 5983 bound_to 2887
   18.1571    2.2459    0.2557 LP  0  0  0  0  0  0  0  0  0  0  0  0  # atno 6000 bound_to 3171
   18.3593    2.1836   -1.3635 LP  0  0  0  0  0  0  0  0  0  0  0  0  # atno 6001 bound_to 3171
   13.7834    9.7944   10.4926 LP  0  0  0  0  0  0  0  0  0  0  0  0  # atno 6004 bound_to 5270
   14.1903   10.1771    8.9581 LP  0  0  0  0  0  0  0  0  0  0  0  0  # atno 6005 bound_to 5270
    9.5387   19.4685    8.1644 LP  0  0  0  0  0  0  0  0  0  0  0  0  # atno 6055 bound_to 637 
   10.8118   18.9479    7.2841 LP  0  0  0  0  0  0  0  0  0  0  0  0  # atno 6056 bound_to 637 
    1.2704   12.3238   10.9311 LP  0  0  0  0  0  0  0  0  0  0  0  0  # atno 6063 bound_to 1878
    2.2576   11.1854   10.3017 LP  0  0  0  0  0  0  0  0  0  0  0  0  # atno 6064 bound_to 1878
   -6.8778   15.3339   -0.6933 LP  0  0  0  0  0  0  0  0  0  0  0  0  # atno 6067 bound_to 957 
   -6.4569   16.6315   -1.5909 LP  0  0  0  0  0  0  0  0  0  0  0  0  # atno 6068 bound_to 957 

>  <STRIFE_LigEff_Score>  (131) 
2.7649529411764706

$$$$
unknown|pharmsElabsTestMulti|sdf|132|dock5
     RDKit          3D

 17 17  0  0  0  0  0  0  0  0999 V2000
    3.8214    8.3510    2.8818 C   0  0  0  0  0  0  0  0  0  0  0  0
    3.2296    9.6160    3.4817 C   0  0  0  0  0  0  0  0  0  0  0  0
    3.4628    9.6505    4.9297 N   0  0  0  0  0  0  0  0  0  0  0  0
    4.8852    9.4090    5.1869 C   0  0  0  0  0  0  0  0  0  0  0  0
    5.7609   10.3050    4.3047 C   0  0  0  0  0  0  0  0  0  0  0  0
    7.1307    9.7748    4.2387 N   0  0  0  0  0  0  0  0  0  0  0  0
    7.8305    9.7314    2.9834 C   0  0  0  0  0  0  0  0  0  0  0  0
    7.2389   10.1035    1.9397 O   0  0  0  0  0  0  0  0  0  0  0  0
    9.2524    9.2980    2.7902 C   0  0  0  0  0  0  0  0  0  0  0  0
    9.4454    7.7948    2.5759 C   0  0  0  0  0  0  0  0  0  0  0  0
   10.9193    7.3391    2.5593 C   0  0  0  0  0  0  0  0  0  0  0  0
   11.8517    8.4893    2.1461 C   0  0  0  0  0  0  0  0  0  0  0  0
   13.3089    8.1291    1.7221 C   0  0  0  0  0  0  0  0  0  0  0  0
   14.2654    9.2871    1.4931 C   0  0  0  0  0  0  0  0  0  0  0  0
   13.4835    7.0018    0.8124 N   0  0  0  0  0  0  0  0  0  0  0  0
   11.7711    9.6218    3.1900 C   0  0  0  0  0  0  0  0  0  0  0  0
   10.3376   10.1272    3.4571 C   0  0  0  0  0  0  0  0  0  0  0  0
  1  2  1  0
  2  3  1  0
  3  4  1  0
  4  5  1  0
  5  6  1  0
  6  7  1  0
  7  8  2  0
  7  9  1  0
  9 10  1  0
 10 11  1  0
 11 12  1  0
 12 13  1  0
 13 14  1  0
 13 15  1  0
 12 16  1  0
 16 17  1  0
 17  9  1  0
M  CHG  1  15   1
M  END
>  <EmbedRMS>  (132) 
0.25842907567579826

>  <Gold.Version>  (132) 
2020.3.0

>  <Gold.Id.Protein>  (132) 
unknown|1q8t_protein|pdb

>  <Gold.PLP.Fitness>  (132) 
47.5229

>  <Gold.PLP.PLP>  (132) 
-39.3533

>  <Gold.PLP.part.hbond>  (132) 
-2.4344

>  <Gold.PLP.part.metal>  (132) 
0.0000

>  <Gold.PLP.part.buried>  (132) 
-4.6832

>  <Gold.PLP.part.nonpolar>  (132) 
-33.1431

>  <Gold.PLP.part.repulsive>  (132) 
0.0619

>  <Gold.PLP.ligand.clash>  (132) 
0.0163

>  <Gold.PLP.ligand.torsion>  (132) 
0.7723

>  <Gold.PLP.Chemscore.Hbond>  (132) 
2.8552

>  <Gold.PLP.Chemscore.CHOScore>  (132) 
0.0000

>  <Gold.PLP.Chemscore.Metal>  (132) 
0.0000

>  <Gold.Chemscore.Hbonds>  (132) 
donor molecule, donor type, donor heavy atom, donor atom, acceptor molecule, acceptor atom, score
      L1  H    15    39       P1  2902  2.00
      L1  H    15    41       P1  2691  0.85
      P1  H  1888  1903       L1     3  0.01

>  <Gold.PLP.Chemscore.Internal.Correction>  (132) 
1.1650

>  <Gold.PLP.Constraint>  (132) 
-0.0000

>  <Gold.Protein.RotatedTorsions>  (132) 
[  681  677  676  673 ] final -169.52 input -179.99 | X-H torsion
[  702  698  697  694 ] final   84.94 input  179.99 | X-H torsion
[ 2577 2569 2568 2566 ] final  113.81 input   -0.13 | X-H torsion
[ 2891 2887 2886 2883 ] final  169.41 input  179.98 | X-H torsion
[ 3175 3171 3170 3167 ] final  127.27 input -179.99 | X-H torsion
[ 5278 5270 5269 5267 ] final  115.86 input    0.55 | X-H torsion
[  641  637  636  633 ] final -115.34 input  179.99 | X-H torsion
[ 1886 1878 1877 1875 ] final    9.41 input    1.60 | X-H torsion
[  965  957  956  954 ] final -115.21 input    0.45 | X-H torsion

>  <Gold.Protein.ActiveResidues>  (132) 
 LYS47   THR48   LEU49   GLY50   THR51   GLY52   SER53   PHE54   GLY55   ARG56  
 VAL57   MET58   LEU59   TYR69   ALA70   MET71   LYS72   ILE73   LEU74   GLU91  
 LEU95   VAL104  LYS105  MET118  VAL119  MET120  GLU121  TYR122  VAL123  PRO124 
 GLY125  GLY126  GLU127  MET128  PHE129  TYR164  ASP166  LEU167  LYS168  PRO169 
 GLU170  ASN171  LEU172  LEU173  ILE174  GLN181  VAL182  THR183  ASP184  PHE185 
 GLY186  PHE187  GLY200  THR201  ASN326  PHE327  TYR330  ARG18   ARG19   ASN20  
 ALA21   ILE22   HIS23  

>  <Gold.Protein.RotatedAtoms>  (132) 
   10.9778   18.9905    7.4221 H   0  0  0  0  0  0  0  0  0  0  0  0  # atno 641  bound_to 637 
   16.8771   13.9461    7.1289 H   0  0  0  0  0  0  0  0  0  0  0  0  # atno 681  bound_to 677 
   19.6847   11.8148   -1.8355 H   0  0  0  0  0  0  0  0  0  0  0  0  # atno 702  bound_to 698 
   -6.5165   16.8432   -1.4162 H   0  0  0  0  0  0  0  0  0  0  0  0  # atno 965  bound_to 957 
    2.2530   11.4606   10.3317 H   0  0  0  0  0  0  0  0  0  0  0  0  # atno 1886 bound_to 1878
    9.6236    2.0393   -2.5262 H   0  0  0  0  0  0  0  0  0  0  0  0  # atno 2577 bound_to 2569
    7.5088    6.7990    1.3506 H   0  0  0  0  0  0  0  0  0  0  0  0  # atno 2891 bound_to 2887
   17.9250    1.9494   -0.5290 H   0  0  0  0  0  0  0  0  0  0  0  0  # atno 3175 bound_to 3171
   13.7013   10.2379    8.7606 H   0  0  0  0  0  0  0  0  0  0  0  0  # atno 5278 bound_to 5270
   16.8332   12.7895    6.0350 LP  0  0  0  0  0  0  0  0  0  0  0  0  # atno 5914 bound_to 677 
   15.5773   13.0293    7.0508 LP  0  0  0  0  0  0  0  0  0  0  0  0  # atno 5915 bound_to 677 
   19.8879   11.7315   -0.2578 LP  0  0  0  0  0  0  0  0  0  0  0  0  # atno 5920 bound_to 698 
   21.1482   11.5277   -1.2760 LP  0  0  0  0  0  0  0  0  0  0  0  0  # atno 5921 bound_to 698 
    9.8295    3.3525   -3.4026 LP  0  0  0  0  0  0  0  0  0  0  0  0  # atno 5950 bound_to 2569
   11.1081    2.5645   -2.7618 LP  0  0  0  0  0  0  0  0  0  0  0  0  # atno 5951 bound_to 2569
    8.3824    6.1242    0.2026 LP  0  0  0  0  0  0  0  0  0  0  0  0  # atno 5982 bound_to 2887
    7.3898    5.2252    1.1370 LP  0  0  0  0  0  0  0  0  0  0  0  0  # atno 5983 bound_to 2887
   19.0722    2.7169   -1.3230 LP  0  0  0  0  0  0  0  0  0  0  0  0  # atno 6000 bound_to 3171
   18.9515    2.8402    0.3008 LP  0  0  0  0  0  0  0  0  0  0  0  0  # atno 6001 bound_to 3171
   12.6390    9.9271    9.9059 LP  0  0  0  0  0  0  0  0  0  0  0  0  # atno 6004 bound_to 5270
   14.2418    9.8682   10.2125 LP  0  0  0  0  0  0  0  0  0  0  0  0  # atno 6005 bound_to 5270
   10.8719   19.7323    8.8269 LP  0  0  0  0  0  0  0  0  0  0  0  0  # atno 6055 bound_to 637 
    9.5311   19.3689    7.9686 LP  0  0  0  0  0  0  0  0  0  0  0  0  # atno 6056 bound_to 637 
    0.9842   10.6009   10.7634 LP  0  0  0  0  0  0  0  0  0  0  0  0  # atno 6063 bound_to 1878
    1.0294   12.2132   11.0185 LP  0  0  0  0  0  0  0  0  0  0  0  0  # atno 6064 bound_to 1878
   -7.1846   16.5926    0.0071 LP  0  0  0  0  0  0  0  0  0  0  0  0  # atno 6067 bound_to 957 
   -6.7604   15.3402   -0.9511 LP  0  0  0  0  0  0  0  0  0  0  0  0  # atno 6068 bound_to 957 

>  <STRIFE_LigEff_Score>  (132) 
2.795464705882353

$$$$
unknown|pharmsElabsTestMulti|sdf|133|dock5
     RDKit          3D

 15 15  0  0  0  0  0  0  0  0999 V2000
    3.6152    9.9758    5.1298 C   0  0  0  0  0  0  0  0  0  0  0  0
    5.1232    9.8061    5.3022 C   0  0  0  0  0  0  0  0  0  0  0  0
    5.8600    9.9514    3.9691 C   0  0  0  0  0  0  0  0  0  0  0  0
    7.2433    9.5078    4.0955 N   0  0  0  0  0  0  0  0  0  0  0  0
    8.1343    9.4813    2.9803 C   0  0  0  0  0  0  0  0  0  0  0  0
    7.7539    9.8940    1.8482 O   0  0  0  0  0  0  0  0  0  0  0  0
    9.5380    8.9849    3.1872 C   0  0  0  0  0  0  0  0  0  0  0  0
    9.7907    7.6992    2.3784 C   0  0  0  0  0  0  0  0  0  0  0  0
   11.2465    7.2300    2.5413 C   0  0  0  0  0  0  0  0  0  0  0  0
   12.1688    8.3642    2.0586 C   0  0  0  0  0  0  0  0  0  0  0  0
   13.6393    8.0180    1.6839 C   0  0  0  0  0  0  0  0  0  0  0  0
   14.5664    9.1884    1.4037 C   0  0  0  0  0  0  0  0  0  0  0  0
   13.8568    6.8408    0.8526 N   0  0  0  0  0  0  0  0  0  0  0  0
   11.9985    9.5919    2.9703 C   0  0  0  0  0  0  0  0  0  0  0  0
   10.5533   10.1011    2.8758 C   0  0  0  0  0  0  0  0  0  0  0  0
  1  2  1  0
  2  3  1  0
  3  4  1  0
  4  5  1  0
  5  6  2  0
  5  7  1  0
  7  8  1  0
  8  9  1  0
  9 10  1  0
 10 11  1  0
 11 12  1  0
 11 13  1  0
 10 14  1  0
 14 15  1  0
 15  7  1  0
M  CHG  1  13   1
M  END
>  <EmbedRMS>  (133) 
0.2000484947854372

>  <Gold.Version>  (133) 
2020.3.0

>  <Gold.Id.Protein>  (133) 
unknown|1q8t_protein|pdb

>  <Gold.PLP.Fitness>  (133) 
42.8089

>  <Gold.PLP.PLP>  (133) 
-34.1152

>  <Gold.PLP.part.hbond>  (133) 
-1.7918

>  <Gold.PLP.part.metal>  (133) 
0.0000

>  <Gold.PLP.part.buried>  (133) 
-2.6877

>  <Gold.PLP.part.nonpolar>  (133) 
-29.7727

>  <Gold.PLP.part.repulsive>  (133) 
0.0853

>  <Gold.PLP.ligand.clash>  (133) 
0.0000

>  <Gold.PLP.ligand.torsion>  (133) 
0.2390

>  <Gold.PLP.Chemscore.Hbond>  (133) 
2.9280

>  <Gold.PLP.Chemscore.CHOScore>  (133) 
0.0000

>  <Gold.PLP.Chemscore.Metal>  (133) 
0.0000

>  <Gold.Chemscore.Hbonds>  (133) 
donor molecule, donor type, donor heavy atom, donor atom, acceptor molecule, acceptor atom, score
      L1  H    13    34       P1  2691  0.93
      L1  H    13    35       P1  2902  2.00

>  <Gold.PLP.Chemscore.Internal.Correction>  (133) 
0.3877

>  <Gold.PLP.Constraint>  (133) 
-0.0000

>  <Gold.Protein.RotatedTorsions>  (133) 
[  681  677  676  673 ] final -160.16 input -179.99 | X-H torsion
[  702  698  697  694 ] final   16.63 input  179.99 | X-H torsion
[ 2577 2569 2568 2566 ] final   85.02 input   -0.13 | X-H torsion
[ 2891 2887 2886 2883 ] final  167.82 input  179.98 | X-H torsion
[ 3175 3171 3170 3167 ] final  -24.27 input -179.99 | X-H torsion
[ 5278 5270 5269 5267 ] final  108.43 input    0.55 | X-H torsion
[  641  637  636  633 ] final -175.50 input  179.99 | X-H torsion
[ 1886 1878 1877 1875 ] final  -85.37 input    1.60 | X-H torsion
[  965  957  956  954 ] final  117.79 input    0.45 | X-H torsion

>  <Gold.Protein.ActiveResidues>  (133) 
 LYS47   THR48   LEU49   GLY50   THR51   GLY52   SER53   PHE54   GLY55   ARG56  
 VAL57   MET58   LEU59   TYR69   ALA70   MET71   LYS72   ILE73   LEU74   GLU91  
 LEU95   VAL104  LYS105  MET118  VAL119  MET120  GLU121  TYR122  VAL123  PRO124 
 GLY125  GLY126  GLU127  MET128  PHE129  TYR164  ASP166  LEU167  LYS168  PRO169 
 GLU170  ASN171  LEU172  LEU173  ILE174  GLN181  VAL182  THR183  ASP184  PHE185 
 GLY186  PHE187  GLY200  THR201  ASN326  PHE327  TYR330  ARG18   ARG19   ASN20  
 ALA21   ILE22   HIS23  

>  <Gold.Protein.RotatedAtoms>  (133) 
   11.3597   19.3428    8.1539 H   0  0  0  0  0  0  0  0  0  0  0  0  # atno 641  bound_to 637 
   16.7592   13.9586    7.2143 H   0  0  0  0  0  0  0  0  0  0  0  0  # atno 681  bound_to 677 
   19.3874   11.8490   -0.8747 H   0  0  0  0  0  0  0  0  0  0  0  0  # atno 702  bound_to 698 
   -7.1651   16.4714    0.0012 H   0  0  0  0  0  0  0  0  0  0  0  0  # atno 965  bound_to 957 
    1.3390   10.5433   10.5783 H   0  0  0  0  0  0  0  0  0  0  0  0  # atno 1886 bound_to 1878
    9.3545    2.3211   -2.7416 H   0  0  0  0  0  0  0  0  0  0  0  0  # atno 2577 bound_to 2569
    7.5241    6.8124    1.3362 H   0  0  0  0  0  0  0  0  0  0  0  0  # atno 2891 bound_to 2887
   19.3075    2.9209   -0.9292 H   0  0  0  0  0  0  0  0  0  0  0  0  # atno 3175 bound_to 3171
   13.5862   10.2403    8.7460 H   0  0  0  0  0  0  0  0  0  0  0  0  # atno 5278 bound_to 5270
   16.9528   12.8842    6.0548 LP  0  0  0  0  0  0  0  0  0  0  0  0  # atno 5914 bound_to 677 
   15.5818   12.9215    6.9411 LP  0  0  0  0  0  0  0  0  0  0  0  0  # atno 5915 bound_to 677 
   20.9054   11.5556   -0.4911 LP  0  0  0  0  0  0  0  0  0  0  0  0  # atno 5920 bound_to 698 
   20.4434   11.6677   -2.0534 LP  0  0  0  0  0  0  0  0  0  0  0  0  # atno 5921 bound_to 698 
   10.2937    3.4172   -3.4135 LP  0  0  0  0  0  0  0  0  0  0  0  0  # atno 5950 bound_to 2569
   10.9274    2.2032   -2.5241 LP  0  0  0  0  0  0  0  0  0  0  0  0  # atno 5951 bound_to 2569
    8.3803    6.0983    0.1989 LP  0  0  0  0  0  0  0  0  0  0  0  0  # atno 5982 bound_to 2887
    7.3759    5.2370    1.1559 LP  0  0  0  0  0  0  0  0  0  0  0  0  # atno 5983 bound_to 2887
   18.5437    2.5536    0.4189 LP  0  0  0  0  0  0  0  0  0  0  0  0  # atno 6000 bound_to 3171
   18.0252    1.9811   -1.0199 LP  0  0  0  0  0  0  0  0  0  0  0  0  # atno 6001 bound_to 3171
   12.6861    9.9006   10.0154 LP  0  0  0  0  0  0  0  0  0  0  0  0  # atno 6004 bound_to 5270
   14.3158    9.8922   10.1184 LP  0  0  0  0  0  0  0  0  0  0  0  0  # atno 6005 bound_to 5270
    9.9313   19.7381    8.7354 LP  0  0  0  0  0  0  0  0  0  0  0  0  # atno 6055 bound_to 637 
   10.0695   18.9920    7.2894 LP  0  0  0  0  0  0  0  0  0  0  0  0  # atno 6056 bound_to 637 
    0.7439   11.9267   11.0955 LP  0  0  0  0  0  0  0  0  0  0  0  0  # atno 6063 bound_to 1878
    2.2319   11.8529   10.4269 LP  0  0  0  0  0  0  0  0  0  0  0  0  # atno 6064 bound_to 1878
   -6.7138   15.3669   -1.0530 LP  0  0  0  0  0  0  0  0  0  0  0  0  # atno 6067 bound_to 957 
   -6.5481   16.9574   -1.3838 LP  0  0  0  0  0  0  0  0  0  0  0  0  # atno 6068 bound_to 957 

>  <STRIFE_LigEff_Score>  (133) 
2.8539266666666667

$$$$
unknown|pharmsElabsTestMulti|sdf|134|dock8
     RDKit          3D

 17 17  0  0  0  0  0  0  0  0999 V2000
    3.8596    9.8035    5.6007 C   0  0  0  0  0  0  0  0  0  0  0  0
    3.8389    8.9286    4.3484 C   0  0  0  0  0  0  0  0  0  0  0  0
    5.1871    8.9413    3.6080 C   0  0  0  0  0  0  0  0  0  0  0  0
    4.9456    8.9745    2.2259 O   0  0  0  0  0  0  0  0  0  0  0  0
    6.0888   10.1232    4.0114 C   0  0  0  0  0  0  0  0  0  0  0  0
    7.4997    9.7458    3.9878 N   0  0  0  0  0  0  0  0  0  0  0  0
    8.1072    9.0861    2.8725 C   0  0  0  0  0  0  0  0  0  0  0  0
    7.4499    8.8991    1.8091 O   0  0  0  0  0  0  0  0  0  0  0  0
    9.5430    8.6345    2.9625 C   0  0  0  0  0  0  0  0  0  0  0  0
    9.9678    8.0299    1.6288 C   0  0  0  0  0  0  0  0  0  0  0  0
   11.3705    7.4517    1.6704 C   0  0  0  0  0  0  0  0  0  0  0  0
   12.3920    8.2786    2.4738 C   0  0  0  0  0  0  0  0  0  0  0  0
   13.8899    8.1378    2.0262 C   0  0  0  0  0  0  0  0  0  0  0  0
   14.9218    7.9676    3.1515 C   0  0  0  0  0  0  0  0  0  0  0  0
   14.0725    7.0926    1.0126 N   0  0  0  0  0  0  0  0  0  0  0  0
   11.9492    9.5850    3.1652 C   0  0  0  0  0  0  0  0  0  0  0  0
   10.4363    9.8243    3.3297 C   0  0  0  0  0  0  0  0  0  0  0  0
  1  2  1  0
  2  3  1  0
  3  4  1  0
  3  5  1  0
  5  6  1  0
  6  7  1  0
  7  8  2  0
  7  9  1  0
  9 10  1  0
 10 11  1  0
 11 12  1  0
 12 13  1  0
 13 14  1  0
 13 15  1  0
 12 16  1  0
 16 17  1  0
 17  9  1  0
M  CHG  1  15   1
M  END
>  <EmbedRMS>  (134) 
0.1692382603345377

>  <Gold.Version>  (134) 
2020.3.0

>  <Gold.Id.Protein>  (134) 
unknown|1q8t_protein|pdb

>  <Gold.PLP.Fitness>  (134) 
48.7174

>  <Gold.PLP.PLP>  (134) 
-39.8988

>  <Gold.PLP.part.hbond>  (134) 
-3.0000

>  <Gold.PLP.part.metal>  (134) 
0.0000

>  <Gold.PLP.part.buried>  (134) 
-3.4450

>  <Gold.PLP.part.nonpolar>  (134) 
-33.0255

>  <Gold.PLP.part.repulsive>  (134) 
0.0651

>  <Gold.PLP.ligand.clash>  (134) 
0.0000

>  <Gold.PLP.ligand.torsion>  (134) 
1.8843

>  <Gold.PLP.Chemscore.Hbond>  (134) 
4.0000

>  <Gold.PLP.Chemscore.CHOScore>  (134) 
0.0000

>  <Gold.PLP.Chemscore.Metal>  (134) 
0.0000

>  <Gold.Chemscore.Hbonds>  (134) 
donor molecule, donor type, donor heavy atom, donor atom, acceptor molecule, acceptor atom, score
      L1  H    15    38       P1  2902  2.00
      L1  H    15    40       P1  2691  1.00
      P1  H  2887  2891       L1     8  1.00

>  <Gold.PLP.Chemscore.Internal.Correction>  (134) 
0.5873

>  <Gold.PLP.Constraint>  (134) 
-0.0000

>  <Gold.Protein.RotatedTorsions>  (134) 
[  681  677  676  673 ] final -161.40 input -179.99 | X-H torsion
[  702  698  697  694 ] final    0.46 input  179.99 | X-H torsion
[ 2577 2569 2568 2566 ] final  -65.83 input   -0.13 | X-H torsion
[ 2891 2887 2886 2883 ] final  154.61 input  179.98 | X-H torsion
[ 3175 3171 3170 3167 ] final  -35.70 input -179.99 | X-H torsion
[ 5278 5270 5269 5267 ] final -100.57 input    0.55 | X-H torsion
[  641  637  636  633 ] final   66.70 input  179.99 | X-H torsion
[ 1886 1878 1877 1875 ] final  141.88 input    1.60 | X-H torsion
[  965  957  956  954 ] final  172.03 input    0.45 | X-H torsion

>  <Gold.Protein.ActiveResidues>  (134) 
 LYS47   THR48   LEU49   GLY50   THR51   GLY52   SER53   PHE54   GLY55   ARG56  
 VAL57   MET58   LEU59   TYR69   ALA70   MET71   LYS72   ILE73   LEU74   GLU91  
 LEU95   VAL104  LYS105  MET118  VAL119  MET120  GLU121  TYR122  VAL123  PRO124 
 GLY125  GLY126  GLU127  MET128  PHE129  TYR164  ASP166  LEU167  LYS168  PRO169 
 GLU170  ASN171  LEU172  LEU173  ILE174  GLN181  VAL182  THR183  ASP184  PHE185 
 GLY186  PHE187  GLY200  THR201  ASN326  PHE327  TYR330  ARG18   ARG19   ASN20  
 ALA21   ILE22   HIS23  

>  <Gold.Protein.RotatedAtoms>  (134) 
    9.9861   19.7119    8.7265 H   0  0  0  0  0  0  0  0  0  0  0  0  # atno 641  bound_to 637 
   16.7754   13.9580    7.2036 H   0  0  0  0  0  0  0  0  0  0  0  0  # atno 681  bound_to 677 
   19.4915   11.8261   -0.6461 H   0  0  0  0  0  0  0  0  0  0  0  0  # atno 702  bound_to 698 
   -6.9419   17.0949   -0.4762 H   0  0  0  0  0  0  0  0  0  0  0  0  # atno 965  bound_to 957 
    0.8961   12.0570   11.0316 H   0  0  0  0  0  0  0  0  0  0  0  0  # atno 1886 bound_to 1878
   10.7279    3.2340   -3.2748 H   0  0  0  0  0  0  0  0  0  0  0  0  # atno 2577 bound_to 2569
    7.6559    6.9006    1.2047 H   0  0  0  0  0  0  0  0  0  0  0  0  # atno 2891 bound_to 2887
   19.3507    2.9745   -0.7646 H   0  0  0  0  0  0  0  0  0  0  0  0  # atno 3175 bound_to 3171
   13.9149    9.8355   10.4008 H   0  0  0  0  0  0  0  0  0  0  0  0  # atno 5278 bound_to 5270
   16.9377   12.8710    6.0511 LP  0  0  0  0  0  0  0  0  0  0  0  0  # atno 5914 bound_to 677 
   15.5799   12.9354    6.9560 LP  0  0  0  0  0  0  0  0  0  0  0  0  # atno 5915 bound_to 677 
   21.0560   11.5331   -0.7084 LP  0  0  0  0  0  0  0  0  0  0  0  0  # atno 5920 bound_to 698 
   20.1833   11.7142   -2.0766 LP  0  0  0  0  0  0  0  0  0  0  0  0  # atno 5921 bound_to 698 
   10.5300    1.9390   -2.3698 LP  0  0  0  0  0  0  0  0  0  0  0  0  # atno 5950 bound_to 2569
    9.2449    2.7201   -3.0063 LP  0  0  0  0  0  0  0  0  0  0  0  0  # atno 5951 bound_to 2569
    8.3442    5.8847    0.1894 LP  0  0  0  0  0  0  0  0  0  0  0  0  # atno 5982 bound_to 2887
    7.2732    5.3578    1.3038 LP  0  0  0  0  0  0  0  0  0  0  0  0  # atno 5983 bound_to 2887
   18.3959    2.4407    0.3926 LP  0  0  0  0  0  0  0  0  0  0  0  0  # atno 6000 bound_to 3171
   18.1275    2.0377   -1.1669 LP  0  0  0  0  0  0  0  0  0  0  0  0  # atno 6001 bound_to 3171
   14.0654   10.2005    8.8578 LP  0  0  0  0  0  0  0  0  0  0  0  0  # atno 6004 bound_to 5270
   12.5906   10.0181    9.5349 LP  0  0  0  0  0  0  0  0  0  0  0  0  # atno 6005 bound_to 5270
   10.0372   19.0007    7.3029 LP  0  0  0  0  0  0  0  0  0  0  0  0  # atno 6055 bound_to 637 
   11.4102   19.3407    8.1189 LP  0  0  0  0  0  0  0  0  0  0  0  0  # atno 6056 bound_to 637 
    2.2884   11.6598   10.3690 LP  0  0  0  0  0  0  0  0  0  0  0  0  # atno 6063 bound_to 1878
    1.1536   10.5264   10.6760 LP  0  0  0  0  0  0  0  0  0  0  0  0  # atno 6064 bound_to 1878
   -7.0630   15.5192   -0.2824 LP  0  0  0  0  0  0  0  0  0  0  0  0  # atno 6067 bound_to 957 
   -6.4339   16.1486   -1.6516 LP  0  0  0  0  0  0  0  0  0  0  0  0  # atno 6068 bound_to 957 

>  <STRIFE_LigEff_Score>  (134) 
2.865729411764706

$$$$
unknown|pharmsElabsTestMulti|sdf|135|dock7
     RDKit          3D

 20 21  0  0  0  0  0  0  0  0999 V2000
   14.5301    6.7792    4.8914 C   0  0  0  0  0  0  0  0  0  0  0  0
   14.0456    8.1854    4.4997 C   0  0  0  0  0  0  0  0  0  0  0  0
   14.8696    8.7168    3.4100 N   0  0  0  0  0  0  0  0  0  0  0  0
   12.5071    8.3403    4.2223 C   0  0  0  0  0  0  0  0  0  0  0  0
   11.9715    7.3992    3.1442 C   0  0  0  0  0  0  0  0  0  0  0  0
   10.4757    7.4954    2.8871 C   0  0  0  0  0  0  0  0  0  0  0  0
    9.9665    8.9166    2.8821 C   0  0  0  0  0  0  0  0  0  0  0  0
    8.5688    9.0580    2.3541 C   0  0  0  0  0  0  0  0  0  0  0  0
    7.9217    7.9858    2.2843 O   0  0  0  0  0  0  0  0  0  0  0  0
    7.9393   10.2808    1.9363 N   0  0  0  0  0  0  0  0  0  0  0  0
    6.6188   10.2480    1.2891 C   0  0  0  0  0  0  0  0  0  0  0  0
    5.5767    9.7315    2.2496 C   0  0  0  0  0  0  0  0  0  0  0  0
    4.5283    8.8995    1.8153 C   0  0  0  0  0  0  0  0  0  0  0  0
    3.5439    8.4783    2.7167 C   0  0  0  0  0  0  0  0  0  0  0  0
    3.6004    8.8805    4.0542 C   0  0  0  0  0  0  0  0  0  0  0  0
    4.6401    9.7065    4.4944 C   0  0  0  0  0  0  0  0  0  0  0  0
    4.6904   10.1022    5.8283 O   0  0  0  0  0  0  0  0  0  0  0  0
    5.6219   10.1333    3.5919 C   0  0  0  0  0  0  0  0  0  0  0  0
   10.3825    9.8067    4.0316 C   0  0  0  0  0  0  0  0  0  0  0  0
   11.9005    9.7567    4.2681 C   0  0  0  0  0  0  0  0  0  0  0  0
  1  2  1  0
  2  3  1  0
  2  4  1  0
  4  5  1  0
  5  6  1  0
  6  7  1  0
  7  8  1  0
  8  9  2  0
  8 10  1  0
 10 11  1  0
 11 12  1  0
 12 13  2  0
 13 14  1  0
 14 15  2  0
 15 16  1  0
 16 17  1  0
 16 18  2  0
  7 19  1  0
 19 20  1  0
 20  4  1  0
 18 12  1  0
M  CHG  1   3   1
M  END
>  <EmbedRMS>  (135) 
0.24874902131530774

>  <Gold.Version>  (135) 
2020.3.0

>  <Gold.Id.Protein>  (135) 
unknown|1q8t_protein|pdb

>  <Gold.PLP.Fitness>  (135) 
54.8168

>  <Gold.PLP.PLP>  (135) 
-49.4558

>  <Gold.PLP.part.hbond>  (135) 
-1.6387

>  <Gold.PLP.part.metal>  (135) 
0.0000

>  <Gold.PLP.part.buried>  (135) 
-4.1742

>  <Gold.PLP.part.nonpolar>  (135) 
-44.9781

>  <Gold.PLP.part.repulsive>  (135) 
0.0122

>  <Gold.PLP.ligand.clash>  (135) 
0.0000

>  <Gold.PLP.ligand.torsion>  (135) 
0.7231

>  <Gold.PLP.Chemscore.Hbond>  (135) 
2.0000

>  <Gold.PLP.Chemscore.CHOScore>  (135) 
0.0000

>  <Gold.PLP.Chemscore.Metal>  (135) 
0.0000

>  <Gold.Chemscore.Hbonds>  (135) 
donor molecule, donor type, donor heavy atom, donor atom, acceptor molecule, acceptor atom, score
      L1  H     3    27       P1   675  1.00
      P1  H  2887  2891       L1     9  1.00

>  <Gold.PLP.Chemscore.Internal.Correction>  (135) 
0.8072

>  <Gold.PLP.Constraint>  (135) 
-0.0000

>  <Gold.Protein.RotatedTorsions>  (135) 
[  681  677  676  673 ] final -148.85 input -179.99 | X-H torsion
[  702  698  697  694 ] final  114.64 input  179.99 | X-H torsion
[ 2577 2569 2568 2566 ] final   21.19 input   -0.13 | X-H torsion
[ 2891 2887 2886 2883 ] final  140.40 input  179.98 | X-H torsion
[ 3175 3171 3170 3167 ] final   54.50 input -179.99 | X-H torsion
[ 5278 5270 5269 5267 ] final  120.84 input    0.55 | X-H torsion
[  641  637  636  633 ] final -129.57 input  179.99 | X-H torsion
[ 1886 1878 1877 1875 ] final -125.40 input    1.60 | X-H torsion
[  965  957  956  954 ] final -148.48 input    0.45 | X-H torsion

>  <Gold.Protein.ActiveResidues>  (135) 
 LYS47   THR48   LEU49   GLY50   THR51   GLY52   SER53   PHE54   GLY55   ARG56  
 VAL57   MET58   LEU59   TYR69   ALA70   MET71   LYS72   ILE73   LEU74   GLU91  
 LEU95   VAL104  LYS105  MET118  VAL119  MET120  GLU121  TYR122  VAL123  PRO124 
 GLY125  GLY126  GLU127  MET128  PHE129  TYR164  ASP166  LEU167  LYS168  PRO169 
 GLU170  ASN171  LEU172  LEU173  ILE174  GLN181  VAL182  THR183  ASP184  PHE185 
 GLY186  PHE187  GLY200  THR201  ASN326  PHE327  TYR330  ARG18   ARG19   ASN20  
 ALA21   ILE22   HIS23  

>  <Gold.Protein.RotatedAtoms>  (135) 
   11.1429   19.0504    7.5576 H   0  0  0  0  0  0  0  0  0  0  0  0  # atno 641  bound_to 637 
   16.6054   13.9493    7.3003 H   0  0  0  0  0  0  0  0  0  0  0  0  # atno 681  bound_to 677 
   20.0994   11.7449   -2.0204 H   0  0  0  0  0  0  0  0  0  0  0  0  # atno 702  bound_to 698 
   -6.6914   17.1258   -1.0260 H   0  0  0  0  0  0  0  0  0  0  0  0  # atno 965  bound_to 957 
    0.8359   10.7765   10.8398 H   0  0  0  0  0  0  0  0  0  0  0  0  # atno 1886 bound_to 1878
    9.5029    3.0941   -3.2675 H   0  0  0  0  0  0  0  0  0  0  0  0  # atno 2577 bound_to 2569
    7.8030    6.9459    1.0452 H   0  0  0  0  0  0  0  0  0  0  0  0  # atno 2891 bound_to 2887
   18.4942    2.2608   -1.3706 H   0  0  0  0  0  0  0  0  0  0  0  0  # atno 3175 bound_to 3171
   13.7770   10.2342    8.7785 H   0  0  0  0  0  0  0  0  0  0  0  0  # atno 5278 bound_to 5270
   17.0788   13.0118    6.1032 LP  0  0  0  0  0  0  0  0  0  0  0  0  # atno 5914 bound_to 677 
   15.6177   12.8037    6.8021 LP  0  0  0  0  0  0  0  0  0  0  0  0  # atno 5915 bound_to 677 
   19.5052   11.8048   -0.5436 LP  0  0  0  0  0  0  0  0  0  0  0  0  # atno 5920 bound_to 698 
   21.0947   11.5279   -0.7957 LP  0  0  0  0  0  0  0  0  0  0  0  0  # atno 5921 bound_to 698 
   11.0665    2.9281   -3.0172 LP  0  0  0  0  0  0  0  0  0  0  0  0  # atno 5950 bound_to 2569
    9.9983    1.8783   -2.3666 LP  0  0  0  0  0  0  0  0  0  0  0  0  # atno 5951 bound_to 2569
    8.2711    5.6656    0.2217 LP  0  0  0  0  0  0  0  0  0  0  0  0  # atno 5982 bound_to 2887
    7.1916    5.5291    1.4394 LP  0  0  0  0  0  0  0  0  0  0  0  0  # atno 5983 bound_to 2887
   19.3562    3.0616   -0.2976 LP  0  0  0  0  0  0  0  0  0  0  0  0  # atno 6000 bound_to 3171
   18.0686    2.1679    0.1610 LP  0  0  0  0  0  0  0  0  0  0  0  0  # atno 6001 bound_to 3171
   12.6157    9.9457    9.8295 LP  0  0  0  0  0  0  0  0  0  0  0  0  # atno 6004 bound_to 5270
   14.1854    9.8534   10.2701 LP  0  0  0  0  0  0  0  0  0  0  0  0  # atno 6005 bound_to 5270
   10.6503   19.7753    8.8868 LP  0  0  0  0  0  0  0  0  0  0  0  0  # atno 6055 bound_to 637 
    9.5788   19.2628    7.7660 LP  0  0  0  0  0  0  0  0  0  0  0  0  # atno 6056 bound_to 637 
    1.2376   12.3137   10.9438 LP  0  0  0  0  0  0  0  0  0  0  0  0  # atno 6063 bound_to 1878
    2.2677   11.2205   10.3032 LP  0  0  0  0  0  0  0  0  0  0  0  0  # atno 6064 bound_to 1878
   -7.2023   16.0538    0.0347 LP  0  0  0  0  0  0  0  0  0  0  0  0  # atno 6067 bound_to 957 
   -6.5585   15.5814   -1.3897 LP  0  0  0  0  0  0  0  0  0  0  0  0  # atno 6068 bound_to 957 

>  <STRIFE_LigEff_Score>  (135) 
2.74084

$$$$
unknown|pharmsElabsTestMulti|sdf|136|dock5
     RDKit          3D

 18 18  0  0  0  0  0  0  0  0999 V2000
   14.8990    9.0290    1.4041 C   0  0  0  0  0  0  0  0  0  0  0  0
   13.9363    7.8711    1.6042 C   0  0  0  0  0  0  0  0  0  0  0  0
   14.1124    6.7518    0.6875 N   0  0  0  0  0  0  0  0  0  0  0  0
   12.4791    8.2352    2.0133 C   0  0  0  0  0  0  0  0  0  0  0  0
   11.5667    7.1197    2.5544 C   0  0  0  0  0  0  0  0  0  0  0  0
   10.1087    7.5928    2.4251 C   0  0  0  0  0  0  0  0  0  0  0  0
    9.8866    8.9018    3.2069 C   0  0  0  0  0  0  0  0  0  0  0  0
    8.4809    9.4005    3.0255 C   0  0  0  0  0  0  0  0  0  0  0  0
    8.0129   10.2959    3.7851 O   0  0  0  0  0  0  0  0  0  0  0  0
    7.6660    8.8226    2.0011 N   0  0  0  0  0  0  0  0  0  0  0  0
    6.3168    9.2915    1.7214 C   0  0  0  0  0  0  0  0  0  0  0  0
    5.2930    8.3367    2.3315 C   0  0  0  0  0  0  0  0  0  0  0  0
    4.1549    9.0899    2.8655 N   0  0  0  0  0  0  0  0  0  0  0  0
    3.1982    9.7287    1.9635 C   0  0  0  0  0  0  0  0  0  0  0  0
    3.9226    9.1672    4.2804 C   0  0  0  0  0  0  0  0  0  0  0  0
    2.9445    9.8138    4.7420 O   0  0  0  0  0  0  0  0  0  0  0  0
   10.8975   10.0025    2.8325 C   0  0  0  0  0  0  0  0  0  0  0  0
   12.3425    9.4879    2.8961 C   0  0  0  0  0  0  0  0  0  0  0  0
  1  2  1  0
  2  3  1  0
  2  4  1  0
  4  5  1  0
  5  6  1  0
  6  7  1  0
  7  8  1  0
  8  9  2  0
  8 10  1  0
 10 11  1  0
 11 12  1  0
 12 13  1  0
 13 14  1  0
 13 15  1  0
 15 16  2  0
  7 17  1  0
 17 18  1  0
 18  4  1  0
M  CHG  1   3   1
M  END
>  <EmbedRMS>  (136) 
0.18265891910600293

>  <Gold.Version>  (136) 
2020.3.0

>  <Gold.Id.Protein>  (136) 
unknown|1q8t_protein|pdb

>  <Gold.PLP.Fitness>  (136) 
50.5038

>  <Gold.PLP.PLP>  (136) 
-37.3546

>  <Gold.PLP.part.hbond>  (136) 
-4.0000

>  <Gold.PLP.part.metal>  (136) 
0.0000

>  <Gold.PLP.part.buried>  (136) 
-1.3386

>  <Gold.PLP.part.nonpolar>  (136) 
-32.9456

>  <Gold.PLP.part.repulsive>  (136) 
0.2512

>  <Gold.PLP.ligand.clash>  (136) 
0.0000

>  <Gold.PLP.ligand.torsion>  (136) 
0.9402

>  <Gold.PLP.Chemscore.Hbond>  (136) 
4.8723

>  <Gold.PLP.Chemscore.CHOScore>  (136) 
0.0000

>  <Gold.PLP.Chemscore.Metal>  (136) 
0.0000

>  <Gold.Chemscore.Hbonds>  (136) 
donor molecule, donor type, donor heavy atom, donor atom, acceptor molecule, acceptor atom, score
      L1  H     3    23       P1  2902  2.00
      L1  H     3    24       P1  2691  1.00
      L1  H    10    32       P1  2887  0.87
      P1  H  1888  1903       L1    16  1.00

>  <Gold.PLP.Chemscore.Internal.Correction>  (136) 
0.4127

>  <Gold.PLP.Constraint>  (136) 
-0.0000

>  <Gold.Protein.RotatedTorsions>  (136) 
[  681  677  676  673 ] final   75.66 input -179.99 | X-H torsion
[  702  698  697  694 ] final   95.88 input  179.99 | X-H torsion
[ 2577 2569 2568 2566 ] final -162.68 input   -0.13 | X-H torsion
[ 2891 2887 2886 2883 ] final  -29.68 input  179.98 | X-H torsion
[ 3175 3171 3170 3167 ] final -168.83 input -179.99 | X-H torsion
[ 5278 5270 5269 5267 ] final  -42.80 input    0.55 | X-H torsion
[  641  637  636  633 ] final   96.59 input  179.99 | X-H torsion
[ 1886 1878 1877 1875 ] final   68.53 input    1.60 | X-H torsion
[  965  957  956  954 ] final   76.17 input    0.45 | X-H torsion

>  <Gold.Protein.ActiveResidues>  (136) 
 LYS47   THR48   LEU49   GLY50   THR51   GLY52   SER53   PHE54   GLY55   ARG56  
 VAL57   MET58   LEU59   TYR69   ALA70   MET71   LYS72   ILE73   LEU74   GLU91  
 LEU95   VAL104  LYS105  MET118  VAL119  MET120  GLU121  TYR122  VAL123  PRO124 
 GLY125  GLY126  GLU127  MET128  PHE129  TYR164  ASP166  LEU167  LYS168  PRO169 
 GLU170  ASN171  LEU172  LEU173  ILE174  GLN181  VAL182  THR183  ASP184  PHE185 
 GLY186  PHE187  GLY200  THR201  ASN326  PHE327  TYR330  ARG18   ARG19   ASN20  
 ALA21   ILE22   HIS23  

>  <Gold.Protein.RotatedAtoms>  (136) 
   10.4254   19.7564    8.8616 H   0  0  0  0  0  0  0  0  0  0  0  0  # atno 641  bound_to 637 
   16.8711   12.8723    6.0680 H   0  0  0  0  0  0  0  0  0  0  0  0  # atno 681  bound_to 677 
   19.8259   11.7916   -1.9288 H   0  0  0  0  0  0  0  0  0  0  0  0  # atno 702  bound_to 698 
   -7.1346   15.8410   -0.0789 H   0  0  0  0  0  0  0  0  0  0  0  0  # atno 965  bound_to 957 
    1.8747   12.2031   10.6251 H   0  0  0  0  0  0  0  0  0  0  0  0  # atno 1886 bound_to 1878
   10.8120    2.1386   -2.5080 H   0  0  0  0  0  0  0  0  0  0  0  0  # atno 2577 bound_to 2569
    7.7959    5.2081    0.6371 H   0  0  0  0  0  0  0  0  0  0  0  0  # atno 2891 bound_to 2887
   18.2682    2.3093    0.2781 H   0  0  0  0  0  0  0  0  0  0  0  0  # atno 3175 bound_to 3171
   13.0508    9.8396   10.3480 H   0  0  0  0  0  0  0  0  0  0  0  0  # atno 5278 bound_to 5270
   15.5770   12.9688    6.9910 LP  0  0  0  0  0  0  0  0  0  0  0  0  # atno 5914 bound_to 677 
   16.8399   13.9803    7.2114 LP  0  0  0  0  0  0  0  0  0  0  0  0  # atno 5915 bound_to 677 
   19.7303   11.7610   -0.3391 LP  0  0  0  0  0  0  0  0  0  0  0  0  # atno 5920 bound_to 698 
   21.1572   11.5227   -1.0966 LP  0  0  0  0  0  0  0  0  0  0  0  0  # atno 5921 bound_to 698 
    9.2687    2.4108   -2.7898 LP  0  0  0  0  0  0  0  0  0  0  0  0  # atno 5950 bound_to 2569
   10.4177    3.4017   -3.3936 LP  0  0  0  0  0  0  0  0  0  0  0  0  # atno 5951 bound_to 2569
    7.1948    6.3061    1.6218 LP  0  0  0  0  0  0  0  0  0  0  0  0  # atno 5982 bound_to 2887
    8.2754    6.7175    0.4687 LP  0  0  0  0  0  0  0  0  0  0  0  0  # atno 5983 bound_to 2887
   18.2694    2.1249   -1.3036 LP  0  0  0  0  0  0  0  0  0  0  0  0  # atno 6000 bound_to 3171
   19.3932    3.0536   -0.5680 LP  0  0  0  0  0  0  0  0  0  0  0  0  # atno 6001 bound_to 3171
   14.4723   10.0094    9.6499 LP  0  0  0  0  0  0  0  0  0  0  0  0  # atno 6004 bound_to 5270
   13.0928   10.2050    8.7983 LP  0  0  0  0  0  0  0  0  0  0  0  0  # atno 6005 bound_to 5270
    9.6779   19.1654    7.5861 LP  0  0  0  0  0  0  0  0  0  0  0  0  # atno 6055 bound_to 637 
   11.3069   19.1292    7.6934 LP  0  0  0  0  0  0  0  0  0  0  0  0  # atno 6056 bound_to 637 
    1.8366   10.6285   10.3923 LP  0  0  0  0  0  0  0  0  0  0  0  0  # atno 6063 bound_to 1878
    0.5751   11.4039   11.0807 LP  0  0  0  0  0  0  0  0  0  0  0  0  # atno 6064 bound_to 1878
   -6.4910   15.7769   -1.5338 LP  0  0  0  0  0  0  0  0  0  0  0  0  # atno 6067 bound_to 957 
   -6.8029   17.2114   -0.8186 LP  0  0  0  0  0  0  0  0  0  0  0  0  # atno 6068 bound_to 957 

>  <STRIFE_LigEff_Score>  (136) 
2.8057666666666665

$$$$
unknown|pharmsElabsTestMulti|sdf|137|dock7
     RDKit          3D

 18 18  0  0  0  0  0  0  0  0999 V2000
    3.9085   10.0916    5.8044 C   0  0  0  0  0  0  0  0  0  0  0  0
    3.9283    9.6291    4.3848 C   0  0  0  0  0  0  0  0  0  0  0  0
    2.8435    9.5089    3.7532 O   0  0  0  0  0  0  0  0  0  0  0  0
    5.1801    9.3485    3.7433 N   0  0  0  0  0  0  0  0  0  0  0  0
    5.2714    8.9046    2.3539 C   0  0  0  0  0  0  0  0  0  0  0  0
    5.8904    9.9957    1.4665 C   0  0  0  0  0  0  0  0  0  0  0  0
    7.3293    9.7554    1.2829 N   0  0  0  0  0  0  0  0  0  0  0  0
    8.1676    9.4870    2.4192 C   0  0  0  0  0  0  0  0  0  0  0  0
    7.6781    9.5745    3.5725 O   0  0  0  0  0  0  0  0  0  0  0  0
    9.6071    9.0707    2.3651 C   0  0  0  0  0  0  0  0  0  0  0  0
    9.8356    7.5618    2.2485 C   0  0  0  0  0  0  0  0  0  0  0  0
   11.3105    7.1291    2.3789 C   0  0  0  0  0  0  0  0  0  0  0  0
   12.2608    8.2693    1.9806 C   0  0  0  0  0  0  0  0  0  0  0  0
   13.7517    7.9085    1.6970 C   0  0  0  0  0  0  0  0  0  0  0  0
   14.7290    9.0655    1.5750 C   0  0  0  0  0  0  0  0  0  0  0  0
   14.0116    6.7904    0.7967 N   0  0  0  0  0  0  0  0  0  0  0  0
   12.0819    9.4549    2.9510 C   0  0  0  0  0  0  0  0  0  0  0  0
   10.6251    9.9517    3.0717 C   0  0  0  0  0  0  0  0  0  0  0  0
  1  2  1  0
  2  3  2  0
  2  4  1  0
  4  5  1  0
  5  6  1  0
  6  7  1  0
  7  8  1  0
  8  9  2  0
  8 10  1  0
 10 11  1  0
 11 12  1  0
 12 13  1  0
 13 14  1  0
 14 15  1  0
 14 16  1  0
 13 17  1  0
 17 18  1  0
 18 10  1  0
M  CHG  1  16   1
M  END
>  <EmbedRMS>  (137) 
0.2509587523478319

>  <Gold.Version>  (137) 
2020.3.0

>  <Gold.Id.Protein>  (137) 
unknown|1q8t_protein|pdb

>  <Gold.PLP.Fitness>  (137) 
49.9269

>  <Gold.PLP.PLP>  (137) 
-38.8962

>  <Gold.PLP.part.hbond>  (137) 
-2.9363

>  <Gold.PLP.part.metal>  (137) 
0.0000

>  <Gold.PLP.part.buried>  (137) 
-3.8262

>  <Gold.PLP.part.nonpolar>  (137) 
-33.2643

>  <Gold.PLP.part.repulsive>  (137) 
0.2488

>  <Gold.PLP.ligand.clash>  (137) 
0.0000

>  <Gold.PLP.ligand.torsion>  (137) 
0.8954

>  <Gold.PLP.Chemscore.Hbond>  (137) 
3.9200

>  <Gold.PLP.Chemscore.CHOScore>  (137) 
0.0000

>  <Gold.PLP.Chemscore.Metal>  (137) 
0.0000

>  <Gold.Chemscore.Hbonds>  (137) 
donor molecule, donor type, donor heavy atom, donor atom, acceptor molecule, acceptor atom, score
      L1  H    16    39       P1  2691  0.99
      L1  H    16    40       P1  2902  2.00
      P1  H  1888  1903       L1     3  0.93

>  <Gold.PLP.Chemscore.Internal.Correction>  (137) 
1.0616

>  <Gold.PLP.Constraint>  (137) 
-0.0000

>  <Gold.Protein.RotatedTorsions>  (137) 
[  681  677  676  673 ] final   -4.69 input -179.99 | X-H torsion
[  702  698  697  694 ] final -101.73 input  179.99 | X-H torsion
[ 2577 2569 2568 2566 ] final   -9.23 input   -0.13 | X-H torsion
[ 2891 2887 2886 2883 ] final  -21.90 input  179.98 | X-H torsion
[ 3175 3171 3170 3167 ] final   32.95 input -179.99 | X-H torsion
[ 5278 5270 5269 5267 ] final  -27.11 input    0.55 | X-H torsion
[  641  637  636  633 ] final  -24.61 input  179.99 | X-H torsion
[ 1886 1878 1877 1875 ] final   51.07 input    1.60 | X-H torsion
[  965  957  956  954 ] final -100.28 input    0.45 | X-H torsion

>  <Gold.Protein.ActiveResidues>  (137) 
 LYS47   THR48   LEU49   GLY50   THR51   GLY52   SER53   PHE54   GLY55   ARG56  
 VAL57   MET58   LEU59   TYR69   ALA70   MET71   LYS72   ILE73   LEU74   GLU91  
 LEU95   VAL104  LYS105  MET118  VAL119  MET120  GLU121  TYR122  VAL123  PRO124 
 GLY125  GLY126  GLU127  MET128  PHE129  TYR164  ASP166  LEU167  LYS168  PRO169 
 GLU170  ASN171  LEU172  LEU173  ILE174  GLN181  VAL182  THR183  ASP184  PHE185 
 GLY186  PHE187  GLY200  THR201  ASN326  PHE327  TYR330  ARG18   ARG19   ASN20  
 ALA21   ILE22   HIS23  

>  <Gold.Protein.RotatedAtoms>  (137) 
    9.7272   19.1531    7.6037 H   0  0  0  0  0  0  0  0  0  0  0  0  # atno 641  bound_to 637 
   15.8231   12.6596    6.5063 H   0  0  0  0  0  0  0  0  0  0  0  0  # atno 681  bound_to 677 
   20.8574   11.5812   -0.5042 H   0  0  0  0  0  0  0  0  0  0  0  0  # atno 702  bound_to 698 
   -6.4663   16.6469   -1.5305 H   0  0  0  0  0  0  0  0  0  0  0  0  # atno 965  bound_to 957 
    2.0619   12.0398   10.5148 H   0  0  0  0  0  0  0  0  0  0  0  0  # atno 1886 bound_to 1878
    9.8924    3.3224   -3.3975 H   0  0  0  0  0  0  0  0  0  0  0  0  # atno 2577 bound_to 2569
    7.8756    5.2466    0.5539 H   0  0  0  0  0  0  0  0  0  0  0  0  # atno 2891 bound_to 2887
   18.7641    2.4564   -1.4032 H   0  0  0  0  0  0  0  0  0  0  0  0  # atno 3175 bound_to 3171
   12.8639    9.8755   10.1942 H   0  0  0  0  0  0  0  0  0  0  0  0  # atno 5278 bound_to 5270
   16.2600   13.8626    7.4540 LP  0  0  0  0  0  0  0  0  0  0  0  0  # atno 5914 bound_to 677 
   17.2599   13.3103    6.2870 LP  0  0  0  0  0  0  0  0  0  0  0  0  # atno 5915 bound_to 677 
   20.4691   11.6630   -2.0469 LP  0  0  0  0  0  0  0  0  0  0  0  0  # atno 5920 bound_to 698 
   19.3334   11.8419   -0.8873 LP  0  0  0  0  0  0  0  0  0  0  0  0  # atno 5921 bound_to 698 
   11.0996    2.5238   -2.7341 LP  0  0  0  0  0  0  0  0  0  0  0  0  # atno 5950 bound_to 2569
    9.5550    2.0422   -2.5129 LP  0  0  0  0  0  0  0  0  0  0  0  0  # atno 5951 bound_to 2569
    7.1636    6.1822    1.6282 LP  0  0  0  0  0  0  0  0  0  0  0  0  # atno 5982 bound_to 2887
    8.2225    6.8010    0.5499 LP  0  0  0  0  0  0  0  0  0  0  0  0  # atno 5983 bound_to 2887
   19.2193    3.0020    0.0218 LP  0  0  0  0  0  0  0  0  0  0  0  0  # atno 6000 bound_to 3171
   17.9215    2.0216   -0.1240 LP  0  0  0  0  0  0  0  0  0  0  0  0  # atno 6001 bound_to 3171
   14.4268    9.9482    9.8958 LP  0  0  0  0  0  0  0  0  0  0  0  0  # atno 6004 bound_to 5270
   13.3350   10.2283    8.7142 LP  0  0  0  0  0  0  0  0  0  0  0  0  # atno 6005 bound_to 5270
   11.3158   19.1369    7.7094 LP  0  0  0  0  0  0  0  0  0  0  0  0  # atno 6055 bound_to 637 
   10.4043   19.7931    8.8948 LP  0  0  0  0  0  0  0  0  0  0  0  0  # atno 6056 bound_to 637 
    1.5880   10.5200   10.4834 LP  0  0  0  0  0  0  0  0  0  0  0  0  # atno 6063 bound_to 1878
    0.6268   11.6843   11.1058 LP  0  0  0  0  0  0  0  0  0  0  0  0  # atno 6064 bound_to 1878
   -7.1359   16.8098   -0.0952 LP  0  0  0  0  0  0  0  0  0  0  0  0  # atno 6067 bound_to 957 
   -6.8619   15.3297   -0.7284 LP  0  0  0  0  0  0  0  0  0  0  0  0  # atno 6068 bound_to 957 

>  <STRIFE_LigEff_Score>  (137) 
2.773716666666667

$$$$
unknown|pharmsElabsTestMulti|sdf|138|dock5
     RDKit          3D

 18 18  0  0  0  0  0  0  0  0999 V2000
    3.6007    8.9001    1.7113 C   0  0  0  0  0  0  0  0  0  0  0  0
    4.4800    8.9693    2.8705 N   0  0  0  0  0  0  0  0  0  0  0  0
    4.0166    9.4355    4.1429 C   0  0  0  0  0  0  0  0  0  0  0  0
    2.8195    9.8028    4.2895 O   0  0  0  0  0  0  0  0  0  0  0  0
    4.9606    9.5260    5.3025 C   0  0  0  0  0  0  0  0  0  0  0  0
    6.1592   10.4164    4.9666 C   0  0  0  0  0  0  0  0  0  0  0  0
    7.3691    9.6192    4.7877 N   0  0  0  0  0  0  0  0  0  0  0  0
    7.9124    9.3298    3.4939 C   0  0  0  0  0  0  0  0  0  0  0  0
    7.3400    9.7600    2.4532 O   0  0  0  0  0  0  0  0  0  0  0  0
    9.1807    8.5276    3.3819 C   0  0  0  0  0  0  0  0  0  0  0  0
    9.4092    8.0925    1.9358 C   0  0  0  0  0  0  0  0  0  0  0  0
   10.6041    7.1576    1.8153 C   0  0  0  0  0  0  0  0  0  0  0  0
   11.8727    7.5872    2.5995 C   0  0  0  0  0  0  0  0  0  0  0  0
   13.2040    7.7847    1.8481 C   0  0  0  0  0  0  0  0  0  0  0  0
   14.4951    7.8160    2.6657 C   0  0  0  0  0  0  0  0  0  0  0  0
   13.1498    8.9119    0.9071 N   0  0  0  0  0  0  0  0  0  0  0  0
   11.6803    8.5670    3.7968 C   0  0  0  0  0  0  0  0  0  0  0  0
   10.3737    9.3561    3.8470 C   0  0  0  0  0  0  0  0  0  0  0  0
  1  2  1  0
  2  3  1  0
  3  4  2  0
  3  5  1  0
  5  6  1  0
  6  7  1  0
  7  8  1  0
  8  9  2  0
  8 10  1  0
 10 11  1  0
 11 12  1  0
 12 13  1  0
 13 14  1  0
 14 15  1  0
 14 16  1  0
 13 17  1  0
 17 18  1  0
 18 10  1  0
M  CHG  1  16   1
M  END
>  <EmbedRMS>  (138) 
0.20180190035783102

>  <Gold.Version>  (138) 
2020.3.0

>  <Gold.Id.Protein>  (138) 
unknown|1q8t_protein|pdb

>  <Gold.PLP.Fitness>  (138) 
51.5145

>  <Gold.PLP.PLP>  (138) 
-43.7439

>  <Gold.PLP.part.hbond>  (138) 
-2.0000

>  <Gold.PLP.part.metal>  (138) 
0.0000

>  <Gold.PLP.part.buried>  (138) 
-4.9890

>  <Gold.PLP.part.nonpolar>  (138) 
-35.9694

>  <Gold.PLP.part.repulsive>  (138) 
0.1772

>  <Gold.PLP.ligand.clash>  (138) 
0.0000

>  <Gold.PLP.ligand.torsion>  (138) 
0.9061

>  <Gold.PLP.Chemscore.Hbond>  (138) 
3.0000

>  <Gold.PLP.Chemscore.CHOScore>  (138) 
0.0000

>  <Gold.PLP.Chemscore.Metal>  (138) 
0.0000

>  <Gold.Chemscore.Hbonds>  (138) 
donor molecule, donor type, donor heavy atom, donor atom, acceptor molecule, acceptor atom, score
      L1  H    16    39       P1  2902  2.00
      P1  H  1888  1903       L1     4  1.00

>  <Gold.PLP.Chemscore.Internal.Correction>  (138) 
0.5829

>  <Gold.PLP.Constraint>  (138) 
-0.0000

>  <Gold.Protein.RotatedTorsions>  (138) 
[  681  677  676  673 ] final -157.57 input -179.99 | X-H torsion
[  702  698  697  694 ] final  158.16 input  179.99 | X-H torsion
[ 2577 2569 2568 2566 ] final  -59.03 input   -0.13 | X-H torsion
[ 2891 2887 2886 2883 ] final -108.56 input  179.98 | X-H torsion
[ 3175 3171 3170 3167 ] final -101.73 input -179.99 | X-H torsion
[ 5278 5270 5269 5267 ] final  144.55 input    0.55 | X-H torsion
[  641  637  636  633 ] final -156.31 input  179.99 | X-H torsion
[ 1886 1878 1877 1875 ] final  125.24 input    1.60 | X-H torsion
[  965  957  956  954 ] final -106.03 input    0.45 | X-H torsion

>  <Gold.Protein.ActiveResidues>  (138) 
 LYS47   THR48   LEU49   GLY50   THR51   GLY52   SER53   PHE54   GLY55   ARG56  
 VAL57   MET58   LEU59   TYR69   ALA70   MET71   LYS72   ILE73   LEU74   GLU91  
 LEU95   VAL104  LYS105  MET118  VAL119  MET120  GLU121  TYR122  VAL123  PRO124 
 GLY125  GLY126  GLU127  MET128  PHE129  TYR164  ASP166  LEU167  LYS168  PRO169 
 GLU170  ASN171  LEU172  LEU173  ILE174  GLN181  VAL182  THR183  ASP184  PHE185 
 GLY186  PHE187  GLY200  THR201  ASN326  PHE327  TYR330  ARG18   ARG19   ASN20  
 ALA21   ILE22   HIS23  

>  <Gold.Protein.RotatedAtoms>  (138) 
   11.3352   19.2086    7.8885 H   0  0  0  0  0  0  0  0  0  0  0  0  # atno 641  bound_to 637 
   16.7249   13.9588    7.2357 H   0  0  0  0  0  0  0  0  0  0  0  0  # atno 681  bound_to 677 
   20.7367   11.6290   -1.8723 H   0  0  0  0  0  0  0  0  0  0  0  0  # atno 702  bound_to 698 
   -6.4831   16.7264   -1.4921 H   0  0  0  0  0  0  0  0  0  0  0  0  # atno 965  bound_to 957 
    1.0967   12.2086   10.9691 H   0  0  0  0  0  0  0  0  0  0  0  0  # atno 1886 bound_to 1878
   10.6406    3.2805   -3.3135 H   0  0  0  0  0  0  0  0  0  0  0  0  # atno 2577 bound_to 2569
    7.1755    5.6775    1.4681 H   0  0  0  0  0  0  0  0  0  0  0  0  # atno 2891 bound_to 2887
   19.0656    2.8851    0.1645 H   0  0  0  0  0  0  0  0  0  0  0  0  # atno 3175 bound_to 3171
   14.1025   10.1963    8.9462 H   0  0  0  0  0  0  0  0  0  0  0  0  # atno 5278 bound_to 5270
   16.9836   12.9123    6.0636 LP  0  0  0  0  0  0  0  0  0  0  0  0  # atno 5914 bound_to 677 
   15.5871   12.8932    6.9098 LP  0  0  0  0  0  0  0  0  0  0  0  0  # atno 5915 bound_to 677 
   19.3048   11.8533   -1.2115 LP  0  0  0  0  0  0  0  0  0  0  0  0  # atno 5920 bound_to 698 
   20.6247   11.6014   -0.2836 LP  0  0  0  0  0  0  0  0  0  0  0  0  # atno 5921 bound_to 698 
   10.6308    1.9819   -2.3922 LP  0  0  0  0  0  0  0  0  0  0  0  0  # atno 5950 bound_to 2569
    9.2361    2.6283   -2.9432 LP  0  0  0  0  0  0  0  0  0  0  0  0  # atno 5951 bound_to 2569
    7.9145    6.9905    0.9521 LP  0  0  0  0  0  0  0  0  0  0  0  0  # atno 5982 bound_to 2887
    8.2085    5.5391    0.2639 LP  0  0  0  0  0  0  0  0  0  0  0  0  # atno 5983 bound_to 2887
   17.8776    1.9592   -0.3522 LP  0  0  0  0  0  0  0  0  0  0  0  0  # atno 6000 bound_to 3171
   18.9458    2.6133   -1.3999 LP  0  0  0  0  0  0  0  0  0  0  0  0  # atno 6001 bound_to 3171
   12.6011   10.0383    9.4537 LP  0  0  0  0  0  0  0  0  0  0  0  0  # atno 6004 bound_to 5270
   13.8574    9.8008   10.4695 LP  0  0  0  0  0  0  0  0  0  0  0  0  # atno 6005 bound_to 5270
   10.2151   19.7865    8.8613 LP  0  0  0  0  0  0  0  0  0  0  0  0  # atno 6055 bound_to 637 
    9.8116   19.0849    7.4430 LP  0  0  0  0  0  0  0  0  0  0  0  0  # atno 6056 bound_to 637 
    2.2990   11.3919   10.3187 LP  0  0  0  0  0  0  0  0  0  0  0  0  # atno 6063 bound_to 1878
    0.9318   10.6347   10.7923 LP  0  0  0  0  0  0  0  0  0  0  0  0  # atno 6064 bound_to 1878
   -7.1574   16.7297   -0.0497 LP  0  0  0  0  0  0  0  0  0  0  0  0  # atno 6067 bound_to 957 
   -6.8227   15.3262   -0.8144 LP  0  0  0  0  0  0  0  0  0  0  0  0  # atno 6068 bound_to 957 

>  <STRIFE_LigEff_Score>  (138) 
2.8619166666666667

$$$$
unknown|pharmsElabsTestMulti|sdf|139|dock4
     RDKit          3D

 20 21  0  0  0  0  0  0  0  0999 V2000
    6.5470   10.2932    6.4338 C   0  0  0  0  0  0  0  0  0  0  0  0
    5.7195   10.0385    5.2103 C   0  0  0  0  0  0  0  0  0  0  0  0
    4.3462    9.7827    5.3317 C   0  0  0  0  0  0  0  0  0  0  0  0
    3.5682    9.5706    4.1919 C   0  0  0  0  0  0  0  0  0  0  0  0
    4.1494    9.6310    2.9235 C   0  0  0  0  0  0  0  0  0  0  0  0
    5.5187    9.8974    2.7823 C   0  0  0  0  0  0  0  0  0  0  0  0
    6.1163   10.0017    1.4005 C   0  0  0  0  0  0  0  0  0  0  0  0
    7.5822   10.1017    1.4729 N   0  0  0  0  0  0  0  0  0  0  0  0
    8.3579    9.0268    2.0306 C   0  0  0  0  0  0  0  0  0  0  0  0
    7.7646    8.0354    2.5182 O   0  0  0  0  0  0  0  0  0  0  0  0
    9.8556    8.9632    2.0982 C   0  0  0  0  0  0  0  0  0  0  0  0
   10.4731    8.0427    1.0571 C   0  0  0  0  0  0  0  0  0  0  0  0
   11.9569    7.7646    1.2706 C   0  0  0  0  0  0  0  0  0  0  0  0
   12.6949    8.8866    2.0242 C   0  0  0  0  0  0  0  0  0  0  0  0
   14.2205    8.5433    2.0856 C   0  0  0  0  0  0  0  0  0  0  0  0
   14.4414    7.1988    2.8022 C   0  0  0  0  0  0  0  0  0  0  0  0
   14.8389    8.4880    0.7539 N   0  0  0  0  0  0  0  0  0  0  0  0
   12.0579    9.0558    3.4270 C   0  0  0  0  0  0  0  0  0  0  0  0
   10.5188    9.1864    3.4442 C   0  0  0  0  0  0  0  0  0  0  0  0
    6.3016   10.1041    3.9333 C   0  0  0  0  0  0  0  0  0  0  0  0
  1  2  1  0
  2  3  2  0
  3  4  1  0
  4  5  2  0
  5  6  1  0
  6  7  1  0
  7  8  1  0
  8  9  1  0
  9 10  2  0
  9 11  1  0
 11 12  1  0
 12 13  1  0
 13 14  1  0
 14 15  1  0
 15 16  1  0
 15 17  1  0
 14 18  1  0
 18 19  1  0
  6 20  2  0
 20  2  1  0
 19 11  1  0
M  CHG  1  17   1
M  END
>  <EmbedRMS>  (139) 
0.16810927383701896

>  <Gold.Version>  (139) 
2020.3.0

>  <Gold.Id.Protein>  (139) 
unknown|1q8t_protein|pdb

>  <Gold.PLP.Fitness>  (139) 
49.9420

>  <Gold.PLP.PLP>  (139) 
-43.4760

>  <Gold.PLP.part.hbond>  (139) 
-1.9872

>  <Gold.PLP.part.metal>  (139) 
0.0000

>  <Gold.PLP.part.buried>  (139) 
0.5945

>  <Gold.PLP.part.nonpolar>  (139) 
-42.8531

>  <Gold.PLP.part.repulsive>  (139) 
0.0000

>  <Gold.PLP.ligand.clash>  (139) 
0.0000

>  <Gold.PLP.ligand.torsion>  (139) 
0.4798

>  <Gold.PLP.Chemscore.Hbond>  (139) 
2.2288

>  <Gold.PLP.Chemscore.CHOScore>  (139) 
0.0000

>  <Gold.PLP.Chemscore.Metal>  (139) 
0.0000

>  <Gold.Chemscore.Hbonds>  (139) 
donor molecule, donor type, donor heavy atom, donor atom, acceptor molecule, acceptor atom, score
      L1  H    17    41       P1  2902  2.00
      P1  H  2887  2891       L1    10  0.23

>  <Gold.PLP.Chemscore.Internal.Correction>  (139) 
0.7392

>  <Gold.PLP.Constraint>  (139) 
-0.0000

>  <Gold.Protein.RotatedTorsions>  (139) 
[  681  677  676  673 ] final  -54.74 input -179.99 | X-H torsion
[  702  698  697  694 ] final  126.50 input  179.99 | X-H torsion
[ 2577 2569 2568 2566 ] final  137.55 input   -0.13 | X-H torsion
[ 2891 2887 2886 2883 ] final  117.95 input  179.98 | X-H torsion
[ 3175 3171 3170 3167 ] final -102.57 input -179.99 | X-H torsion
[ 5278 5270 5269 5267 ] final   66.88 input    0.55 | X-H torsion
[  641  637  636  633 ] final -147.31 input  179.99 | X-H torsion
[ 1886 1878 1877 1875 ] final  140.57 input    1.60 | X-H torsion
[  965  957  956  954 ] final  -37.13 input    0.45 | X-H torsion

>  <Gold.Protein.ActiveResidues>  (139) 
 LYS47   THR48   LEU49   GLY50   THR51   GLY52   SER53   PHE54   GLY55   ARG56  
 VAL57   MET58   LEU59   TYR69   ALA70   MET71   LYS72   ILE73   LEU74   GLU91  
 LEU95   VAL104  LYS105  MET118  VAL119  MET120  GLU121  TYR122  VAL123  PRO124 
 GLY125  GLY126  GLU127  MET128  PHE129  TYR164  ASP166  LEU167  LYS168  PRO169 
 GLU170  ASN171  LEU172  LEU173  ILE174  GLN181  VAL182  THR183  ASP184  PHE185 
 GLY186  PHE187  GLY200  THR201  ASN326  PHE327  TYR330  ARG18   ARG19   ASN20  
 ALA21   ILE22   HIS23  

>  <Gold.Protein.RotatedAtoms>  (139) 
   11.2898   19.1501    7.7689 H   0  0  0  0  0  0  0  0  0  0  0  0  # atno 641  bound_to 637 
   15.6207   13.1116    7.0799 H   0  0  0  0  0  0  0  0  0  0  0  0  # atno 681  bound_to 677 
   20.2815   11.7128   -2.0299 H   0  0  0  0  0  0  0  0  0  0  0  0  # atno 702  bound_to 698 
   -6.5182   15.7155   -1.4360 H   0  0  0  0  0  0  0  0  0  0  0  0  # atno 965  bound_to 957 
    0.9104   12.0710   11.0277 H   0  0  0  0  0  0  0  0  0  0  0  0  # atno 1886 bound_to 1878
    9.9529    1.9157   -2.4163 H   0  0  0  0  0  0  0  0  0  0  0  0  # atno 2577 bound_to 2569
    8.0249    6.9077    0.7789 H   0  0  0  0  0  0  0  0  0  0  0  0  # atno 2891 bound_to 2887
   19.0569    2.8797    0.1730 H   0  0  0  0  0  0  0  0  0  0  0  0  # atno 3175 bound_to 3171
   12.9789   10.1893    8.9271 H   0  0  0  0  0  0  0  0  0  0  0  0  # atno 5278 bound_to 5270
   16.9712   13.9551    7.1051 LP  0  0  0  0  0  0  0  0  0  0  0  0  # atno 5914 bound_to 677 
   16.7617   12.7420    6.0322 LP  0  0  0  0  0  0  0  0  0  0  0  0  # atno 5915 bound_to 677 
   19.4014   11.8264   -0.7071 LP  0  0  0  0  0  0  0  0  0  0  0  0  # atno 5920 bound_to 698 
   21.0069   11.5402   -0.6223 LP  0  0  0  0  0  0  0  0  0  0  0  0  # atno 5921 bound_to 698 
    9.5067    3.1654   -3.2963 LP  0  0  0  0  0  0  0  0  0  0  0  0  # atno 5950 bound_to 2569
   11.0842    2.8818   -2.9838 LP  0  0  0  0  0  0  0  0  0  0  0  0  # atno 5951 bound_to 2569
    8.0942    5.3736    0.3566 LP  0  0  0  0  0  0  0  0  0  0  0  0  # atno 5982 bound_to 2887
    7.1348    5.8613    1.5847 LP  0  0  0  0  0  0  0  0  0  0  0  0  # atno 5983 bound_to 2887
   17.8765    1.9567   -0.3659 LP  0  0  0  0  0  0  0  0  0  0  0  0  # atno 6000 bound_to 3171
   18.9561    2.6215   -1.3951 LP  0  0  0  0  0  0  0  0  0  0  0  0  # atno 6001 bound_to 3171
   13.1769    9.7966   10.4579 LP  0  0  0  0  0  0  0  0  0  0  0  0  # atno 6004 bound_to 5270
   14.4640   10.0499    9.4854 LP  0  0  0  0  0  0  0  0  0  0  0  0  # atno 6005 bound_to 5270
   10.3601   19.7932    8.8901 LP  0  0  0  0  0  0  0  0  0  0  0  0  # atno 6055 bound_to 637 
    9.7143   19.1399    7.5401 LP  0  0  0  0  0  0  0  0  0  0  0  0  # atno 6056 bound_to 637 
    2.2919   11.6392   10.3640 LP  0  0  0  0  0  0  0  0  0  0  0  0  # atno 6063 bound_to 1878
    1.1351   10.5323   10.6852 LP  0  0  0  0  0  0  0  0  0  0  0  0  # atno 6064 bound_to 1878
   -6.7575   17.2021   -0.9185 LP  0  0  0  0  0  0  0  0  0  0  0  0  # atno 6067 bound_to 957 
   -7.1856   15.9183   -0.0047 LP  0  0  0  0  0  0  0  0  0  0  0  0  # atno 6068 bound_to 957 

>  <STRIFE_LigEff_Score>  (139) 
2.4971

$$$$
unknown|pharmsElabsTestMulti|sdf|140|dock1
     RDKit          3D

 14 14  0  0  0  0  0  0  0  0999 V2000
    3.9028    9.7949    5.4308 C   0  0  0  0  0  0  0  0  0  0  0  0
    4.8565   10.2215    4.3217 C   0  0  0  0  0  0  0  0  0  0  0  0
    6.1579    9.5846    4.4946 N   0  0  0  0  0  0  0  0  0  0  0  0
    7.1533    9.5753    3.4641 C   0  0  0  0  0  0  0  0  0  0  0  0
    6.9537   10.1952    2.3818 O   0  0  0  0  0  0  0  0  0  0  0  0
    8.4506    8.8465    3.6901 C   0  0  0  0  0  0  0  0  0  0  0  0
    8.7073    7.8520    2.5594 C   0  0  0  0  0  0  0  0  0  0  0  0
    9.9364    6.9970    2.8340 C   0  0  0  0  0  0  0  0  0  0  0  0
   11.1814    7.7610    3.3591 C   0  0  0  0  0  0  0  0  0  0  0  0
   12.5125    7.6737    2.5863 C   0  0  0  0  0  0  0  0  0  0  0  0
   13.8149    7.7605    3.3819 C   0  0  0  0  0  0  0  0  0  0  0  0
   12.5433    8.5763    1.4273 N   0  0  0  0  0  0  0  0  0  0  0  0
   10.9418    9.1440    4.0387 C   0  0  0  0  0  0  0  0  0  0  0  0
    9.6095    9.8356    3.7551 C   0  0  0  0  0  0  0  0  0  0  0  0
  1  2  1  0
  2  3  1  0
  3  4  1  0
  4  5  2  0
  4  6  1  0
  6  7  1  0
  7  8  1  0
  8  9  1  0
  9 10  1  0
 10 11  1  0
 10 12  1  0
  9 13  1  0
 13 14  1  0
 14  6  1  0
M  CHG  1  12   1
M  END
>  <EmbedRMS>  (140) 
0.22880006867790334

>  <Gold.Version>  (140) 
2020.3.0

>  <Gold.Id.Protein>  (140) 
unknown|1q8t_protein|pdb

>  <Gold.PLP.Fitness>  (140) 
34.7257

>  <Gold.PLP.PLP>  (140) 
-29.2896

>  <Gold.PLP.part.hbond>  (140) 
-1.0000

>  <Gold.PLP.part.metal>  (140) 
0.0000

>  <Gold.PLP.part.buried>  (140) 
0.2310

>  <Gold.PLP.part.nonpolar>  (140) 
-28.7759

>  <Gold.PLP.part.repulsive>  (140) 
0.0000

>  <Gold.PLP.ligand.clash>  (140) 
0.0000

>  <Gold.PLP.ligand.torsion>  (140) 
0.4591

>  <Gold.PLP.Chemscore.Hbond>  (140) 
1.9840

>  <Gold.PLP.Chemscore.CHOScore>  (140) 
0.0000

>  <Gold.PLP.Chemscore.Metal>  (140) 
0.0000

>  <Gold.Chemscore.Hbonds>  (140) 
donor molecule, donor type, donor heavy atom, donor atom, acceptor molecule, acceptor atom, score
      L1  H    12    32       P1  2902  1.98

>  <Gold.PLP.Chemscore.Internal.Correction>  (140) 
0.4023

>  <Gold.PLP.Constraint>  (140) 
-0.0000

>  <Gold.Protein.RotatedTorsions>  (140) 
[  681  677  676  673 ] final  153.89 input -179.99 | X-H torsion
[  702  698  697  694 ] final  -30.96 input  179.99 | X-H torsion
[ 2577 2569 2568 2566 ] final -132.05 input   -0.13 | X-H torsion
[ 2891 2887 2886 2883 ] final  -50.10 input  179.98 | X-H torsion
[ 3175 3171 3170 3167 ] final -114.20 input -179.99 | X-H torsion
[ 5278 5270 5269 5267 ] final  156.13 input    0.55 | X-H torsion
[  641  637  636  633 ] final  174.94 input  179.99 | X-H torsion
[ 1886 1878 1877 1875 ] final   70.85 input    1.60 | X-H torsion
[  965  957  956  954 ] final   34.89 input    0.45 | X-H torsion

>  <Gold.Protein.ActiveResidues>  (140) 
 LYS47   THR48   LEU49   GLY50   THR51   GLY52   SER53   PHE54   GLY55   ARG56  
 VAL57   MET58   LEU59   TYR69   ALA70   MET71   LYS72   ILE73   LEU74   GLU91  
 LEU95   VAL104  LYS105  MET118  VAL119  MET120  GLU121  TYR122  VAL123  PRO124 
 GLY125  GLY126  GLU127  MET128  PHE129  TYR164  ASP166  LEU167  LYS168  PRO169 
 GLU170  ASN171  LEU172  LEU173  ILE174  GLN181  VAL182  THR183  ASP184  PHE185 
 GLY186  PHE187  GLY200  THR201  ASN326  PHE327  TYR330  ARG18   ARG19   ASN20  
 ALA21   ILE22   HIS23  

>  <Gold.Protein.RotatedAtoms>  (140) 
   11.3348   19.4108    8.2844 H   0  0  0  0  0  0  0  0  0  0  0  0  # atno 641  bound_to 637 
   17.2002   13.7352    6.7196 H   0  0  0  0  0  0  0  0  0  0  0  0  # atno 681  bound_to 677 
   19.8499   11.7564   -0.3263 H   0  0  0  0  0  0  0  0  0  0  0  0  # atno 702  bound_to 698 
   -6.9401   15.4285   -0.5151 H   0  0  0  0  0  0  0  0  0  0  0  0  # atno 965  bound_to 957 
    1.8464   12.2197   10.6405 H   0  0  0  0  0  0  0  0  0  0  0  0  # atno 1886 bound_to 1878
   11.0445    2.4847   -2.7313 H   0  0  0  0  0  0  0  0  0  0  0  0  # atno 2577 bound_to 2569
    7.5860    5.1832    0.8742 H   0  0  0  0  0  0  0  0  0  0  0  0  # atno 2891 bound_to 2887
   18.9291    2.7981    0.2726 H   0  0  0  0  0  0  0  0  0  0  0  0  # atno 3175 bound_to 3171
   14.2292   10.1667    9.0716 H   0  0  0  0  0  0  0  0  0  0  0  0  # atno 5278 bound_to 5270
   16.2978   12.5589    6.1381 LP  0  0  0  0  0  0  0  0  0  0  0  0  # atno 5914 bound_to 677 
   15.7727   13.4820    7.3785 LP  0  0  0  0  0  0  0  0  0  0  0  0  # atno 5915 bound_to 677 
   21.1556   11.5251   -1.2090 LP  0  0  0  0  0  0  0  0  0  0  0  0  # atno 5920 bound_to 698 
   19.7068   11.7955   -1.9123 LP  0  0  0  0  0  0  0  0  0  0  0  0  # atno 5921 bound_to 698 
    9.5209    2.0670   -2.5326 LP  0  0  0  0  0  0  0  0  0  0  0  0  # atno 5950 bound_to 2569
    9.9206    3.3811   -3.4158 LP  0  0  0  0  0  0  0  0  0  0  0  0  # atno 5951 bound_to 2569
    7.3239    6.6043    1.5437 LP  0  0  0  0  0  0  0  0  0  0  0  0  # atno 5982 bound_to 2887
    8.3671    6.4456    0.2974 LP  0  0  0  0  0  0  0  0  0  0  0  0  # atno 5983 bound_to 2887
   17.8790    1.9337   -0.5554 LP  0  0  0  0  0  0  0  0  0  0  0  0  # atno 6000 bound_to 3171
   19.0881    2.7304   -1.3104 LP  0  0  0  0  0  0  0  0  0  0  0  0  # atno 6001 bound_to 3171
   12.6519   10.0826    9.2759 LP  0  0  0  0  0  0  0  0  0  0  0  0  # atno 6004 bound_to 5270
   13.6734    9.7876   10.5153 LP  0  0  0  0  0  0  0  0  0  0  0  0  # atno 6005 bound_to 5270
    9.8104   19.6979    8.6434 LP  0  0  0  0  0  0  0  0  0  0  0  0  # atno 6055 bound_to 637 
   10.2167   18.9607    7.2440 LP  0  0  0  0  0  0  0  0  0  0  0  0  # atno 6056 bound_to 637 
    1.8674   10.6487   10.3822 LP  0  0  0  0  0  0  0  0  0  0  0  0  # atno 6063 bound_to 1878
    0.5742   11.3662   11.0747 LP  0  0  0  0  0  0  0  0  0  0  0  0  # atno 6064 bound_to 1878
   -6.4342   16.4296   -1.6450 LP  0  0  0  0  0  0  0  0  0  0  0  0  # atno 6067 bound_to 957 
   -7.0646   16.9931   -0.2480 LP  0  0  0  0  0  0  0  0  0  0  0  0  # atno 6068 bound_to 957 

>  <STRIFE_LigEff_Score>  (140) 
2.480407142857143

$$$$
unknown|pharmsElabsTestMulti|sdf|141|dock5
     RDKit          3D

 17 17  0  0  0  0  0  0  0  0999 V2000
   14.8175    7.7087    3.1248 C   0  0  0  0  0  0  0  0  0  0  0  0
   13.5363    7.6624    2.2938 C   0  0  0  0  0  0  0  0  0  0  0  0
   13.6195    8.5091    1.1019 N   0  0  0  0  0  0  0  0  0  0  0  0
   12.1779    7.7996    3.0247 C   0  0  0  0  0  0  0  0  0  0  0  0
   11.0166    7.1003    2.3034 C   0  0  0  0  0  0  0  0  0  0  0  0
    9.6158    7.5515    2.6815 C   0  0  0  0  0  0  0  0  0  0  0  0
    9.5126    9.0458    2.8522 C   0  0  0  0  0  0  0  0  0  0  0  0
    8.1035    9.5548    2.9105 C   0  0  0  0  0  0  0  0  0  0  0  0
    7.7466    9.9948    4.0300 O   0  0  0  0  0  0  0  0  0  0  0  0
    7.1619    9.5595    1.8234 N   0  0  0  0  0  0  0  0  0  0  0  0
    5.7618    9.9435    2.0569 C   0  0  0  0  0  0  0  0  0  0  0  0
    5.0595    8.9081    2.9486 C   0  0  0  0  0  0  0  0  0  0  0  0
    5.2443    9.2170    4.3656 N   0  0  0  0  0  0  0  0  0  0  0  0
    4.1569    9.6586    5.1842 C   0  0  0  0  0  0  0  0  0  0  0  0
    3.0022    9.8046    4.7014 O   0  0  0  0  0  0  0  0  0  0  0  0
   10.5107    9.6841    3.7778 C   0  0  0  0  0  0  0  0  0  0  0  0
   11.9450    9.2729    3.4528 C   0  0  0  0  0  0  0  0  0  0  0  0
  1  2  1  0
  2  3  1  0
  2  4  1  0
  4  5  1  0
  5  6  1  0
  6  7  1  0
  7  8  1  0
  8  9  2  0
  8 10  1  0
 10 11  1  0
 11 12  1  0
 12 13  1  0
 13 14  1  0
 14 15  2  0
  7 16  1  0
 16 17  1  0
 17  4  1  0
M  CHG  1   3   1
M  END
>  <EmbedRMS>  (141) 
0.30207850723488733

>  <Gold.Version>  (141) 
2020.3.0

>  <Gold.Id.Protein>  (141) 
unknown|1q8t_protein|pdb

>  <Gold.PLP.Fitness>  (141) 
43.8230

>  <Gold.PLP.PLP>  (141) 
-36.0294

>  <Gold.PLP.part.hbond>  (141) 
-2.0000

>  <Gold.PLP.part.metal>  (141) 
0.0000

>  <Gold.PLP.part.buried>  (141) 
-5.3490

>  <Gold.PLP.part.nonpolar>  (141) 
-28.4841

>  <Gold.PLP.part.repulsive>  (141) 
0.1502

>  <Gold.PLP.ligand.clash>  (141) 
0.0000

>  <Gold.PLP.ligand.torsion>  (141) 
0.9428

>  <Gold.PLP.Chemscore.Hbond>  (141) 
3.0000

>  <Gold.PLP.Chemscore.CHOScore>  (141) 
0.0000

>  <Gold.PLP.Chemscore.Metal>  (141) 
0.0000

>  <Gold.Chemscore.Hbonds>  (141) 
donor molecule, donor type, donor heavy atom, donor atom, acceptor molecule, acceptor atom, score
      L1  H     3    24       P1  2902  2.00
      P1  H  1888  1903       L1    15  1.00

>  <Gold.PLP.Chemscore.Internal.Correction>  (141) 
0.6790

>  <Gold.PLP.Constraint>  (141) 
-0.0000

>  <Gold.Protein.RotatedTorsions>  (141) 
[  681  677  676  673 ] final  101.11 input -179.99 | X-H torsion
[  702  698  697  694 ] final -110.31 input  179.99 | X-H torsion
[ 2577 2569 2568 2566 ] final   60.07 input   -0.13 | X-H torsion
[ 2891 2887 2886 2883 ] final  138.14 input  179.98 | X-H torsion
[ 3175 3171 3170 3167 ] final   96.18 input -179.99 | X-H torsion
[ 5278 5270 5269 5267 ] final  179.01 input    0.55 | X-H torsion
[  641  637  636  633 ] final  -44.52 input  179.99 | X-H torsion
[ 1886 1878 1877 1875 ] final -119.37 input    1.60 | X-H torsion
[  965  957  956  954 ] final  -60.28 input    0.45 | X-H torsion

>  <Gold.Protein.ActiveResidues>  (141) 
 LYS47   THR48   LEU49   GLY50   THR51   GLY52   SER53   PHE54   GLY55   ARG56  
 VAL57   MET58   LEU59   TYR69   ALA70   MET71   LYS72   ILE73   LEU74   GLU91  
 LEU95   VAL104  LYS105  MET118  VAL119  MET120  GLU121  TYR122  VAL123  PRO124 
 GLY125  GLY126  GLU127  MET128  PHE129  TYR164  ASP166  LEU167  LYS168  PRO169 
 GLU170  ASN171  LEU172  LEU173  ILE174  GLN181  VAL182  THR183  ASP184  PHE185 
 GLY186  PHE187  GLY200  THR201  ASN326  PHE327  TYR330  ARG18   ARG19   ASN20  
 ALA21   ILE22   HIS23  

>  <Gold.Protein.RotatedAtoms>  (141) 
    9.9417   19.0422    7.4101 H   0  0  0  0  0  0  0  0  0  0  0  0  # atno 641  bound_to 637 
   17.1263   13.1498    6.1849 H   0  0  0  0  0  0  0  0  0  0  0  0  # atno 681  bound_to 677 
   20.9434   11.5680   -0.6062 H   0  0  0  0  0  0  0  0  0  0  0  0  # atno 702  bound_to 698 
   -6.4491   16.0369   -1.5812 H   0  0  0  0  0  0  0  0  0  0  0  0  # atno 965  bound_to 957 
    0.8985   10.7171   10.8021 H   0  0  0  0  0  0  0  0  0  0  0  0  # atno 1886 bound_to 1878
    9.2847    2.6311   -2.9620 H   0  0  0  0  0  0  0  0  0  0  0  0  # atno 2577 bound_to 2569
    7.8263    6.9482    1.0187 H   0  0  0  0  0  0  0  0  0  0  0  0  # atno 2891 bound_to 2887
   18.0625    1.9913   -0.9871 H   0  0  0  0  0  0  0  0  0  0  0  0  # atno 3175 bound_to 3171
   14.3922   10.0926    9.3787 H   0  0  0  0  0  0  0  0  0  0  0  0  # atno 5278 bound_to 5270
   15.6758   12.7145    6.6777 LP  0  0  0  0  0  0  0  0  0  0  0  0  # atno 5914 bound_to 677 
   16.4725   13.9425    7.4016 LP  0  0  0  0  0  0  0  0  0  0  0  0  # atno 5915 bound_to 677 
   20.3327   11.6877   -2.0725 LP  0  0  0  0  0  0  0  0  0  0  0  0  # atno 5920 bound_to 698 
   19.3794   11.8312   -0.7544 LP  0  0  0  0  0  0  0  0  0  0  0  0  # atno 5921 bound_to 698 
   10.6766    3.3182   -3.3167 LP  0  0  0  0  0  0  0  0  0  0  0  0  # atno 5950 bound_to 2569
   10.6179    1.9757   -2.3888 LP  0  0  0  0  0  0  0  0  0  0  0  0  # atno 5951 bound_to 2569
    8.2564    5.6326    0.2308 LP  0  0  0  0  0  0  0  0  0  0  0  0  # atno 5982 bound_to 2887
    7.1817    5.5597    1.4581 LP  0  0  0  0  0  0  0  0  0  0  0  0  # atno 5983 bound_to 2887
   19.3296    2.9552   -0.9593 LP  0  0  0  0  0  0  0  0  0  0  0  0  # atno 6000 bound_to 3171
   18.5494    2.5579    0.4191 LP  0  0  0  0  0  0  0  0  0  0  0  0  # atno 6001 bound_to 3171
   12.8540   10.1600    8.9709 LP  0  0  0  0  0  0  0  0  0  0  0  0  # atno 6004 bound_to 5270
   13.2998    9.7882   10.4972 LP  0  0  0  0  0  0  0  0  0  0  0  0  # atno 6005 bound_to 5270
   11.4059   19.2753    7.9904 LP  0  0  0  0  0  0  0  0  0  0  0  0  # atno 6055 bound_to 637 
   10.0883   19.7714    8.8178 LP  0  0  0  0  0  0  0  0  0  0  0  0  # atno 6056 bound_to 637 
    1.1504   12.2796   10.9764 LP  0  0  0  0  0  0  0  0  0  0  0  0  # atno 6063 bound_to 1878
    2.2890   11.3171   10.3103 LP  0  0  0  0  0  0  0  0  0  0  0  0  # atno 6064 bound_to 1878
   -6.9142   17.1796   -0.5748 LP  0  0  0  0  0  0  0  0  0  0  0  0  # atno 6067 bound_to 957 
   -7.1018   15.6024   -0.1955 LP  0  0  0  0  0  0  0  0  0  0  0  0  # atno 6068 bound_to 957 

>  <STRIFE_LigEff_Score>  (141) 
2.5778235294117646

$$$$
unknown|pharmsElabsTestMulti|sdf|142|dock2
     RDKit          3D

 14 14  0  0  0  0  0  0  0  0999 V2000
    4.0044    9.7722    5.3197 C   0  0  0  0  0  0  0  0  0  0  0  0
    4.8722   10.0228    4.0925 C   0  0  0  0  0  0  0  0  0  0  0  0
    6.1955    9.4355    4.2747 N   0  0  0  0  0  0  0  0  0  0  0  0
    7.2030    9.4776    3.2570 C   0  0  0  0  0  0  0  0  0  0  0  0
    6.9925   10.1020    2.1794 O   0  0  0  0  0  0  0  0  0  0  0  0
    8.5252    8.7976    3.4912 C   0  0  0  0  0  0  0  0  0  0  0  0
    8.8596    7.8670    2.3268 C   0  0  0  0  0  0  0  0  0  0  0  0
   10.1180    7.0560    2.6019 C   0  0  0  0  0  0  0  0  0  0  0  0
   11.3111    7.8501    3.1979 C   0  0  0  0  0  0  0  0  0  0  0  0
   12.6666    7.8566    2.4636 C   0  0  0  0  0  0  0  0  0  0  0  0
   13.9416    7.9188    3.3045 C   0  0  0  0  0  0  0  0  0  0  0  0
   12.7055    8.8436    1.3758 N   0  0  0  0  0  0  0  0  0  0  0  0
   10.9891    9.1894    3.9291 C   0  0  0  0  0  0  0  0  0  0  0  0
    9.6354    9.8332    3.6347 C   0  0  0  0  0  0  0  0  0  0  0  0
  1  2  1  0
  2  3  1  0
  3  4  1  0
  4  5  2  0
  4  6  1  0
  6  7  1  0
  7  8  1  0
  8  9  1  0
  9 10  1  0
 10 11  1  0
 10 12  1  0
  9 13  1  0
 13 14  1  0
 14  6  1  0
M  CHG  1  12   1
M  END
>  <EmbedRMS>  (142) 
0.22880006867790334

>  <Gold.Version>  (142) 
2020.3.0

>  <Gold.Id.Protein>  (142) 
unknown|1q8t_protein|pdb

>  <Gold.PLP.Fitness>  (142) 
34.0283

>  <Gold.PLP.PLP>  (142) 
-28.5972

>  <Gold.PLP.part.hbond>  (142) 
-1.0000

>  <Gold.PLP.part.metal>  (142) 
0.0000

>  <Gold.PLP.part.buried>  (142) 
-0.2256

>  <Gold.PLP.part.nonpolar>  (142) 
-27.2548

>  <Gold.PLP.part.repulsive>  (142) 
0.0000

>  <Gold.PLP.ligand.clash>  (142) 
0.0000

>  <Gold.PLP.ligand.torsion>  (142) 
0.4770

>  <Gold.PLP.Chemscore.Hbond>  (142) 
2.0000

>  <Gold.PLP.Chemscore.CHOScore>  (142) 
0.0000

>  <Gold.PLP.Chemscore.Metal>  (142) 
0.0000

>  <Gold.Chemscore.Hbonds>  (142) 
donor molecule, donor type, donor heavy atom, donor atom, acceptor molecule, acceptor atom, score
      L1  H    12    33       P1  2902  2.00

>  <Gold.PLP.Chemscore.Internal.Correction>  (142) 
0.3852

>  <Gold.PLP.Constraint>  (142) 
-0.0000

>  <Gold.Protein.RotatedTorsions>  (142) 
[  681  677  676  673 ] final -170.77 input -179.99 | X-H torsion
[  702  698  697  694 ] final  -65.01 input  179.99 | X-H torsion
[ 2577 2569 2568 2566 ] final  121.73 input   -0.13 | X-H torsion
[ 2891 2887 2886 2883 ] final   26.76 input  179.98 | X-H torsion
[ 3175 3171 3170 3167 ] final  -84.40 input -179.99 | X-H torsion
[ 5278 5270 5269 5267 ] final  141.13 input    0.55 | X-H torsion
[  641  637  636  633 ] final  147.78 input  179.99 | X-H torsion
[ 1886 1878 1877 1875 ] final  121.24 input    1.60 | X-H torsion
[  965  957  956  954 ] final   64.98 input    0.45 | X-H torsion

>  <Gold.Protein.ActiveResidues>  (142) 
 LYS47   THR48   LEU49   GLY50   THR51   GLY52   SER53   PHE54   GLY55   ARG56  
 VAL57   MET58   LEU59   TYR69   ALA70   MET71   LYS72   ILE73   LEU74   GLU91  
 LEU95   VAL104  LYS105  MET118  VAL119  MET120  GLU121  TYR122  VAL123  PRO124 
 GLY125  GLY126  GLU127  MET128  PHE129  TYR164  ASP166  LEU167  LYS168  PRO169 
 GLU170  ASN171  LEU172  LEU173  ILE174  GLN181  VAL182  THR183  ASP184  PHE185 
 GLY186  PHE187  GLY200  THR201  ASN326  PHE327  TYR330  ARG18   ARG19   ASN20  
 ALA21   ILE22   HIS23  

>  <Gold.Protein.RotatedAtoms>  (142) 
   11.1376   19.5883    8.6104 H   0  0  0  0  0  0  0  0  0  0  0  0  # atno 641  bound_to 637 
   16.8921   13.9431    7.1166 H   0  0  0  0  0  0  0  0  0  0  0  0  # atno 681  bound_to 677 
   20.3608   11.6643   -0.2489 H   0  0  0  0  0  0  0  0  0  0  0  0  # atno 702  bound_to 698 
   -7.0952   15.6966   -0.1686 H   0  0  0  0  0  0  0  0  0  0  0  0  # atno 965  bound_to 957 
    1.1499   12.2356   10.9502 H   0  0  0  0  0  0  0  0  0  0  0  0  # atno 1886 bound_to 1878
    9.7256    1.9854   -2.4813 H   0  0  0  0  0  0  0  0  0  0  0  0  # atno 2577 bound_to 2569
    8.2684    5.7789    0.2264 H   0  0  0  0  0  0  0  0  0  0  0  0  # atno 2891 bound_to 2887
   19.2210    2.9737   -0.0375 H   0  0  0  0  0  0  0  0  0  0  0  0  # atno 3175 bound_to 3171
   14.0604   10.2037    8.9142 H   0  0  0  0  0  0  0  0  0  0  0  0  # atno 5278 bound_to 5270
   16.8164   12.7778    6.0338 LP  0  0  0  0  0  0  0  0  0  0  0  0  # atno 5914 bound_to 677 
   15.5784   13.0443    7.0649 LP  0  0  0  0  0  0  0  0  0  0  0  0  # atno 5915 bound_to 677 
   20.9579   11.5701   -1.7226 LP  0  0  0  0  0  0  0  0  0  0  0  0  # atno 5920 bound_to 698 
   19.3670   11.8474   -1.4802 LP  0  0  0  0  0  0  0  0  0  0  0  0  # atno 5921 bound_to 698 
    9.7122    3.3022   -3.3763 LP  0  0  0  0  0  0  0  0  0  0  0  0  # atno 5950 bound_to 2569
   11.1181    2.6716   -2.8354 LP  0  0  0  0  0  0  0  0  0  0  0  0  # atno 5951 bound_to 2569
    7.2240    5.4478    1.3823 LP  0  0  0  0  0  0  0  0  0  0  0  0  # atno 5982 bound_to 2887
    7.7487    6.9751    1.1404 LP  0  0  0  0  0  0  0  0  0  0  0  0  # atno 5983 bound_to 2887
   17.9346    2.0365   -0.0848 LP  0  0  0  0  0  0  0  0  0  0  0  0  # atno 6000 bound_to 3171
   18.7253    2.4428   -1.4546 LP  0  0  0  0  0  0  0  0  0  0  0  0  # atno 6001 bound_to 3171
   12.5933   10.0248    9.5078 LP  0  0  0  0  0  0  0  0  0  0  0  0  # atno 6004 bound_to 5270
   13.9096    9.8064   10.4491 LP  0  0  0  0  0  0  0  0  0  0  0  0  # atno 6005 bound_to 5270
    9.5761   19.5375    8.3037 LP  0  0  0  0  0  0  0  0  0  0  0  0  # atno 6055 bound_to 637 
   10.6585   18.9340    7.2403 LP  0  0  0  0  0  0  0  0  0  0  0  0  # atno 6056 bound_to 637 
    2.2907   11.3270   10.3113 LP  0  0  0  0  0  0  0  0  0  0  0  0  # atno 6063 bound_to 1878
    0.8842   10.6712   10.8195 LP  0  0  0  0  0  0  0  0  0  0  0  0  # atno 6064 bound_to 1878
   -6.4565   15.9422   -1.6062 LP  0  0  0  0  0  0  0  0  0  0  0  0  # atno 6067 bound_to 957 
   -6.8789   17.1982   -0.6518 LP  0  0  0  0  0  0  0  0  0  0  0  0  # atno 6068 bound_to 957 

>  <STRIFE_LigEff_Score>  (142) 
2.4305928571428574

$$$$
unknown|pharmsElabsTestMulti|sdf|143|dock5
     RDKit          3D

 20 21  0  0  0  0  0  0  0  0999 V2000
    5.4442   10.1033    5.5998 C   0  0  0  0  0  0  0  0  0  0  0  0
    5.1595    9.7664    4.1671 C   0  0  0  0  0  0  0  0  0  0  0  0
    3.8897    9.3042    3.7931 C   0  0  0  0  0  0  0  0  0  0  0  0
    3.6142    9.0143    2.4554 C   0  0  0  0  0  0  0  0  0  0  0  0
    4.5956    9.2012    1.4796 C   0  0  0  0  0  0  0  0  0  0  0  0
    5.8672    9.6740    1.8336 C   0  0  0  0  0  0  0  0  0  0  0  0
    6.8978    9.9103    0.7568 C   0  0  0  0  0  0  0  0  0  0  0  0
    8.2487    9.9813    1.3350 N   0  0  0  0  0  0  0  0  0  0  0  0
    8.7527    8.9020    2.1408 C   0  0  0  0  0  0  0  0  0  0  0  0
    8.0006    7.9331    2.4022 O   0  0  0  0  0  0  0  0  0  0  0  0
   10.1307    8.8088    2.7274 C   0  0  0  0  0  0  0  0  0  0  0  0
   11.0380    7.8311    1.9971 C   0  0  0  0  0  0  0  0  0  0  0  0
   12.3448    7.5302    2.7228 C   0  0  0  0  0  0  0  0  0  0  0  0
   12.8147    8.6673    3.6488 C   0  0  0  0  0  0  0  0  0  0  0  0
   14.2110    8.2938    4.2486 C   0  0  0  0  0  0  0  0  0  0  0  0
   14.2548    6.8009    4.6220 C   0  0  0  0  0  0  0  0  0  0  0  0
   15.3170    8.5942    3.3290 N   0  0  0  0  0  0  0  0  0  0  0  0
   11.7370    8.9106    4.7359 C   0  0  0  0  0  0  0  0  0  0  0  0
   10.2931    9.0753    4.2120 C   0  0  0  0  0  0  0  0  0  0  0  0
    6.1441    9.9589    3.1836 C   0  0  0  0  0  0  0  0  0  0  0  0
  1  2  1  0
  2  3  2  0
  3  4  1  0
  4  5  2  0
  5  6  1  0
  6  7  1  0
  7  8  1  0
  8  9  1  0
  9 10  2  0
  9 11  1  0
 11 12  1  0
 12 13  1  0
 13 14  1  0
 14 15  1  0
 15 16  1  0
 15 17  1  0
 14 18  1  0
 18 19  1  0
  6 20  2  0
 20  2  1  0
 19 11  1  0
M  CHG  1  17   1
M  END
>  <EmbedRMS>  (143) 
0.16810927383701896

>  <Gold.Version>  (143) 
2020.3.0

>  <Gold.Id.Protein>  (143) 
unknown|1q8t_protein|pdb

>  <Gold.PLP.Fitness>  (143) 
54.2711

>  <Gold.PLP.PLP>  (143) 
-49.7681

>  <Gold.PLP.part.hbond>  (143) 
-1.8147

>  <Gold.PLP.part.metal>  (143) 
0.0000

>  <Gold.PLP.part.buried>  (143) 
-3.0552

>  <Gold.PLP.part.nonpolar>  (143) 
-45.9466

>  <Gold.PLP.part.repulsive>  (143) 
0.0079

>  <Gold.PLP.ligand.clash>  (143) 
0.0000

>  <Gold.PLP.ligand.torsion>  (143) 
1.0968

>  <Gold.PLP.Chemscore.Hbond>  (143) 
1.9920

>  <Gold.PLP.Chemscore.CHOScore>  (143) 
0.0000

>  <Gold.PLP.Chemscore.Metal>  (143) 
0.0000

>  <Gold.Chemscore.Hbonds>  (143) 
donor molecule, donor type, donor heavy atom, donor atom, acceptor molecule, acceptor atom, score
      L1  H    17    40       P1   675  0.99
      P1  H  2887  2891       L1    10  1.00

>  <Gold.PLP.Chemscore.Internal.Correction>  (143) 
0.7205

>  <Gold.PLP.Constraint>  (143) 
-0.0000

>  <Gold.Protein.RotatedTorsions>  (143) 
[  681  677  676  673 ] final -164.76 input -179.99 | X-H torsion
[  702  698  697  694 ] final   64.20 input  179.99 | X-H torsion
[ 2577 2569 2568 2566 ] final   81.53 input   -0.13 | X-H torsion
[ 2891 2887 2886 2883 ] final  178.77 input  179.98 | X-H torsion
[ 3175 3171 3170 3167 ] final -105.52 input -179.99 | X-H torsion
[ 5278 5270 5269 5267 ] final   19.26 input    0.55 | X-H torsion
[  641  637  636  633 ] final -177.38 input  179.99 | X-H torsion
[ 1886 1878 1877 1875 ] final  144.19 input    1.60 | X-H torsion
[  965  957  956  954 ] final   32.06 input    0.45 | X-H torsion

>  <Gold.Protein.ActiveResidues>  (143) 
 LYS47   THR48   LEU49   GLY50   THR51   GLY52   SER53   PHE54   GLY55   ARG56  
 VAL57   MET58   LEU59   TYR69   ALA70   MET71   LYS72   ILE73   LEU74   GLU91  
 LEU95   VAL104  LYS105  MET118  VAL119  MET120  GLU121  TYR122  VAL123  PRO124 
 GLY125  GLY126  GLU127  MET128  PHE129  TYR164  ASP166  LEU167  LYS168  PRO169 
 GLU170  ASN171  LEU172  LEU173  ILE174  GLN181  VAL182  THR183  ASP184  PHE185 
 GLY186  PHE187  GLY200  THR201  ASN326  PHE327  TYR330  ARG18   ARG19   ASN20  
 ALA21   ILE22   HIS23  

>  <Gold.Protein.RotatedAtoms>  (143) 
   11.3568   19.3562    8.1799 H   0  0  0  0  0  0  0  0  0  0  0  0  # atno 641  bound_to 637 
   16.8185   13.9547    7.1737 H   0  0  0  0  0  0  0  0  0  0  0  0  # atno 681  bound_to 677 
   19.4752   11.8472   -1.5922 H   0  0  0  0  0  0  0  0  0  0  0  0  # atno 702  bound_to 698 
   -6.9228   15.4142   -0.5533 H   0  0  0  0  0  0  0  0  0  0  0  0  # atno 965  bound_to 957 
    0.8715   12.0314   11.0382 H   0  0  0  0  0  0  0  0  0  0  0  0  # atno 1886 bound_to 1878
    9.3348    2.3621   -2.7715 H   0  0  0  0  0  0  0  0  0  0  0  0  # atno 2577 bound_to 2569
    7.4235    6.7090    1.4280 H   0  0  0  0  0  0  0  0  0  0  0  0  # atno 2891 bound_to 2887
   19.0259    2.8604    0.2011 H   0  0  0  0  0  0  0  0  0  0  0  0  # atno 3175 bound_to 3171
   12.6369   10.0332    9.5452 H   0  0  0  0  0  0  0  0  0  0  0  0  # atno 5278 bound_to 5270
   16.8955   12.8362    6.0427 LP  0  0  0  0  0  0  0  0  0  0  0  0  # atno 5914 bound_to 677 
   15.5767   12.9736    6.9959 LP  0  0  0  0  0  0  0  0  0  0  0  0  # atno 5915 bound_to 677 
   20.2157   11.6721   -0.1928 LP  0  0  0  0  0  0  0  0  0  0  0  0  # atno 5920 bound_to 698 
   21.0407   11.5530   -1.5970 LP  0  0  0  0  0  0  0  0  0  0  0  0  # atno 5921 bound_to 698 
   10.3503    3.4119   -3.4057 LP  0  0  0  0  0  0  0  0  0  0  0  0  # atno 5950 bound_to 2569
   10.8914    2.1652   -2.5004 LP  0  0  0  0  0  0  0  0  0  0  0  0  # atno 5951 bound_to 2569
    8.3853    6.2745    0.2352 LP  0  0  0  0  0  0  0  0  0  0  0  0  # atno 5982 bound_to 2887
    7.4767    5.1696    1.0229 LP  0  0  0  0  0  0  0  0  0  0  0  0  # atno 5983 bound_to 2887
   17.8742    1.9487   -0.4136 LP  0  0  0  0  0  0  0  0  0  0  0  0  # atno 6000 bound_to 3171
   18.9910    2.6497   -1.3769 LP  0  0  0  0  0  0  0  0  0  0  0  0  # atno 6001 bound_to 3171
   13.9377    9.8097   10.4367 LP  0  0  0  0  0  0  0  0  0  0  0  0  # atno 6004 bound_to 5270
   14.0630   10.2009    8.8562 LP  0  0  0  0  0  0  0  0  0  0  0  0  # atno 6005 bound_to 5270
    9.9062   19.7310    8.7187 LP  0  0  0  0  0  0  0  0  0  0  0  0  # atno 6055 bound_to 637 
   10.0978   18.9850    7.2787 LP  0  0  0  0  0  0  0  0  0  0  0  0  # atno 6056 bound_to 637 
    2.2812   11.6960   10.3784 LP  0  0  0  0  0  0  0  0  0  0  0  0  # atno 6063 bound_to 1878
    1.1867   10.5172   10.6598 LP  0  0  0  0  0  0  0  0  0  0  0  0  # atno 6064 bound_to 1878
   -6.4376   16.4754   -1.6366 LP  0  0  0  0  0  0  0  0  0  0  0  0  # atno 6067 bound_to 957 
   -7.0794   16.9624   -0.2162 LP  0  0  0  0  0  0  0  0  0  0  0  0  # atno 6068 bound_to 957 

>  <STRIFE_LigEff_Score>  (143) 
2.713555

$$$$
unknown|pharmsElabsTestMulti|sdf|144|dock9
     RDKit          3D

 17 17  0  0  0  0  0  0  0  0999 V2000
    3.3073    8.5809    2.4296 C   0  0  0  0  0  0  0  0  0  0  0  0
    3.6741    8.6926    3.8377 N   0  0  0  0  0  0  0  0  0  0  0  0
    4.7078    9.5739    4.3157 C   0  0  0  0  0  0  0  0  0  0  0  0
    5.0014    9.6415    5.5770 N   0  0  0  0  0  0  0  0  0  0  0  0
    5.5135   10.3972    3.3467 C   0  0  0  0  0  0  0  0  0  0  0  0
    6.9481   10.1034    3.4843 N   0  0  0  0  0  0  0  0  0  0  0  0
    7.6311    9.3292    2.4832 C   0  0  0  0  0  0  0  0  0  0  0  0
    6.9772    8.8614    1.5214 O   0  0  0  0  0  0  0  0  0  0  0  0
    9.0981    9.0173    2.4560 C   0  0  0  0  0  0  0  0  0  0  0  0
    9.4096    7.5448    2.3746 C   0  0  0  0  0  0  0  0  0  0  0  0
   10.8622    7.2720    2.0202 C   0  0  0  0  0  0  0  0  0  0  0  0
   11.9106    8.1696    2.6938 C   0  0  0  0  0  0  0  0  0  0  0  0
   13.2786    8.1803    1.9683 C   0  0  0  0  0  0  0  0  0  0  0  0
   13.7937    9.5043    1.4063 C   0  0  0  0  0  0  0  0  0  0  0  0
   13.4125    7.0829    1.0081 N   0  0  0  0  0  0  0  0  0  0  0  0
   11.4713    9.6188    3.0331 C   0  0  0  0  0  0  0  0  0  0  0  0
    9.9921    9.8438    3.3380 C   0  0  0  0  0  0  0  0  0  0  0  0
  1  2  1  0
  2  3  1  0
  3  4  2  0
  3  5  1  0
  5  6  1  0
  6  7  1  0
  7  8  2  0
  7  9  1  0
  9 10  1  0
 10 11  1  0
 11 12  1  0
 12 13  1  0
 13 14  1  0
 13 15  1  0
 12 16  1  0
 16 17  1  0
 17  9  1  0
M  CHG  1  15   1
M  END
>  <EmbedRMS>  (144) 
0.30183759959029793

>  <Gold.Version>  (144) 
2020.3.0

>  <Gold.Id.Protein>  (144) 
unknown|1q8t_protein|pdb

>  <Gold.PLP.Fitness>  (144) 
41.8008

>  <Gold.PLP.PLP>  (144) 
-33.1930

>  <Gold.PLP.part.hbond>  (144) 
-2.8898

>  <Gold.PLP.part.metal>  (144) 
0.0000

>  <Gold.PLP.part.buried>  (144) 
-2.1234

>  <Gold.PLP.part.nonpolar>  (144) 
-28.8879

>  <Gold.PLP.part.repulsive>  (144) 
0.1274

>  <Gold.PLP.ligand.clash>  (144) 
0.0000

>  <Gold.PLP.ligand.torsion>  (144) 
1.5462

>  <Gold.PLP.Chemscore.Hbond>  (144) 
3.6960

>  <Gold.PLP.Chemscore.CHOScore>  (144) 
0.0000

>  <Gold.PLP.Chemscore.Metal>  (144) 
0.0000

>  <Gold.Chemscore.Hbonds>  (144) 
donor molecule, donor type, donor heavy atom, donor atom, acceptor molecule, acceptor atom, score
      L1  H    15    36       P1  2691  0.82
      L1  H    15    37       P1  2902  2.00
      P1  H  2887  2891       L1     8  0.88

>  <Gold.PLP.Chemscore.Internal.Correction>  (144) 
0.6122

>  <Gold.PLP.Constraint>  (144) 
-0.0000

>  <Gold.Protein.RotatedTorsions>  (144) 
[  681  677  676  673 ] final -151.43 input -179.99 | X-H torsion
[  702  698  697  694 ] final   48.80 input  179.99 | X-H torsion
[ 2577 2569 2568 2566 ] final  -27.43 input   -0.13 | X-H torsion
[ 2891 2887 2886 2883 ] final  153.18 input  179.98 | X-H torsion
[ 3175 3171 3170 3167 ] final -141.23 input -179.99 | X-H torsion
[ 5278 5270 5269 5267 ] final  175.94 input    0.55 | X-H torsion
[  641  637  636  633 ] final -156.29 input  179.99 | X-H torsion
[ 1886 1878 1877 1875 ] final -106.92 input    1.60 | X-H torsion
[  965  957  956  954 ] final -153.23 input    0.45 | X-H torsion

>  <Gold.Protein.ActiveResidues>  (144) 
 LYS47   THR48   LEU49   GLY50   THR51   GLY52   SER53   PHE54   GLY55   ARG56  
 VAL57   MET58   LEU59   TYR69   ALA70   MET71   LYS72   ILE73   LEU74   GLU91  
 LEU95   VAL104  LYS105  MET118  VAL119  MET120  GLU121  TYR122  VAL123  PRO124 
 GLY125  GLY126  GLU127  MET128  PHE129  TYR164  ASP166  LEU167  LYS168  PRO169 
 GLU170  ASN171  LEU172  LEU173  ILE174  GLN181  VAL182  THR183  ASP184  PHE185 
 GLY186  PHE187  GLY200  THR201  ASN326  PHE327  TYR330  ARG18   ARG19   ASN20  
 ALA21   ILE22   HIS23  

>  <Gold.Protein.RotatedAtoms>  (144) 
   11.3351   19.2085    7.8882 H   0  0  0  0  0  0  0  0  0  0  0  0  # atno 641  bound_to 637 
   16.6413   13.9538    7.2825 H   0  0  0  0  0  0  0  0  0  0  0  0  # atno 681  bound_to 677 
   19.3822   11.8595   -1.3711 H   0  0  0  0  0  0  0  0  0  0  0  0  # atno 702  bound_to 698 
   -6.7210   17.1443   -0.9605 H   0  0  0  0  0  0  0  0  0  0  0  0  # atno 965  bound_to 957 
    1.0456   10.6200   10.7207 H   0  0  0  0  0  0  0  0  0  0  0  0  # atno 1886 bound_to 1878
   10.1713    3.3705   -3.4104 H   0  0  0  0  0  0  0  0  0  0  0  0  # atno 2577 bound_to 2569
    7.6706    6.9075    1.1893 H   0  0  0  0  0  0  0  0  0  0  0  0  # atno 2891 bound_to 2887
   18.5966    2.5652    0.3746 H   0  0  0  0  0  0  0  0  0  0  0  0  # atno 3175 bound_to 3171
   14.3778   10.1034    9.3343 H   0  0  0  0  0  0  0  0  0  0  0  0  # atno 5278 bound_to 5270
   17.0521   12.9817    6.0899 LP  0  0  0  0  0  0  0  0  0  0  0  0  # atno 5914 bound_to 677 
   15.6066   12.8292    6.8342 LP  0  0  0  0  0  0  0  0  0  0  0  0  # atno 5915 bound_to 677 
   20.4627   11.6289   -0.2237 LP  0  0  0  0  0  0  0  0  0  0  0  0  # atno 5920 bound_to 698 
   20.8916   11.5833   -1.7987 LP  0  0  0  0  0  0  0  0  0  0  0  0  # atno 5921 bound_to 698 
   10.9955    2.2907   -2.5798 LP  0  0  0  0  0  0  0  0  0  0  0  0  # atno 5950 bound_to 2569
    9.3655    2.2247   -2.6535 LP  0  0  0  0  0  0  0  0  0  0  0  0  # atno 5951 bound_to 2569
    8.3384    5.8619    0.1907 LP  0  0  0  0  0  0  0  0  0  0  0  0  # atno 5982 bound_to 2887
    7.2635    5.3732    1.3187 LP  0  0  0  0  0  0  0  0  0  0  0  0  # atno 5983 bound_to 2887
   18.0018    1.9694   -0.9770 LP  0  0  0  0  0  0  0  0  0  0  0  0  # atno 6000 bound_to 3171
   19.3152    2.9397   -0.9961 LP  0  0  0  0  0  0  0  0  0  0  0  0  # atno 6001 bound_to 3171
   12.8199   10.1508    9.0068 LP  0  0  0  0  0  0  0  0  0  0  0  0  # atno 6004 bound_to 5270
   13.3490    9.7860   10.5080 LP  0  0  0  0  0  0  0  0  0  0  0  0  # atno 6005 bound_to 5270
   10.2154   19.7866    8.8614 LP  0  0  0  0  0  0  0  0  0  0  0  0  # atno 6055 bound_to 637 
    9.8113   19.0850    7.4433 LP  0  0  0  0  0  0  0  0  0  0  0  0  # atno 6056 bound_to 637 
    0.9815   12.1799   11.0339 LP  0  0  0  0  0  0  0  0  0  0  0  0  # atno 6063 bound_to 1878
    2.3031   11.5190   10.3386 LP  0  0  0  0  0  0  0  0  0  0  0  0  # atno 6064 bound_to 1878
   -7.1942   15.9785    0.0153 LP  0  0  0  0  0  0  0  0  0  0  0  0  # atno 6067 bound_to 957 
   -6.5354   15.6372   -1.4393 LP  0  0  0  0  0  0  0  0  0  0  0  0  # atno 6068 bound_to 957 

>  <STRIFE_LigEff_Score>  (144) 
2.4588705882352944

$$$$
unknown|pharmsElabsTestMulti|sdf|145|dock2
     RDKit          3D

 17 17  0  0  0  0  0  0  0  0999 V2000
    3.9262    9.7602    5.5259 C   0  0  0  0  0  0  0  0  0  0  0  0
    4.5364   10.1352    4.1764 C   0  0  0  0  0  0  0  0  0  0  0  0
    4.8203    8.9008    3.3037 C   0  0  0  0  0  0  0  0  0  0  0  0
    3.6019    8.3895    2.8306 O   0  0  0  0  0  0  0  0  0  0  0  0
    5.7592    9.1988    2.1196 C   0  0  0  0  0  0  0  0  0  0  0  0
    7.0986    8.6669    2.3581 N   0  0  0  0  0  0  0  0  0  0  0  0
    7.9793    9.2009    3.3518 C   0  0  0  0  0  0  0  0  0  0  0  0
    7.5759   10.1025    4.1406 O   0  0  0  0  0  0  0  0  0  0  0  0
    9.3848    8.6677    3.4692 C   0  0  0  0  0  0  0  0  0  0  0  0
    9.7159    7.8375    2.2339 C   0  0  0  0  0  0  0  0  0  0  0  0
   11.0782    7.1744    2.3243 C   0  0  0  0  0  0  0  0  0  0  0  0
   12.1827    8.0399    2.9595 C   0  0  0  0  0  0  0  0  0  0  0  0
   13.6493    7.7262    2.4961 C   0  0  0  0  0  0  0  0  0  0  0  0
   14.5606    7.0545    3.5345 C   0  0  0  0  0  0  0  0  0  0  0  0
   13.6868    6.9787    1.2340 N   0  0  0  0  0  0  0  0  0  0  0  0
   11.8544    9.4647    3.4521 C   0  0  0  0  0  0  0  0  0  0  0  0
   10.3681    9.8332    3.6211 C   0  0  0  0  0  0  0  0  0  0  0  0
  1  2  1  0
  2  3  1  0
  3  4  1  0
  3  5  1  0
  5  6  1  0
  6  7  1  0
  7  8  2  0
  7  9  1  0
  9 10  1  0
 10 11  1  0
 11 12  1  0
 12 13  1  0
 13 14  1  0
 13 15  1  0
 12 16  1  0
 16 17  1  0
 17  9  1  0
M  CHG  1  15   1
M  END
>  <EmbedRMS>  (145) 
0.1692382603345377

>  <Gold.Version>  (145) 
2020.3.0

>  <Gold.Id.Protein>  (145) 
unknown|1q8t_protein|pdb

>  <Gold.PLP.Fitness>  (145) 
49.3343

>  <Gold.PLP.PLP>  (145) 
-41.0477

>  <Gold.PLP.part.hbond>  (145) 
-3.0000

>  <Gold.PLP.part.metal>  (145) 
0.0000

>  <Gold.PLP.part.buried>  (145) 
-4.9914

>  <Gold.PLP.part.nonpolar>  (145) 
-33.5899

>  <Gold.PLP.part.repulsive>  (145) 
0.0626

>  <Gold.PLP.ligand.clash>  (145) 
0.0581

>  <Gold.PLP.ligand.torsion>  (145) 
2.3431

>  <Gold.PLP.Chemscore.Hbond>  (145) 
4.0000

>  <Gold.PLP.Chemscore.CHOScore>  (145) 
0.0000

>  <Gold.PLP.Chemscore.Metal>  (145) 
0.0000

>  <Gold.Chemscore.Hbonds>  (145) 
donor molecule, donor type, donor heavy atom, donor atom, acceptor molecule, acceptor atom, score
      L1  H     6    27       P1  2887  1.00
      L1  H    15    39       P1  2691  1.00
      L1  H    15    40       P1  2902  2.00

>  <Gold.PLP.Chemscore.Internal.Correction>  (145) 
1.0310

>  <Gold.PLP.Constraint>  (145) 
-0.0000

>  <Gold.Protein.RotatedTorsions>  (145) 
[  681  677  676  673 ] final  -21.53 input -179.99 | X-H torsion
[  702  698  697  694 ] final  107.99 input  179.99 | X-H torsion
[ 2577 2569 2568 2566 ] final  -29.89 input   -0.13 | X-H torsion
[ 2891 2887 2886 2883 ] final    6.89 input  179.98 | X-H torsion
[ 3175 3171 3170 3167 ] final  113.95 input -179.99 | X-H torsion
[ 5278 5270 5269 5267 ] final  -87.83 input    0.55 | X-H torsion
[  641  637  636  633 ] final  -37.10 input  179.99 | X-H torsion
[ 1886 1878 1877 1875 ] final -168.94 input    1.60 | X-H torsion
[  965  957  956  954 ] final   62.41 input    0.45 | X-H torsion

>  <Gold.Protein.ActiveResidues>  (145) 
 LYS47   THR48   LEU49   GLY50   THR51   GLY52   SER53   PHE54   GLY55   ARG56  
 VAL57   MET58   LEU59   TYR69   ALA70   MET71   LYS72   ILE73   LEU74   GLU91  
 LEU95   VAL104  LYS105  MET118  VAL119  MET120  GLU121  TYR122  VAL123  PRO124 
 GLY125  GLY126  GLU127  MET128  PHE129  TYR164  ASP166  LEU167  LYS168  PRO169 
 GLU170  ASN171  LEU172  LEU173  ILE174  GLN181  VAL182  THR183  ASP184  PHE185 
 GLY186  PHE187  GLY200  THR201  ASN326  PHE327  TYR330  ARG18   ARG19   ASN20  
 ALA21   ILE22   HIS23  

>  <Gold.Protein.RotatedAtoms>  (145) 
    9.8528   19.0799    7.4741 H   0  0  0  0  0  0  0  0  0  0  0  0  # atno 641  bound_to 637 
   15.6903   12.7736    6.7016 H   0  0  0  0  0  0  0  0  0  0  0  0  # atno 681  bound_to 677 
   19.9993   11.7622   -1.9984 H   0  0  0  0  0  0  0  0  0  0  0  0  # atno 702  bound_to 698 
   -7.0845   15.6663   -0.1927 H   0  0  0  0  0  0  0  0  0  0  0  0  # atno 965  bound_to 957 
    0.6108   11.3685   11.0400 H   0  0  0  0  0  0  0  0  0  0  0  0  # atno 1886 bound_to 1878
   10.2097    3.3714   -3.4082 H   0  0  0  0  0  0  0  0  0  0  0  0  # atno 2577 bound_to 2569
    8.1397    5.5111    0.3115 H   0  0  0  0  0  0  0  0  0  0  0  0  # atno 2891 bound_to 2887
   17.9596    1.9482   -0.7339 H   0  0  0  0  0  0  0  0  0  0  0  0  # atno 3175 bound_to 3171
   13.7269    9.8181   10.4634 H   0  0  0  0  0  0  0  0  0  0  0  0  # atno 5278 bound_to 5270
   16.5121   13.9529    7.3873 LP  0  0  0  0  0  0  0  0  0  0  0  0  # atno 5914 bound_to 677 
   17.1475   13.1000    6.1482 LP  0  0  0  0  0  0  0  0  0  0  0  0  # atno 5915 bound_to 677 
   19.5773   11.7905   -0.4627 LP  0  0  0  0  0  0  0  0  0  0  0  0  # atno 5920 bound_to 698 
   21.1279   11.5241   -0.8998 LP  0  0  0  0  0  0  0  0  0  0  0  0  # atno 5921 bound_to 698 
   10.9748    2.2614   -2.5610 LP  0  0  0  0  0  0  0  0  0  0  0  0  # atno 5950 bound_to 2569
    9.3458    2.2531   -2.6746 LP  0  0  0  0  0  0  0  0  0  0  0  0  # atno 5951 bound_to 2569
    7.1462    5.7224    1.5382 LP  0  0  0  0  0  0  0  0  0  0  0  0  # atno 5982 bound_to 2887
    7.9621    6.9823    0.8951 LP  0  0  0  0  0  0  0  0  0  0  0  0  # atno 5983 bound_to 2887
   19.2034    2.8314   -1.1907 LP  0  0  0  0  0  0  0  0  0  0  0  0  # atno 6000 bound_to 3171
   18.7839    2.7270    0.3841 LP  0  0  0  0  0  0  0  0  0  0  0  0  # atno 6001 bound_to 3171
   14.2234   10.1692    8.9913 LP  0  0  0  0  0  0  0  0  0  0  0  0  # atno 6004 bound_to 5270
   12.6304   10.0677    9.3355 LP  0  0  0  0  0  0  0  0  0  0  0  0  # atno 6005 bound_to 5270
   11.3851   19.2216    7.8829 LP  0  0  0  0  0  0  0  0  0  0  0  0  # atno 6055 bound_to 637 
   10.2027   19.7855    8.8578 LP  0  0  0  0  0  0  0  0  0  0  0  0  # atno 6056 bound_to 637 
    1.8723   12.2604   10.6549 LP  0  0  0  0  0  0  0  0  0  0  0  0  # atno 6063 bound_to 1878
    1.8701   10.6506   10.3813 LP  0  0  0  0  0  0  0  0  0  0  0  0  # atno 6064 bound_to 1878
   -6.4505   15.9822   -1.6186 LP  0  0  0  0  0  0  0  0  0  0  0  0  # atno 6067 bound_to 957 
   -6.8962   17.1901   -0.6141 LP  0  0  0  0  0  0  0  0  0  0  0  0  # atno 6068 bound_to 957 

>  <STRIFE_LigEff_Score>  (145) 
2.9020176470588233

$$$$
unknown|pharmsElabsTestMulti|sdf|146|dock10
     RDKit          3D

 20 21  0  0  0  0  0  0  0  0999 V2000
   15.6170    6.5320    3.8033 C   0  0  0  0  0  0  0  0  0  0  0  0
   14.9803    7.9316    3.8404 C   0  0  0  0  0  0  0  0  0  0  0  0
   15.5462    8.7707    2.7799 N   0  0  0  0  0  0  0  0  0  0  0  0
   13.4105    7.9825    3.8756 C   0  0  0  0  0  0  0  0  0  0  0  0
   12.7408    7.3822    2.6403 C   0  0  0  0  0  0  0  0  0  0  0  0
   11.2203    7.3764    2.6678 C   0  0  0  0  0  0  0  0  0  0  0  0
   10.6338    8.6516    3.2238 C   0  0  0  0  0  0  0  0  0  0  0  0
    9.1560    8.7874    3.0000 C   0  0  0  0  0  0  0  0  0  0  0  0
    8.4487    7.9851    3.6552 O   0  0  0  0  0  0  0  0  0  0  0  0
    8.5134    9.7288    2.1243 N   0  0  0  0  0  0  0  0  0  0  0  0
    7.0651    9.6425    1.8820 C   0  0  0  0  0  0  0  0  0  0  0  0
    6.3083    9.7567    3.1818 C   0  0  0  0  0  0  0  0  0  0  0  0
    6.8870   10.3547    4.3164 C   0  0  0  0  0  0  0  0  0  0  0  0
    6.1831   10.3993    5.5254 C   0  0  0  0  0  0  0  0  0  0  0  0
    4.8997    9.8519    5.6094 C   0  0  0  0  0  0  0  0  0  0  0  0
    4.3166    9.2568    4.4856 C   0  0  0  0  0  0  0  0  0  0  0  0
    3.0374    8.7147    4.5766 O   0  0  0  0  0  0  0  0  0  0  0  0
    5.0226    9.2064    3.2775 C   0  0  0  0  0  0  0  0  0  0  0  0
   11.2028    9.1667    4.5267 C   0  0  0  0  0  0  0  0  0  0  0  0
   12.7383    9.2251    4.4923 C   0  0  0  0  0  0  0  0  0  0  0  0
  1  2  1  0
  2  3  1  0
  2  4  1  0
  4  5  1  0
  5  6  1  0
  6  7  1  0
  7  8  1  0
  8  9  2  0
  8 10  1  0
 10 11  1  0
 11 12  1  0
 12 13  2  0
 13 14  1  0
 14 15  2  0
 15 16  1  0
 16 17  1  0
 16 18  2  0
  7 19  1  0
 19 20  1  0
 20  4  1  0
 18 12  1  0
M  CHG  1   3   1
M  END
>  <EmbedRMS>  (146) 
0.24874902131530774

>  <Gold.Version>  (146) 
2020.3.0

>  <Gold.Id.Protein>  (146) 
unknown|1q8t_protein|pdb

>  <Gold.PLP.Fitness>  (146) 
51.8573

>  <Gold.PLP.PLP>  (146) 
-46.6553

>  <Gold.PLP.part.hbond>  (146) 
-2.9621

>  <Gold.PLP.part.metal>  (146) 
0.0000

>  <Gold.PLP.part.buried>  (146) 
-0.3284

>  <Gold.PLP.part.nonpolar>  (146) 
-44.4683

>  <Gold.PLP.part.repulsive>  (146) 
0.0987

>  <Gold.PLP.ligand.clash>  (146) 
0.0000

>  <Gold.PLP.ligand.torsion>  (146) 
0.7992

>  <Gold.PLP.Chemscore.Hbond>  (146) 
1.9913

>  <Gold.PLP.Chemscore.CHOScore>  (146) 
0.0000

>  <Gold.PLP.Chemscore.Metal>  (146) 
0.0000

>  <Gold.Chemscore.Hbonds>  (146) 
donor molecule, donor type, donor heavy atom, donor atom, acceptor molecule, acceptor atom, score
      L1  H     3    26       P1   675  1.00
      L1  H    17    40       P1  1891  0.99

>  <Gold.PLP.Chemscore.Internal.Correction>  (146) 
0.8266

>  <Gold.PLP.Constraint>  (146) 
-0.0000

>  <Gold.Protein.RotatedTorsions>  (146) 
[  681  677  676  673 ] final -141.60 input -179.99 | X-H torsion
[  702  698  697  694 ] final  -26.41 input  179.99 | X-H torsion
[ 2577 2569 2568 2566 ] final   88.57 input   -0.13 | X-H torsion
[ 2891 2887 2886 2883 ] final -101.76 input  179.98 | X-H torsion
[ 3175 3171 3170 3167 ] final  140.17 input -179.99 | X-H torsion
[ 5278 5270 5269 5267 ] final -162.61 input    0.55 | X-H torsion
[  641  637  636  633 ] final -163.03 input  179.99 | X-H torsion
[ 1886 1878 1877 1875 ] final  -56.31 input    1.60 | X-H torsion
[  965  957  956  954 ] final  -22.50 input    0.45 | X-H torsion

>  <Gold.Protein.ActiveResidues>  (146) 
 LYS47   THR48   LEU49   GLY50   THR51   GLY52   SER53   PHE54   GLY55   ARG56  
 VAL57   MET58   LEU59   TYR69   ALA70   MET71   LYS72   ILE73   LEU74   GLU91  
 LEU95   VAL104  LYS105  MET118  VAL119  MET120  GLU121  TYR122  VAL123  PRO124 
 GLY125  GLY126  GLU127  MET128  PHE129  TYR164  ASP166  LEU167  LYS168  PRO169 
 GLU170  ASN171  LEU172  LEU173  ILE174  GLN181  VAL182  THR183  ASP184  PHE185 
 GLY186  PHE187  GLY200  THR201  ASN326  PHE327  TYR330  ARG18   ARG19   ASN20  
 ALA21   ILE22   HIS23  

>  <Gold.Protein.RotatedAtoms>  (146) 
   11.3551   19.2546    7.9806 H   0  0  0  0  0  0  0  0  0  0  0  0  # atno 641  bound_to 637 
   16.5029   13.9295    7.3442 H   0  0  0  0  0  0  0  0  0  0  0  0  # atno 681  bound_to 677 
   19.7880   11.7680   -0.3595 H   0  0  0  0  0  0  0  0  0  0  0  0  # atno 702  bound_to 698 
   -6.5868   15.5557   -1.2886 H   0  0  0  0  0  0  0  0  0  0  0  0  # atno 965  bound_to 957 
    1.7469   10.6349   10.4140 H   0  0  0  0  0  0  0  0  0  0  0  0  # atno 1886 bound_to 1878
    9.3776    2.2803   -2.7116 H   0  0  0  0  0  0  0  0  0  0  0  0  # atno 2577 bound_to 2569
    7.1986    5.5859    1.4194 H   0  0  0  0  0  0  0  0  0  0  0  0  # atno 2891 bound_to 2887
   17.9284    1.9780   -0.3298 H   0  0  0  0  0  0  0  0  0  0  0  0  # atno 3175 bound_to 3171
   14.4253   10.0248    9.6549 H   0  0  0  0  0  0  0  0  0  0  0  0  # atno 5278 bound_to 5270
   17.1468   13.0991    6.1476 LP  0  0  0  0  0  0  0  0  0  0  0  0  # atno 5914 bound_to 677 
   15.6576   12.7373    6.7115 LP  0  0  0  0  0  0  0  0  0  0  0  0  # atno 5915 bound_to 677 
   21.1581   11.5232   -1.1343 LP  0  0  0  0  0  0  0  0  0  0  0  0  # atno 5920 bound_to 698 
   19.7693   11.7852   -1.9522 LP  0  0  0  0  0  0  0  0  0  0  0  0  # atno 5921 bound_to 698 
   10.2355    3.4197   -3.4195 LP  0  0  0  0  0  0  0  0  0  0  0  0  # atno 5950 bound_to 2569
   10.9612    2.2435   -2.5496 LP  0  0  0  0  0  0  0  0  0  0  0  0  # atno 5951 bound_to 2569
    7.8416    6.9919    1.0369 LP  0  0  0  0  0  0  0  0  0  0  0  0  # atno 5982 bound_to 2887
    8.2571    5.6342    0.2303 LP  0  0  0  0  0  0  0  0  0  0  0  0  # atno 5983 bound_to 2887
   18.9226    2.5948   -1.4100 LP  0  0  0  0  0  0  0  0  0  0  0  0  # atno 6000 bound_to 3171
   19.0976    2.9323    0.1781 LP  0  0  0  0  0  0  0  0  0  0  0  0  # atno 6001 bound_to 3171
   13.0956   10.2054    8.7969 LP  0  0  0  0  0  0  0  0  0  0  0  0  # atno 6004 bound_to 5270
   13.0233    9.8140   10.3806 LP  0  0  0  0  0  0  0  0  0  0  0  0  # atno 6005 bound_to 5270
   10.1108   19.7748    8.8269 LP  0  0  0  0  0  0  0  0  0  0  0  0  # atno 6055 bound_to 637 
    9.8949   19.0483    7.3804 LP  0  0  0  0  0  0  0  0  0  0  0  0  # atno 6056 bound_to 637 
    0.5815   11.4825   11.0913 LP  0  0  0  0  0  0  0  0  0  0  0  0  # atno 6063 bound_to 1878
    1.9648   12.2007   10.6040 LP  0  0  0  0  0  0  0  0  0  0  0  0  # atno 6064 bound_to 1878
   -6.6622   17.1381   -1.1293 LP  0  0  0  0  0  0  0  0  0  0  0  0  # atno 6067 bound_to 957 
   -7.2087   16.1507    0.0509 LP  0  0  0  0  0  0  0  0  0  0  0  0  # atno 6068 bound_to 957 

>  <STRIFE_LigEff_Score>  (146) 
2.592865

$$$$
unknown|pharmsElabsTestMulti|sdf|147|dock6
     RDKit          3D

 20 21  0  0  0  0  0  0  0  0999 V2000
    5.1037   10.0982    5.6108 C   0  0  0  0  0  0  0  0  0  0  0  0
    4.8800    9.6795    4.1890 C   0  0  0  0  0  0  0  0  0  0  0  0
    3.6769    9.0611    3.8197 C   0  0  0  0  0  0  0  0  0  0  0  0
    3.4556    8.6936    2.4911 C   0  0  0  0  0  0  0  0  0  0  0  0
    4.4229    8.9569    1.5189 C   0  0  0  0  0  0  0  0  0  0  0  0
    5.6269    9.5852    1.8677 C   0  0  0  0  0  0  0  0  0  0  0  0
    6.6388    9.8997    0.7933 C   0  0  0  0  0  0  0  0  0  0  0  0
    7.9940    9.9773    1.3604 N   0  0  0  0  0  0  0  0  0  0  0  0
    8.5035    8.9080    2.1761 C   0  0  0  0  0  0  0  0  0  0  0  0
    7.7530    7.9430    2.4554 O   0  0  0  0  0  0  0  0  0  0  0  0
    9.8858    8.8215    2.7536 C   0  0  0  0  0  0  0  0  0  0  0  0
   10.8408    7.9791    1.9225 C   0  0  0  0  0  0  0  0  0  0  0  0
   12.1630    7.6674    2.6149 C   0  0  0  0  0  0  0  0  0  0  0  0
   12.5756    8.7174    3.6630 C   0  0  0  0  0  0  0  0  0  0  0  0
   13.9907    8.3522    4.2226 C   0  0  0  0  0  0  0  0  0  0  0  0
   14.0274    6.8813    4.6756 C   0  0  0  0  0  0  0  0  0  0  0  0
   15.0602    8.5821    3.2415 N   0  0  0  0  0  0  0  0  0  0  0  0
   11.4892    8.7824    4.7666 C   0  0  0  0  0  0  0  0  0  0  0  0
   10.0376    8.9296    4.2591 C   0  0  0  0  0  0  0  0  0  0  0  0
    5.8499    9.9485    3.2088 C   0  0  0  0  0  0  0  0  0  0  0  0
  1  2  1  0
  2  3  2  0
  3  4  1  0
  4  5  2  0
  5  6  1  0
  6  7  1  0
  7  8  1  0
  8  9  1  0
  9 10  2  0
  9 11  1  0
 11 12  1  0
 12 13  1  0
 13 14  1  0
 14 15  1  0
 15 16  1  0
 15 17  1  0
 14 18  1  0
 18 19  1  0
  6 20  2  0
 20  2  1  0
 19 11  1  0
M  CHG  1  17   1
M  END
>  <EmbedRMS>  (147) 
0.16810927383701896

>  <Gold.Version>  (147) 
2020.3.0

>  <Gold.Id.Protein>  (147) 
unknown|1q8t_protein|pdb

>  <Gold.PLP.Fitness>  (147) 
52.4823

>  <Gold.PLP.PLP>  (147) 
-47.5613

>  <Gold.PLP.part.hbond>  (147) 
-1.8403

>  <Gold.PLP.part.metal>  (147) 
0.0000

>  <Gold.PLP.part.buried>  (147) 
-0.8169

>  <Gold.PLP.part.nonpolar>  (147) 
-45.7699

>  <Gold.PLP.part.repulsive>  (147) 
0.0058

>  <Gold.PLP.ligand.clash>  (147) 
0.0000

>  <Gold.PLP.ligand.torsion>  (147) 
0.9014

>  <Gold.PLP.Chemscore.Hbond>  (147) 
2.0000

>  <Gold.PLP.Chemscore.CHOScore>  (147) 
0.0000

>  <Gold.PLP.Chemscore.Metal>  (147) 
0.0000

>  <Gold.Chemscore.Hbonds>  (147) 
donor molecule, donor type, donor heavy atom, donor atom, acceptor molecule, acceptor atom, score
      L1  H    17    42       P1   675  1.00
      P1  H  2887  2891       L1    10  1.00

>  <Gold.PLP.Chemscore.Internal.Correction>  (147) 
0.7238

>  <Gold.PLP.Constraint>  (147) 
-0.0000

>  <Gold.Protein.RotatedTorsions>  (147) 
[  681  677  676  673 ] final   41.22 input -179.99 | X-H torsion
[  702  698  697  694 ] final   84.63 input  179.99 | X-H torsion
[ 2577 2569 2568 2566 ] final  169.30 input   -0.13 | X-H torsion
[ 2891 2887 2886 2883 ] final  167.04 input  179.98 | X-H torsion
[ 3175 3171 3170 3167 ] final  -89.13 input -179.99 | X-H torsion
[ 5278 5270 5269 5267 ] final  153.35 input    0.55 | X-H torsion
[  641  637  636  633 ] final   11.02 input  179.99 | X-H torsion
[ 1886 1878 1877 1875 ] final   71.60 input    1.60 | X-H torsion
[  965  957  956  954 ] final  -35.24 input    0.45 | X-H torsion

>  <Gold.Protein.ActiveResidues>  (147) 
 LYS47   THR48   LEU49   GLY50   THR51   GLY52   SER53   PHE54   GLY55   ARG56  
 VAL57   MET58   LEU59   TYR69   ALA70   MET71   LYS72   ILE73   LEU74   GLU91  
 LEU95   VAL104  LYS105  MET118  VAL119  MET120  GLU121  TYR122  VAL123  PRO124 
 GLY125  GLY126  GLU127  MET128  PHE129  TYR164  ASP166  LEU167  LYS168  PRO169 
 GLU170  ASN171  LEU172  LEU173  ILE174  GLN181  VAL182  THR183  ASP184  PHE185 
 GLY186  PHE187  GLY200  THR201  ASN326  PHE327  TYR330  ARG18   ARG19   ASN20  
 ALA21   ILE22   HIS23  

>  <Gold.Protein.RotatedAtoms>  (147) 
    9.5749   19.3991    8.0690 H   0  0  0  0  0  0  0  0  0  0  0  0  # atno 641  bound_to 637 
   16.4025   12.6289    6.1170 H   0  0  0  0  0  0  0  0  0  0  0  0  # atno 681  bound_to 677 
   19.6809   11.8154   -1.8324 H   0  0  0  0  0  0  0  0  0  0  0  0  # atno 702  bound_to 698 
   -6.5261   15.6926   -1.4191 H   0  0  0  0  0  0  0  0  0  0  0  0  # atno 965  bound_to 957 
    1.8370   12.2248   10.6454 H   0  0  0  0  0  0  0  0  0  0  0  0  # atno 1886 bound_to 1878
   10.4417    1.9415   -2.3984 H   0  0  0  0  0  0  0  0  0  0  0  0  # atno 2577 bound_to 2569
    7.5316    6.8187    1.3291 H   0  0  0  0  0  0  0  0  0  0  0  0  # atno 2891 bound_to 2887
   19.1833    2.9536    0.0228 H   0  0  0  0  0  0  0  0  0  0  0  0  # atno 3175 bound_to 3171
   14.2012   10.1743    9.0393 H   0  0  0  0  0  0  0  0  0  0  0  0  # atno 5278 bound_to 5270
   15.7082   13.3925    7.3298 LP  0  0  0  0  0  0  0  0  0  0  0  0  # atno 5914 bound_to 677 
   17.2019   13.8127    6.8210 LP  0  0  0  0  0  0  0  0  0  0  0  0  # atno 5915 bound_to 677 
   19.8926   11.7306   -0.2559 LP  0  0  0  0  0  0  0  0  0  0  0  0  # atno 5920 bound_to 698 
   21.1475   11.5280   -1.2811 LP  0  0  0  0  0  0  0  0  0  0  0  0  # atno 5921 bound_to 698 
    9.2594    2.7854   -3.0506 LP  0  0  0  0  0  0  0  0  0  0  0  0  # atno 5950 bound_to 2569
   10.8169    3.2346   -3.2484 LP  0  0  0  0  0  0  0  0  0  0  0  0  # atno 5951 bound_to 2569
    8.3790    6.0857    0.1973 LP  0  0  0  0  0  0  0  0  0  0  0  0  # atno 5982 bound_to 2887
    7.3692    5.2429    1.1650 LP  0  0  0  0  0  0  0  0  0  0  0  0  # atno 5983 bound_to 2887
   17.9124    2.0108   -0.1549 LP  0  0  0  0  0  0  0  0  0  0  0  0  # atno 6000 bound_to 3171
   18.7872    2.4895   -1.4480 LP  0  0  0  0  0  0  0  0  0  0  0  0  # atno 6001 bound_to 3171
   12.6363   10.0722    9.3176 LP  0  0  0  0  0  0  0  0  0  0  0  0  # atno 6004 bound_to 5270
   13.7184    9.7900   10.5076 LP  0  0  0  0  0  0  0  0  0  0  0  0  # atno 6005 bound_to 5270
   10.9166   18.9653    7.3297 LP  0  0  0  0  0  0  0  0  0  0  0  0  # atno 6055 bound_to 637 
   10.9638   19.7055    8.7845 LP  0  0  0  0  0  0  0  0  0  0  0  0  # atno 6056 bound_to 637 
    1.8772   10.6555   10.3790 LP  0  0  0  0  0  0  0  0  0  0  0  0  # atno 6063 bound_to 1878
    0.5743   11.3540   11.0726 LP  0  0  0  0  0  0  0  0  0  0  0  0  # atno 6064 bound_to 1878
   -6.7448   17.1972   -0.9465 LP  0  0  0  0  0  0  0  0  0  0  0  0  # atno 6067 bound_to 957 
   -7.1900   15.9474    0.0055 LP  0  0  0  0  0  0  0  0  0  0  0  0  # atno 6068 bound_to 957 

>  <STRIFE_LigEff_Score>  (147) 
2.624115

$$$$
unknown|pharmsElabsTestMulti|sdf|148|dock6
     RDKit          3D

 20 21  0  0  0  0  0  0  0  0999 V2000
    3.6541    8.8927    1.6947 C   0  0  0  0  0  0  0  0  0  0  0  0
    4.3150    9.2425    3.0017 C   0  0  0  0  0  0  0  0  0  0  0  0
    3.5404    9.2295    4.1741 C   0  0  0  0  0  0  0  0  0  0  0  0
    4.1195    9.5065    5.4126 C   0  0  0  0  0  0  0  0  0  0  0  0
    5.4793    9.8002    5.4989 C   0  0  0  0  0  0  0  0  0  0  0  0
    6.2646    9.8202    4.3454 C   0  0  0  0  0  0  0  0  0  0  0  0
    5.6977    9.5433    3.0879 C   0  0  0  0  0  0  0  0  0  0  0  0
    6.5959    9.5757    1.8755 C   0  0  0  0  0  0  0  0  0  0  0  0
    7.8280    8.8423    2.1413 N   0  0  0  0  0  0  0  0  0  0  0  0
    8.8843    9.3656    2.9560 C   0  0  0  0  0  0  0  0  0  0  0  0
    8.7823   10.5087    3.4795 O   0  0  0  0  0  0  0  0  0  0  0  0
   10.1112    8.5335    3.2040 C   0  0  0  0  0  0  0  0  0  0  0  0
   10.3180    7.5375    2.0647 C   0  0  0  0  0  0  0  0  0  0  0  0
   11.4662    6.5835    2.3594 C   0  0  0  0  0  0  0  0  0  0  0  0
   12.7524    7.2389    2.9304 C   0  0  0  0  0  0  0  0  0  0  0  0
   14.0937    7.0532    2.1940 C   0  0  0  0  0  0  0  0  0  0  0  0
   15.3538    6.8432    3.0333 C   0  0  0  0  0  0  0  0  0  0  0  0
   14.3111    8.0810    1.1668 N   0  0  0  0  0  0  0  0  0  0  0  0
   12.6058    8.6294    3.6213 C   0  0  0  0  0  0  0  0  0  0  0  0
   11.3410    9.4281    3.3129 C   0  0  0  0  0  0  0  0  0  0  0  0
  1  2  1  0
  2  3  2  0
  3  4  1  0
  4  5  2  0
  5  6  1  0
  6  7  2  0
  7  8  1  0
  8  9  1  0
  9 10  1  0
 10 11  2  0
 10 12  1  0
 12 13  1  0
 13 14  1  0
 14 15  1  0
 15 16  1  0
 16 17  1  0
 16 18  1  0
 15 19  1  0
 19 20  1  0
  7  2  1  0
 20 12  1  0
M  CHG  1  18   1
M  END
>  <EmbedRMS>  (148) 
0.19204016474732244

>  <Gold.Version>  (148) 
2020.3.0

>  <Gold.Id.Protein>  (148) 
unknown|1q8t_protein|pdb

>  <Gold.PLP.Fitness>  (148) 
55.7621

>  <Gold.PLP.PLP>  (148) 
-49.2261

>  <Gold.PLP.part.hbond>  (148) 
-1.9801

>  <Gold.PLP.part.metal>  (148) 
0.0000

>  <Gold.PLP.part.buried>  (148) 
4.8400

>  <Gold.PLP.part.nonpolar>  (148) 
-52.5190

>  <Gold.PLP.part.repulsive>  (148) 
0.0000

>  <Gold.PLP.ligand.clash>  (148) 
0.0000

>  <Gold.PLP.ligand.torsion>  (148) 
1.4507

>  <Gold.PLP.Chemscore.Hbond>  (148) 
3.0000

>  <Gold.PLP.Chemscore.CHOScore>  (148) 
0.0000

>  <Gold.PLP.Chemscore.Metal>  (148) 
0.0000

>  <Gold.Chemscore.Hbonds>  (148) 
donor molecule, donor type, donor heavy atom, donor atom, acceptor molecule, acceptor atom, score
      L1  H     9    30       P1  2887  1.00
      L1  H    18    41       P1  2902  2.00

>  <Gold.PLP.Chemscore.Internal.Correction>  (148) 
0.4374

>  <Gold.PLP.Constraint>  (148) 
-0.0000

>  <Gold.Protein.RotatedTorsions>  (148) 
[  681  677  676  673 ] final    7.41 input -179.99 | X-H torsion
[  702  698  697  694 ] final  -25.12 input  179.99 | X-H torsion
[ 2577 2569 2568 2566 ] final  -61.73 input   -0.13 | X-H torsion
[ 2891 2887 2886 2883 ] final -101.74 input  179.98 | X-H torsion
[ 3175 3171 3170 3167 ] final   58.63 input -179.99 | X-H torsion
[ 5278 5270 5269 5267 ] final -137.48 input    0.55 | X-H torsion
[  641  637  636  633 ] final  172.72 input  179.99 | X-H torsion
[ 1886 1878 1877 1875 ] final -110.77 input    1.60 | X-H torsion
[  965  957  956  954 ] final  177.39 input    0.45 | X-H torsion

>  <Gold.Protein.ActiveResidues>  (148) 
 LYS47   THR48   LEU49   GLY50   THR51   GLY52   SER53   PHE54   GLY55   ARG56  
 VAL57   MET58   LEU59   TYR69   ALA70   MET71   LYS72   ILE73   LEU74   GLU91  
 LEU95   VAL104  LYS105  MET118  VAL119  MET120  GLU121  TYR122  VAL123  PRO124 
 GLY125  GLY126  GLU127  MET128  PHE129  TYR164  ASP166  LEU167  LYS168  PRO169 
 GLU170  ASN171  LEU172  LEU173  ILE174  GLN181  VAL182  THR183  ASP184  PHE185 
 GLY186  PHE187  GLY200  THR201  ASN326  PHE327  TYR330  ARG18   ARG19   ASN20  
 ALA21   ILE22   HIS23  

>  <Gold.Protein.RotatedAtoms>  (148) 
   11.3255   19.4264    8.3139 H   0  0  0  0  0  0  0  0  0  0  0  0  # atno 641  bound_to 637 
   15.9516   12.6097    6.3773 H   0  0  0  0  0  0  0  0  0  0  0  0  # atno 681  bound_to 677 
   19.7710   11.7712   -0.3698 H   0  0  0  0  0  0  0  0  0  0  0  0  # atno 702  bound_to 698 
   -6.9091   17.1235   -0.5477 H   0  0  0  0  0  0  0  0  0  0  0  0  # atno 965  bound_to 957 
    0.9979   10.6462   10.7461 H   0  0  0  0  0  0  0  0  0  0  0  0  # atno 1886 bound_to 1878
   10.6762    3.2631   -3.2988 H   0  0  0  0  0  0  0  0  0  0  0  0  # atno 2577 bound_to 2569
    7.1987    5.5857    1.4192 H   0  0  0  0  0  0  0  0  0  0  0  0  # atno 2891 bound_to 2887
   18.4437    2.2260   -1.3503 H   0  0  0  0  0  0  0  0  0  0  0  0  # atno 3175 bound_to 3171
   14.3238    9.9337   10.0200 H   0  0  0  0  0  0  0  0  0  0  0  0  # atno 5278 bound_to 5270
   16.0870   13.7653    7.4647 LP  0  0  0  0  0  0  0  0  0  0  0  0  # atno 5914 bound_to 677 
   17.2976   13.4601    6.4121 LP  0  0  0  0  0  0  0  0  0  0  0  0  # atno 5915 bound_to 677 
   21.1578   11.5229   -1.1130 LP  0  0  0  0  0  0  0  0  0  0  0  0  # atno 5920 bound_to 698 
   19.7875   11.7822   -1.9626 LP  0  0  0  0  0  0  0  0  0  0  0  0  # atno 5921 bound_to 698 
   10.5914    1.9637   -2.3824 LP  0  0  0  0  0  0  0  0  0  0  0  0  # atno 5950 bound_to 2569
    9.2380    2.6648   -2.9684 LP  0  0  0  0  0  0  0  0  0  0  0  0  # atno 5951 bound_to 2569
    7.8414    6.9919    1.0371 LP  0  0  0  0  0  0  0  0  0  0  0  0  # atno 5982 bound_to 2887
    8.2572    5.6344    0.2303 LP  0  0  0  0  0  0  0  0  0  0  0  0  # atno 5983 bound_to 2887
   19.3712    3.0640   -0.3638 LP  0  0  0  0  0  0  0  0  0  0  0  0  # atno 6000 bound_to 3171
   18.1067    2.2020    0.2059 LP  0  0  0  0  0  0  0  0  0  0  0  0  # atno 6001 bound_to 3171
   13.4919   10.2346    8.6955 LP  0  0  0  0  0  0  0  0  0  0  0  0  # atno 6004 bound_to 5270
   12.7338    9.8807   10.0979 LP  0  0  0  0  0  0  0  0  0  0  0  0  # atno 6005 bound_to 5270
    9.7848   19.6871    8.6195 LP  0  0  0  0  0  0  0  0  0  0  0  0  # atno 6055 bound_to 637 
   10.2521   18.9549    7.2367 LP  0  0  0  0  0  0  0  0  0  0  0  0  # atno 6056 bound_to 637 
    1.0318   12.2147   11.0177 LP  0  0  0  0  0  0  0  0  0  0  0  0  # atno 6063 bound_to 1878
    2.3031   11.4567   10.3279 LP  0  0  0  0  0  0  0  0  0  0  0  0  # atno 6064 bound_to 1878
   -7.0905   15.5758   -0.2208 LP  0  0  0  0  0  0  0  0  0  0  0  0  # atno 6067 bound_to 957 
   -6.4409   16.0618   -1.6380 LP  0  0  0  0  0  0  0  0  0  0  0  0  # atno 6068 bound_to 957 

>  <STRIFE_LigEff_Score>  (148) 
2.788105

$$$$
unknown|pharmsElabsTestMulti|sdf|149|dock8
     RDKit          3D

 18 18  0  0  0  0  0  0  0  0999 V2000
   14.9134    7.8036    3.0524 C   0  0  0  0  0  0  0  0  0  0  0  0
   13.6859    7.6617    2.1525 C   0  0  0  0  0  0  0  0  0  0  0  0
   13.6647    8.7098    1.1230 N   0  0  0  0  0  0  0  0  0  0  0  0
   12.3113    7.4753    2.8234 C   0  0  0  0  0  0  0  0  0  0  0  0
   11.0861    7.0661    1.9624 C   0  0  0  0  0  0  0  0  0  0  0  0
    9.8996    8.0166    2.0160 C   0  0  0  0  0  0  0  0  0  0  0  0
    9.5963    8.4466    3.4481 C   0  0  0  0  0  0  0  0  0  0  0  0
    8.3349    9.2585    3.4943 C   0  0  0  0  0  0  0  0  0  0  0  0
    7.7723    9.6282    2.4251 O   0  0  0  0  0  0  0  0  0  0  0  0
    7.7930    9.6307    4.7632 N   0  0  0  0  0  0  0  0  0  0  0  0
    6.5641   10.3945    4.8882 C   0  0  0  0  0  0  0  0  0  0  0  0
    5.3448    9.4643    4.7332 C   0  0  0  0  0  0  0  0  0  0  0  0
    4.9678    9.2079    3.3265 N   0  0  0  0  0  0  0  0  0  0  0  0
    5.1004   10.4169    2.4985 C   0  0  0  0  0  0  0  0  0  0  0  0
    3.6202    8.6246    3.1709 C   0  0  0  0  0  0  0  0  0  0  0  0
    2.6008    9.5992    3.5379 N   0  0  0  0  0  0  0  0  0  0  0  0
   10.7670    9.2596    3.9873 C   0  0  0  0  0  0  0  0  0  0  0  0
   12.0606    8.4493    4.0154 C   0  0  0  0  0  0  0  0  0  0  0  0
  1  2  1  0
  2  3  1  0
  2  4  1  0
  4  5  1  0
  5  6  1  0
  6  7  1  0
  7  8  1  0
  8  9  2  0
  8 10  1  0
 10 11  1  0
 11 12  1  0
 12 13  1  0
 13 14  1  0
 13 15  1  0
 15 16  1  0
  7 17  1  0
 17 18  1  0
 18  4  1  0
M  CHG  1   3   1
M  END
>  <EmbedRMS>  (149) 
0.20589076450161456

>  <Gold.Version>  (149) 
2020.3.0

>  <Gold.Id.Protein>  (149) 
unknown|1q8t_protein|pdb

>  <Gold.PLP.Fitness>  (149) 
49.9440

>  <Gold.PLP.PLP>  (149) 
-39.5100

>  <Gold.PLP.part.hbond>  (149) 
-3.0000

>  <Gold.PLP.part.metal>  (149) 
0.0000

>  <Gold.PLP.part.buried>  (149) 
-5.2440

>  <Gold.PLP.part.nonpolar>  (149) 
-31.8983

>  <Gold.PLP.part.repulsive>  (149) 
0.0011

>  <Gold.PLP.ligand.clash>  (149) 
0.0000

>  <Gold.PLP.ligand.torsion>  (149) 
0.7777

>  <Gold.PLP.Chemscore.Hbond>  (149) 
3.8000

>  <Gold.PLP.Chemscore.CHOScore>  (149) 
0.0000

>  <Gold.PLP.Chemscore.Metal>  (149) 
0.0000

>  <Gold.Chemscore.Hbonds>  (149) 
donor molecule, donor type, donor heavy atom, donor atom, acceptor molecule, acceptor atom, score
      L1  H     3    23       P1  2902  2.00
      L1  H    16    42       P1  1855  1.00
      P1  H  1888  1903       L1    16  0.80

>  <Gold.PLP.Chemscore.Internal.Correction>  (149) 
0.5895

>  <Gold.PLP.Constraint>  (149) 
-0.0000

>  <Gold.Protein.RotatedTorsions>  (149) 
[  681  677  676  673 ] final   64.93 input -179.99 | X-H torsion
[  702  698  697  694 ] final  -70.40 input  179.99 | X-H torsion
[ 2577 2569 2568 2566 ] final   60.46 input   -0.13 | X-H torsion
[ 2891 2887 2886 2883 ] final -109.10 input  179.98 | X-H torsion
[ 3175 3171 3170 3167 ] final   23.54 input -179.99 | X-H torsion
[ 5278 5270 5269 5267 ] final -156.20 input    0.55 | X-H torsion
[  641  637  636  633 ] final  179.31 input  179.99 | X-H torsion
[ 1886 1878 1877 1875 ] final  131.31 input    1.60 | X-H torsion
[  965  957  956  954 ] final  -33.28 input    0.45 | X-H torsion

>  <Gold.Protein.ActiveResidues>  (149) 
 LYS47   THR48   LEU49   GLY50   THR51   GLY52   SER53   PHE54   GLY55   ARG56  
 VAL57   MET58   LEU59   TYR69   ALA70   MET71   LYS72   ILE73   LEU74   GLU91  
 LEU95   VAL104  LYS105  MET118  VAL119  MET120  GLU121  TYR122  VAL123  PRO124 
 GLY125  GLY126  GLU127  MET128  PHE129  TYR164  ASP166  LEU167  LYS168  PRO169 
 GLU170  ASN171  LEU172  LEU173  ILE174  GLN181  VAL182  THR183  ASP184  PHE185 
 GLY186  PHE187  GLY200  THR201  ASN326  PHE327  TYR330  ARG18   ARG19   ASN20  
 ALA21   ILE22   HIS23  

>  <Gold.Protein.RotatedAtoms>  (149) 
   11.3492   19.3799    8.2253 H   0  0  0  0  0  0  0  0  0  0  0  0  # atno 641  bound_to 637 
   16.7345   12.7761    6.0571 H   0  0  0  0  0  0  0  0  0  0  0  0  # atno 681  bound_to 677 
   20.4422   11.6502   -0.2653 H   0  0  0  0  0  0  0  0  0  0  0  0  # atno 702  bound_to 698 
   -6.5346   15.6695   -1.4009 H   0  0  0  0  0  0  0  0  0  0  0  0  # atno 965  bound_to 957 
    1.0194   12.1603   10.9949 H   0  0  0  0  0  0  0  0  0  0  0  0  # atno 1886 bound_to 1878
    9.2845    2.6262   -2.9585 H   0  0  0  0  0  0  0  0  0  0  0  0  # atno 2577 bound_to 2569
    7.1740    5.6850    1.4716 H   0  0  0  0  0  0  0  0  0  0  0  0  # atno 2891 bound_to 2887
   18.8788    2.5447   -1.3782 H   0  0  0  0  0  0  0  0  0  0  0  0  # atno 3175 bound_to 3171
   14.4153   10.0009    9.7516 H   0  0  0  0  0  0  0  0  0  0  0  0  # atno 5278 bound_to 5270
   15.5855   13.0964    7.1122 LP  0  0  0  0  0  0  0  0  0  0  0  0  # atno 5914 bound_to 677 
   16.9751   13.9540    7.1016 LP  0  0  0  0  0  0  0  0  0  0  0  0  # atno 5915 bound_to 677 
   20.9006   11.5815   -1.7892 LP  0  0  0  0  0  0  0  0  0  0  0  0  # atno 5920 bound_to 698 
   19.3387   11.8508   -1.3964 LP  0  0  0  0  0  0  0  0  0  0  0  0  # atno 5921 bound_to 698 
   10.6712    3.3208   -3.3189 LP  0  0  0  0  0  0  0  0  0  0  0  0  # atno 5950 bound_to 2569
   10.6234    1.9784   -2.3903 LP  0  0  0  0  0  0  0  0  0  0  0  0  # atno 5951 bound_to 2569
    7.9202    6.9899    0.9454 LP  0  0  0  0  0  0  0  0  0  0  0  0  # atno 5982 bound_to 2887
    8.2044    5.5319    0.2669 LP  0  0  0  0  0  0  0  0  0  0  0  0  # atno 5983 bound_to 2887
   19.1323    2.9530    0.1399 LP  0  0  0  0  0  0  0  0  0  0  0  0  # atno 6000 bound_to 3171
   17.8877    1.9777   -0.2683 LP  0  0  0  0  0  0  0  0  0  0  0  0  # atno 6001 bound_to 3171
   13.1917   10.2167    8.7551 LP  0  0  0  0  0  0  0  0  0  0  0  0  # atno 6004 bound_to 5270
   12.9378    9.8279   10.3207 LP  0  0  0  0  0  0  0  0  0  0  0  0  # atno 6005 bound_to 5270
    9.8635   19.7175    8.6876 LP  0  0  0  0  0  0  0  0  0  0  0  0  # atno 6055 bound_to 637 
   10.1484   18.9736    7.2620 LP  0  0  0  0  0  0  0  0  0  0  0  0  # atno 6056 bound_to 637 
    2.3035   11.4904   10.3335 LP  0  0  0  0  0  0  0  0  0  0  0  0  # atno 6063 bound_to 1878
    1.0087   10.5870   10.7502 LP  0  0  0  0  0  0  0  0  0  0  0  0  # atno 6064 bound_to 1878
   -6.7317   17.1910   -0.9753 LP  0  0  0  0  0  0  0  0  0  0  0  0  # atno 6067 bound_to 957 
   -7.1941   15.9779    0.0152 LP  0  0  0  0  0  0  0  0  0  0  0  0  # atno 6068 bound_to 957 

>  <STRIFE_LigEff_Score>  (149) 
2.7746666666666666

$$$$
unknown|pharmsElabsTestMulti|sdf|150|dock4
     RDKit          3D

 18 18  0  0  0  0  0  0  0  0999 V2000
    3.6711    8.5517    2.4860 C   0  0  0  0  0  0  0  0  0  0  0  0
    4.8817    9.0815    3.2591 C   0  0  0  0  0  0  0  0  0  0  0  0
    5.6040   10.1841    2.4586 C   0  0  0  0  0  0  0  0  0  0  0  0
    6.9916    9.7979    2.1576 N   0  0  0  0  0  0  0  0  0  0  0  0
    7.9662    9.6790    3.2069 C   0  0  0  0  0  0  0  0  0  0  0  0
    7.6662   10.0510    4.3666 O   0  0  0  0  0  0  0  0  0  0  0  0
    9.3490    9.1168    3.0613 C   0  0  0  0  0  0  0  0  0  0  0  0
    9.3801    7.6393    2.7620 C   0  0  0  0  0  0  0  0  0  0  0  0
   10.7485    7.1628    2.3039 C   0  0  0  0  0  0  0  0  0  0  0  0
   11.9596    7.7479    3.0449 C   0  0  0  0  0  0  0  0  0  0  0  0
   13.2898    7.6171    2.2627 C   0  0  0  0  0  0  0  0  0  0  0  0
   14.5881    7.4707    3.0545 C   0  0  0  0  0  0  0  0  0  0  0  0
   13.4065    8.6034    1.1867 N   0  0  0  0  0  0  0  0  0  0  0  0
   11.8043    9.1875    3.6034 C   0  0  0  0  0  0  0  0  0  0  0  0
   10.3996    9.6297    4.0066 C   0  0  0  0  0  0  0  0  0  0  0  0
    4.4503    9.5608    4.6233 C   0  0  0  0  0  0  0  0  0  0  0  0
    5.4107   10.0962    5.5332 N   0  0  0  0  0  0  0  0  0  0  0  0
    3.2396    9.4890    4.9705 O   0  0  0  0  0  0  0  0  0  0  0  0
  1  2  1  0
  2  3  1  0
  3  4  1  0
  4  5  1  0
  5  6  2  0
  5  7  1  0
  7  8  1  0
  8  9  1  0
  9 10  1  0
 10 11  1  0
 11 12  1  0
 11 13  1  0
 10 14  1  0
 14 15  1  0
  2 16  1  0
 16 17  1  0
 16 18  2  0
 15  7  1  0
M  CHG  1  13   1
M  END
>  <EmbedRMS>  (150) 
0.29404078451179205

>  <Gold.Version>  (150) 
2020.3.0

>  <Gold.Id.Protein>  (150) 
unknown|1q8t_protein|pdb

>  <Gold.PLP.Fitness>  (150) 
48.3981

>  <Gold.PLP.PLP>  (150) 
-41.8968

>  <Gold.PLP.part.hbond>  (150) 
-2.0000

>  <Gold.PLP.part.metal>  (150) 
0.0000

>  <Gold.PLP.part.buried>  (150) 
-7.1828

>  <Gold.PLP.part.nonpolar>  (150) 
-33.3365

>  <Gold.PLP.part.repulsive>  (150) 
0.1589

>  <Gold.PLP.ligand.clash>  (150) 
0.0000

>  <Gold.PLP.ligand.torsion>  (150) 
1.5586

>  <Gold.PLP.Chemscore.Hbond>  (150) 
2.9840

>  <Gold.PLP.Chemscore.CHOScore>  (150) 
0.0000

>  <Gold.PLP.Chemscore.Metal>  (150) 
0.0000

>  <Gold.Chemscore.Hbonds>  (150) 
donor molecule, donor type, donor heavy atom, donor atom, acceptor molecule, acceptor atom, score
      L1  H    13    37       P1  2902  1.98
      P1  H  1888  1903       L1    18  1.00

>  <Gold.PLP.Chemscore.Internal.Correction>  (150) 
0.6664

>  <Gold.PLP.Constraint>  (150) 
-0.0000

>  <Gold.Protein.RotatedTorsions>  (150) 
[  681  677  676  673 ] final  -26.85 input -179.99 | X-H torsion
[  702  698  697  694 ] final -167.22 input  179.99 | X-H torsion
[ 2577 2569 2568 2566 ] final  135.86 input   -0.13 | X-H torsion
[ 2891 2887 2886 2883 ] final  151.84 input  179.98 | X-H torsion
[ 3175 3171 3170 3167 ] final -103.66 input -179.99 | X-H torsion
[ 5278 5270 5269 5267 ] final  130.63 input    0.55 | X-H torsion
[  641  637  636  633 ] final   28.70 input  179.99 | X-H torsion
[ 1886 1878 1877 1875 ] final  -26.78 input    1.60 | X-H torsion
[  965  957  956  954 ] final   45.40 input    0.45 | X-H torsion

>  <Gold.Protein.ActiveResidues>  (150) 
 LYS47   THR48   LEU49   GLY50   THR51   GLY52   SER53   PHE54   GLY55   ARG56  
 VAL57   MET58   LEU59   TYR69   ALA70   MET71   LYS72   ILE73   LEU74   GLU91  
 LEU95   VAL104  LYS105  MET118  VAL119  MET120  GLU121  TYR122  VAL123  PRO124 
 GLY125  GLY126  GLU127  MET128  PHE129  TYR164  ASP166  LEU167  LYS168  PRO169 
 GLU170  ASN171  LEU172  LEU173  ILE174  GLN181  VAL182  THR183  ASP184  PHE185 
 GLY186  PHE187  GLY200  THR201  ASN326  PHE327  TYR330  ARG18   ARG19   ASN20  
 ALA21   ILE22   HIS23  

>  <Gold.Protein.RotatedAtoms>  (150) 
    9.6250   19.5200    8.3111 H   0  0  0  0  0  0  0  0  0  0  0  0  # atno 641  bound_to 637 
   15.6612   12.8192    6.7648 H   0  0  0  0  0  0  0  0  0  0  0  0  # atno 681  bound_to 677 
   21.0590   11.5638   -1.4524 H   0  0  0  0  0  0  0  0  0  0  0  0  # atno 702  bound_to 698 
   -7.0009   15.4989   -0.3801 H   0  0  0  0  0  0  0  0  0  0  0  0  # atno 965  bound_to 957 
    2.0799   10.9320   10.3179 H   0  0  0  0  0  0  0  0  0  0  0  0  # atno 1886 bound_to 1878
    9.9275    1.9206   -2.4215 H   0  0  0  0  0  0  0  0  0  0  0  0  # atno 2577 bound_to 2569
    7.6844    6.9135    1.1748 H   0  0  0  0  0  0  0  0  0  0  0  0  # atno 2891 bound_to 2887
   19.0456    2.8727    0.1835 H   0  0  0  0  0  0  0  0  0  0  0  0  # atno 3175 bound_to 3171
   13.9199   10.2226    8.8317 H   0  0  0  0  0  0  0  0  0  0  0  0  # atno 5278 bound_to 5270
   16.5916   13.9694    7.3545 LP  0  0  0  0  0  0  0  0  0  0  0  0  # atno 5914 bound_to 677 
   17.0987   13.0356    6.1145 LP  0  0  0  0  0  0  0  0  0  0  0  0  # atno 5915 bound_to 677 
   19.5130   11.8264   -1.7318 LP  0  0  0  0  0  0  0  0  0  0  0  0  # atno 5920 bound_to 698 
   20.0774   11.6969   -0.2050 LP  0  0  0  0  0  0  0  0  0  0  0  0  # atno 5921 bound_to 698 
    9.5265    3.1821   -3.3065 LP  0  0  0  0  0  0  0  0  0  0  0  0  # atno 5950 bound_to 2569
   11.0912    2.8599   -2.9681 LP  0  0  0  0  0  0  0  0  0  0  0  0  # atno 5951 bound_to 2569
    8.3327    5.8407    0.1923 LP  0  0  0  0  0  0  0  0  0  0  0  0  # atno 5982 bound_to 2887
    7.2548    5.3881    1.3324 LP  0  0  0  0  0  0  0  0  0  0  0  0  # atno 5983 bound_to 2887
   17.8754    1.9536   -0.3834 LP  0  0  0  0  0  0  0  0  0  0  0  0  # atno 6000 bound_to 3171
   18.9690    2.6319   -1.3887 LP  0  0  0  0  0  0  0  0  0  0  0  0  # atno 6001 bound_to 3171
   12.5902    9.9835    9.6753 LP  0  0  0  0  0  0  0  0  0  0  0  0  # atno 6004 bound_to 5270
   14.0606    9.8279   10.3684 LP  0  0  0  0  0  0  0  0  0  0  0  0  # atno 6005 bound_to 5270
   10.6438   18.9334    7.2374 LP  0  0  0  0  0  0  0  0  0  0  0  0  # atno 6055 bound_to 637 
   11.1839   19.6102    8.6219 LP  0  0  0  0  0  0  0  0  0  0  0  0  # atno 6056 bound_to 637 
    0.6376   11.0167   10.9871 LP  0  0  0  0  0  0  0  0  0  0  0  0  # atno 6063 bound_to 1878
    1.5581   12.3538   10.8093 LP  0  0  0  0  0  0  0  0  0  0  0  0  # atno 6064 bound_to 1878
   -6.4299   16.2575   -1.6582 LP  0  0  0  0  0  0  0  0  0  0  0  0  # atno 6067 bound_to 957 
   -7.0049   17.0911   -0.3771 LP  0  0  0  0  0  0  0  0  0  0  0  0  # atno 6068 bound_to 957 

>  <STRIFE_LigEff_Score>  (150) 
2.6887833333333333

$$$$
unknown|pharmsElabsTestMulti|sdf|151|dock2
     RDKit          3D

 17 17  0  0  0  0  0  0  0  0999 V2000
   14.6871    7.6059    3.1724 C   0  0  0  0  0  0  0  0  0  0  0  0
   13.6794    8.1084    2.1276 C   0  0  0  0  0  0  0  0  0  0  0  0
   13.6994    7.2364    0.9477 N   0  0  0  0  0  0  0  0  0  0  0  0
   12.2222    8.3796    2.6433 C   0  0  0  0  0  0  0  0  0  0  0  0
   11.1405    7.4051    2.1403 C   0  0  0  0  0  0  0  0  0  0  0  0
    9.7405    7.9852    2.0657 C   0  0  0  0  0  0  0  0  0  0  0  0
    9.4209    8.8933    3.2466 C   0  0  0  0  0  0  0  0  0  0  0  0
    7.9807    9.3329    3.1645 C   0  0  0  0  0  0  0  0  0  0  0  0
    7.6265   10.4520    3.6339 O   0  0  0  0  0  0  0  0  0  0  0  0
    7.0125    8.4650    2.5755 N   0  0  0  0  0  0  0  0  0  0  0  0
    5.6157    8.8605    2.4421 C   0  0  0  0  0  0  0  0  0  0  0  0
    5.0168    9.0586    3.7955 C   0  0  0  0  0  0  0  0  0  0  0  0
    5.7709    9.1979    4.7954 O   0  0  0  0  0  0  0  0  0  0  0  0
    3.5983    9.1675    3.9405 N   0  0  0  0  0  0  0  0  0  0  0  0
    3.0224    9.3957    5.1995 N   0  0  0  0  0  0  0  0  0  0  0  0
   10.3395   10.1201    3.2558 C   0  0  0  0  0  0  0  0  0  0  0  0
   11.8350    9.8208    3.0363 C   0  0  0  0  0  0  0  0  0  0  0  0
  1  2  1  0
  2  3  1  0
  2  4  1  0
  4  5  1  0
  5  6  1  0
  6  7  1  0
  7  8  1  0
  8  9  2  0
  8 10  1  0
 10 11  1  0
 11 12  1  0
 12 13  2  0
 12 14  1  0
 14 15  1  0
  7 16  1  0
 16 17  1  0
 17  4  1  0
M  CHG  1   3   1
M  END
>  <EmbedRMS>  (151) 
0.16865104847114704

>  <Gold.Version>  (151) 
2020.3.0

>  <Gold.Id.Protein>  (151) 
unknown|1q8t_protein|pdb

>  <Gold.PLP.Fitness>  (151) 
42.2112

>  <Gold.PLP.PLP>  (151) 
-29.0640

>  <Gold.PLP.part.hbond>  (151) 
-5.0000

>  <Gold.PLP.part.metal>  (151) 
0.0000

>  <Gold.PLP.part.buried>  (151) 
-3.7529

>  <Gold.PLP.part.nonpolar>  (151) 
-20.8464

>  <Gold.PLP.part.repulsive>  (151) 
0.1391

>  <Gold.PLP.ligand.clash>  (151) 
0.0068

>  <Gold.PLP.ligand.torsion>  (151) 
2.1572

>  <Gold.PLP.Chemscore.Hbond>  (151) 
5.6076

>  <Gold.PLP.Chemscore.CHOScore>  (151) 
0.0000

>  <Gold.PLP.Chemscore.Metal>  (151) 
0.0000

>  <Gold.Chemscore.Hbonds>  (151) 
donor molecule, donor type, donor heavy atom, donor atom, acceptor molecule, acceptor atom, score
      L1  H     3    23       P1  2691  1.00
      L1  H     3    24       P1  2902  2.00
      L1  H    10    31       P1  2887  1.00
      L1  H    15    35       P1  1891  0.61
      P1  H  1888  1903       L1    15  1.00

>  <Gold.PLP.Chemscore.Internal.Correction>  (151) 
0.6456

>  <Gold.PLP.Constraint>  (151) 
-0.0000

>  <Gold.Protein.RotatedTorsions>  (151) 
[  681  677  676  673 ] final   14.94 input -179.99 | X-H torsion
[  702  698  697  694 ] final   92.44 input  179.99 | X-H torsion
[ 2577 2569 2568 2566 ] final  -11.88 input   -0.13 | X-H torsion
[ 2891 2887 2886 2883 ] final    6.59 input  179.98 | X-H torsion
[ 3175 3171 3170 3167 ] final   95.51 input -179.99 | X-H torsion
[ 5278 5270 5269 5267 ] final   38.12 input    0.55 | X-H torsion
[  641  637  636  633 ] final  179.54 input  179.99 | X-H torsion
[ 1886 1878 1877 1875 ] final  145.37 input    1.60 | X-H torsion
[  965  957  956  954 ] final   77.67 input    0.45 | X-H torsion

>  <Gold.Protein.ActiveResidues>  (151) 
 LYS47   THR48   LEU49   GLY50   THR51   GLY52   SER53   PHE54   GLY55   ARG56  
 VAL57   MET58   LEU59   TYR69   ALA70   MET71   LYS72   ILE73   LEU74   GLU91  
 LEU95   VAL104  LYS105  MET118  VAL119  MET120  GLU121  TYR122  VAL123  PRO124 
 GLY125  GLY126  GLU127  MET128  PHE129  TYR164  ASP166  LEU167  LYS168  PRO169 
 GLU170  ASN171  LEU172  LEU173  ILE174  GLN181  VAL182  THR183  ASP184  PHE185 
 GLY186  PHE187  GLY200  THR201  ASN326  PHE327  TYR330  ARG18   ARG19   ASN20  
 ALA21   ILE22   HIS23  

>  <Gold.Protein.RotatedAtoms>  (151) 
   11.3498   19.3782    8.2222 H   0  0  0  0  0  0  0  0  0  0  0  0  # atno 641  bound_to 637 
   16.0428   12.5935    6.3047 H   0  0  0  0  0  0  0  0  0  0  0  0  # atno 681  bound_to 677 
   19.7797   11.7993   -1.9025 H   0  0  0  0  0  0  0  0  0  0  0  0  # atno 702  bound_to 698 
   -7.1390   15.8618   -0.0689 H   0  0  0  0  0  0  0  0  0  0  0  0  # atno 965  bound_to 957 
    0.8593   12.0180   11.0412 H   0  0  0  0  0  0  0  0  0  0  0  0  # atno 1886 bound_to 1878
    9.9318    3.3339   -3.4025 H   0  0  0  0  0  0  0  0  0  0  0  0  # atno 2577 bound_to 2569
    8.1373    5.5075    0.3133 H   0  0  0  0  0  0  0  0  0  0  0  0  # atno 2891 bound_to 2887
   18.0675    1.9938   -0.9959 H   0  0  0  0  0  0  0  0  0  0  0  0  # atno 3175 bound_to 3171
   12.7071   10.1022    9.2685 H   0  0  0  0  0  0  0  0  0  0  0  0  # atno 5278 bound_to 5270
   15.9868   13.6931    7.4553 LP  0  0  0  0  0  0  0  0  0  0  0  0  # atno 5914 bound_to 677 
   17.3019   13.5493    6.4980 LP  0  0  0  0  0  0  0  0  0  0  0  0  # atno 5915 bound_to 677 
   19.7782   11.7520   -0.3102 LP  0  0  0  0  0  0  0  0  0  0  0  0  # atno 5920 bound_to 698 
   21.1580   11.5236   -1.1531 LP  0  0  0  0  0  0  0  0  0  0  0  0  # atno 5921 bound_to 698 
   11.0901    2.4886   -2.7103 LP  0  0  0  0  0  0  0  0  0  0  0  0  # atno 5950 bound_to 2569
    9.5231    2.0654   -2.5313 LP  0  0  0  0  0  0  0  0  0  0  0  0  # atno 5951 bound_to 2569
    7.1456    5.7270    1.5400 LP  0  0  0  0  0  0  0  0  0  0  0  0  # atno 5982 bound_to 2887
    7.9652    6.9816    0.8912 LP  0  0  0  0  0  0  0  0  0  0  0  0  # atno 5983 bound_to 2887
   19.3331    2.9591   -0.9496 LP  0  0  0  0  0  0  0  0  0  0  0  0  # atno 6000 bound_to 3171
   18.5406    2.5513    0.4187 LP  0  0  0  0  0  0  0  0  0  0  0  0  # atno 6001 bound_to 3171
   13.6409    9.7862   10.5195 LP  0  0  0  0  0  0  0  0  0  0  0  0  # atno 6004 bound_to 5270
   14.2859   10.1518    9.0646 LP  0  0  0  0  0  0  0  0  0  0  0  0  # atno 6005 bound_to 5270
    9.8664   19.7185    8.6898 LP  0  0  0  0  0  0  0  0  0  0  0  0  # atno 6055 bound_to 637 
   10.1448   18.9744    7.2631 LP  0  0  0  0  0  0  0  0  0  0  0  0  # atno 6056 bound_to 637 
    2.2770   11.7142   10.3833 LP  0  0  0  0  0  0  0  0  0  0  0  0  # atno 6063 bound_to 1878
    1.2038   10.5131   10.6516 LP  0  0  0  0  0  0  0  0  0  0  0  0  # atno 6064 bound_to 1878
   -6.4967   15.7559   -1.5219 LP  0  0  0  0  0  0  0  0  0  0  0  0  # atno 6067 bound_to 957 
   -6.7926   17.2104   -0.8411 LP  0  0  0  0  0  0  0  0  0  0  0  0  # atno 6068 bound_to 957 

>  <STRIFE_LigEff_Score>  (151) 
2.483011764705882

$$$$
unknown|pharmsElabsTestMulti|sdf|152|dock2
     RDKit          3D

 20 21  0  0  0  0  0  0  0  0999 V2000
   14.8669    6.5106    4.0072 C   0  0  0  0  0  0  0  0  0  0  0  0
   14.2209    7.8950    4.1852 C   0  0  0  0  0  0  0  0  0  0  0  0
   14.9760    8.9034    3.4355 N   0  0  0  0  0  0  0  0  0  0  0  0
   12.6745    7.9817    3.9220 C   0  0  0  0  0  0  0  0  0  0  0  0
   12.2271    7.3200    2.6194 C   0  0  0  0  0  0  0  0  0  0  0  0
   10.7287    7.3486    2.3612 C   0  0  0  0  0  0  0  0  0  0  0  0
   10.0911    8.6683    2.7232 C   0  0  0  0  0  0  0  0  0  0  0  0
    8.6861    8.8215    2.2185 C   0  0  0  0  0  0  0  0  0  0  0  0
    7.9130    7.8810    2.5205 O   0  0  0  0  0  0  0  0  0  0  0  0
    8.1779    9.9202    1.4435 N   0  0  0  0  0  0  0  0  0  0  0  0
    6.8202    9.8615    0.8806 C   0  0  0  0  0  0  0  0  0  0  0  0
    5.8116    9.5971    1.9707 C   0  0  0  0  0  0  0  0  0  0  0  0
    4.5453    9.0561    1.6816 C   0  0  0  0  0  0  0  0  0  0  0  0
    3.6082    8.8712    2.7046 C   0  0  0  0  0  0  0  0  0  0  0  0
    3.9284    9.2207    4.0196 C   0  0  0  0  0  0  0  0  0  0  0  0
    5.1857    9.7580    4.3157 C   0  0  0  0  0  0  0  0  0  0  0  0
    5.4978   10.1027    5.6280 O   0  0  0  0  0  0  0  0  0  0  0  0
    6.1215    9.9490    3.2918 C   0  0  0  0  0  0  0  0  0  0  0  0
   10.4242    9.2513    4.0781 C   0  0  0  0  0  0  0  0  0  0  0  0
   11.9404    9.2745    4.3293 C   0  0  0  0  0  0  0  0  0  0  0  0
  1  2  1  0
  2  3  1  0
  2  4  1  0
  4  5  1  0
  5  6  1  0
  6  7  1  0
  7  8  1  0
  8  9  2  0
  8 10  1  0
 10 11  1  0
 11 12  1  0
 12 13  2  0
 13 14  1  0
 14 15  2  0
 15 16  1  0
 16 17  1  0
 16 18  2  0
  7 19  1  0
 19 20  1  0
 20  4  1  0
 18 12  1  0
M  CHG  1   3   1
M  END
>  <EmbedRMS>  (152) 
0.24874902131530774

>  <Gold.Version>  (152) 
2020.3.0

>  <Gold.Id.Protein>  (152) 
unknown|1q8t_protein|pdb

>  <Gold.PLP.Fitness>  (152) 
54.7808

>  <Gold.PLP.PLP>  (152) 
-49.8025

>  <Gold.PLP.part.hbond>  (152) 
-1.9144

>  <Gold.PLP.part.metal>  (152) 
0.0000

>  <Gold.PLP.part.buried>  (152) 
-3.8994

>  <Gold.PLP.part.nonpolar>  (152) 
-43.5183

>  <Gold.PLP.part.repulsive>  (152) 
0.0327

>  <Gold.PLP.ligand.clash>  (152) 
0.0000

>  <Gold.PLP.ligand.torsion>  (152) 
0.9296

>  <Gold.PLP.Chemscore.Hbond>  (152) 
1.9920

>  <Gold.PLP.Chemscore.CHOScore>  (152) 
0.0000

>  <Gold.PLP.Chemscore.Metal>  (152) 
0.0000

>  <Gold.Chemscore.Hbonds>  (152) 
donor molecule, donor type, donor heavy atom, donor atom, acceptor molecule, acceptor atom, score
      L1  H     3    25       P1   675  0.99
      P1  H  2887  2891       L1     9  1.00

>  <Gold.PLP.Chemscore.Internal.Correction>  (152) 
0.8616

>  <Gold.PLP.Constraint>  (152) 
-0.0000

>  <Gold.Protein.RotatedTorsions>  (152) 
[  681  677  676  673 ] final  101.00 input -179.99 | X-H torsion
[  702  698  697  694 ] final  132.85 input  179.99 | X-H torsion
[ 2577 2569 2568 2566 ] final  -31.71 input   -0.13 | X-H torsion
[ 2891 2887 2886 2883 ] final  173.69 input  179.98 | X-H torsion
[ 3175 3171 3170 3167 ] final -159.07 input -179.99 | X-H torsion
[ 5278 5270 5269 5267 ] final  133.24 input    0.55 | X-H torsion
[  641  637  636  633 ] final  104.41 input  179.99 | X-H torsion
[ 1886 1878 1877 1875 ] final  -83.85 input    1.60 | X-H torsion
[  965  957  956  954 ] final -140.93 input    0.45 | X-H torsion

>  <Gold.Protein.ActiveResidues>  (152) 
 LYS47   THR48   LEU49   GLY50   THR51   GLY52   SER53   PHE54   GLY55   ARG56  
 VAL57   MET58   LEU59   TYR69   ALA70   MET71   LYS72   ILE73   LEU74   GLU91  
 LEU95   VAL104  LYS105  MET118  VAL119  MET120  GLU121  TYR122  VAL123  PRO124 
 GLY125  GLY126  GLU127  MET128  PHE129  TYR164  ASP166  LEU167  LYS168  PRO169 
 GLU170  ASN171  LEU172  LEU173  ILE174  GLN181  VAL182  THR183  ASP184  PHE185 
 GLY186  PHE187  GLY200  THR201  ASN326  PHE327  TYR330  ARG18   ARG19   ASN20  
 ALA21   ILE22   HIS23  

>  <Gold.Protein.RotatedAtoms>  (152) 
   10.5474   19.7499    8.8622 H   0  0  0  0  0  0  0  0  0  0  0  0  # atno 641  bound_to 637 
   17.1254   13.1484    6.1842 H   0  0  0  0  0  0  0  0  0  0  0  0  # atno 681  bound_to 677 
   20.3786   11.6953   -2.0193 H   0  0  0  0  0  0  0  0  0  0  0  0  # atno 702  bound_to 698 
   -6.6460   17.0843   -1.1266 H   0  0  0  0  0  0  0  0  0  0  0  0  # atno 965  bound_to 957 
    1.3606   10.5426   10.5686 H   0  0  0  0  0  0  0  0  0  0  0  0  # atno 1886 bound_to 1878
   10.2379    3.3712   -3.4060 H   0  0  0  0  0  0  0  0  0  0  0  0  # atno 2577 bound_to 2569
    7.4689    6.7601    1.3876 H   0  0  0  0  0  0  0  0  0  0  0  0  # atno 2891 bound_to 2887
   18.3782    2.3982    0.3350 H   0  0  0  0  0  0  0  0  0  0  0  0  # atno 3175 bound_to 3171
   13.9562   10.2185    8.8499 H   0  0  0  0  0  0  0  0  0  0  0  0  # atno 5278 bound_to 5270
   15.6750   12.7155    6.6791 LP  0  0  0  0  0  0  0  0  0  0  0  0  # atno 5914 bound_to 677 
   16.4742   13.9430    7.4010 LP  0  0  0  0  0  0  0  0  0  0  0  0  # atno 5915 bound_to 677 
   19.3602   11.8356   -0.8025 LP  0  0  0  0  0  0  0  0  0  0  0  0  # atno 5920 bound_to 698 
   20.9460   11.5493   -0.5380 LP  0  0  0  0  0  0  0  0  0  0  0  0  # atno 5921 bound_to 698 
   10.9586    2.2403   -2.5476 LP  0  0  0  0  0  0  0  0  0  0  0  0  # atno 5950 bound_to 2569
    9.3322    2.2744   -2.6904 LP  0  0  0  0  0  0  0  0  0  0  0  0  # atno 5951 bound_to 2569
    8.3858    6.1933    0.2152 LP  0  0  0  0  0  0  0  0  0  0  0  0  # atno 5982 bound_to 2887
    7.4284    5.1969    1.0854 LP  0  0  0  0  0  0  0  0  0  0  0  0  # atno 5983 bound_to 2887
   18.1615    2.0578   -1.2054 LP  0  0  0  0  0  0  0  0  0  0  0  0  # atno 6000 bound_to 3171
   19.3853    3.0270   -0.7261 LP  0  0  0  0  0  0  0  0  0  0  0  0  # atno 6001 bound_to 3171
   12.5880    9.9937    9.6336 LP  0  0  0  0  0  0  0  0  0  0  0  0  # atno 6004 bound_to 5270
   14.0245    9.8219   10.3909 LP  0  0  0  0  0  0  0  0  0  0  0  0  # atno 6005 bound_to 5270
    9.6158   19.2194    7.6850 LP  0  0  0  0  0  0  0  0  0  0  0  0  # atno 6055 bound_to 637 
   11.2405   19.0821    7.5939 LP  0  0  0  0  0  0  0  0  0  0  0  0  # atno 6056 bound_to 637 
    0.7305   11.9057   11.0978 LP  0  0  0  0  0  0  0  0  0  0  0  0  # atno 6063 bound_to 1878
    2.2225   11.8747   10.4347 LP  0  0  0  0  0  0  0  0  0  0  0  0  # atno 6064 bound_to 1878
   -7.2097   16.1763    0.0536 LP  0  0  0  0  0  0  0  0  0  0  0  0  # atno 6067 bound_to 957 
   -6.5989   15.5025   -1.3027 LP  0  0  0  0  0  0  0  0  0  0  0  0  # atno 6068 bound_to 957 

>  <STRIFE_LigEff_Score>  (152) 
2.73904

$$$$
unknown|pharmsElabsTestMulti|sdf|153|dock9
     RDKit          3D

 16 16  0  0  0  0  0  0  0  0999 V2000
    3.6080    9.5071    3.1398 C   0  0  0  0  0  0  0  0  0  0  0  0
    3.5883    9.9180    4.6048 C   0  0  0  0  0  0  0  0  0  0  0  0
    4.8857    9.4932    5.3007 C   0  0  0  0  0  0  0  0  0  0  0  0
    6.0414   10.4224    4.9330 C   0  0  0  0  0  0  0  0  0  0  0  0
    7.3025    9.6889    4.9000 N   0  0  0  0  0  0  0  0  0  0  0  0
    8.0492    9.5376    3.6923 C   0  0  0  0  0  0  0  0  0  0  0  0
    7.6434   10.0725    2.6226 O   0  0  0  0  0  0  0  0  0  0  0  0
    9.3309    8.7512    3.7122 C   0  0  0  0  0  0  0  0  0  0  0  0
    9.5137    7.9985    2.3972 C   0  0  0  0  0  0  0  0  0  0  0  0
   10.7232    7.0766    2.4475 C   0  0  0  0  0  0  0  0  0  0  0  0
   12.0098    7.6924    3.0599 C   0  0  0  0  0  0  0  0  0  0  0  0
   13.3066    7.7324    2.2279 C   0  0  0  0  0  0  0  0  0  0  0  0
   14.6347    7.8786    2.9704 C   0  0  0  0  0  0  0  0  0  0  0  0
   13.2216    8.6828    1.1106 N   0  0  0  0  0  0  0  0  0  0  0  0
   11.8386    8.9164    4.0112 C   0  0  0  0  0  0  0  0  0  0  0  0
   10.5195    9.6814    3.9265 C   0  0  0  0  0  0  0  0  0  0  0  0
  1  2  1  0
  2  3  1  0
  3  4  1  0
  4  5  1  0
  5  6  1  0
  6  7  2  0
  6  8  1  0
  8  9  1  0
  9 10  1  0
 10 11  1  0
 11 12  1  0
 12 13  1  0
 12 14  1  0
 11 15  1  0
 15 16  1  0
 16  8  1  0
M  CHG  1  14   1
M  END
>  <EmbedRMS>  (153) 
0.21476017337867526

>  <Gold.Version>  (153) 
2020.3.0

>  <Gold.Id.Protein>  (153) 
unknown|1q8t_protein|pdb

>  <Gold.PLP.Fitness>  (153) 
45.1656

>  <Gold.PLP.PLP>  (153) 
-41.1411

>  <Gold.PLP.part.hbond>  (153) 
-1.0000

>  <Gold.PLP.part.metal>  (153) 
0.0000

>  <Gold.PLP.part.buried>  (153) 
-3.8736

>  <Gold.PLP.part.nonpolar>  (153) 
-36.0364

>  <Gold.PLP.part.repulsive>  (153) 
0.0000

>  <Gold.PLP.ligand.clash>  (153) 
0.0000

>  <Gold.PLP.ligand.torsion>  (153) 
1.1910

>  <Gold.PLP.Chemscore.Hbond>  (153) 
2.0000

>  <Gold.PLP.Chemscore.CHOScore>  (153) 
0.0000

>  <Gold.PLP.Chemscore.Metal>  (153) 
0.0000

>  <Gold.Chemscore.Hbonds>  (153) 
donor molecule, donor type, donor heavy atom, donor atom, acceptor molecule, acceptor atom, score
      L1  H    14    39       P1  2902  2.00

>  <Gold.PLP.Chemscore.Internal.Correction>  (153) 
0.4066

>  <Gold.PLP.Constraint>  (153) 
-0.0000

>  <Gold.Protein.RotatedTorsions>  (153) 
[  681  677  676  673 ] final  -73.06 input -179.99 | X-H torsion
[  702  698  697  694 ] final  -80.34 input  179.99 | X-H torsion
[ 2577 2569 2568 2566 ] final   82.22 input   -0.13 | X-H torsion
[ 2891 2887 2886 2883 ] final -176.80 input  179.98 | X-H torsion
[ 3175 3171 3170 3167 ] final -112.06 input -179.99 | X-H torsion
[ 5278 5270 5269 5267 ] final -106.12 input    0.55 | X-H torsion
[  641  637  636  633 ] final  118.17 input  179.99 | X-H torsion
[ 1886 1878 1877 1875 ] final   80.10 input    1.60 | X-H torsion
[  965  957  956  954 ] final -104.73 input    0.45 | X-H torsion

>  <Gold.Protein.ActiveResidues>  (153) 
 LYS47   THR48   LEU49   GLY50   THR51   GLY52   SER53   PHE54   GLY55   ARG56  
 VAL57   MET58   LEU59   TYR69   ALA70   MET71   LYS72   ILE73   LEU74   GLU91  
 LEU95   VAL104  LYS105  MET118  VAL119  MET120  GLU121  TYR122  VAL123  PRO124 
 GLY125  GLY126  GLU127  MET128  PHE129  TYR164  ASP166  LEU167  LYS168  PRO169 
 GLU170  ASN171  LEU172  LEU173  ILE174  GLN181  VAL182  THR183  ASP184  PHE185 
 GLY186  PHE187  GLY200  THR201  ASN326  PHE327  TYR330  ARG18   ARG19   ASN20  
 ALA21   ILE22   HIS23  

>  <Gold.Protein.RotatedAtoms>  (153) 
   10.7570   19.7204    8.8274 H   0  0  0  0  0  0  0  0  0  0  0  0  # atno 641  bound_to 637 
   15.6979   13.3290    7.2475 H   0  0  0  0  0  0  0  0  0  0  0  0  # atno 681  bound_to 677 
   20.5871   11.6255   -0.3155 H   0  0  0  0  0  0  0  0  0  0  0  0  # atno 702  bound_to 698 
   -6.4790   16.7087   -1.5014 H   0  0  0  0  0  0  0  0  0  0  0  0  # atno 965  bound_to 957 
    1.7270   12.2727   10.7021 H   0  0  0  0  0  0  0  0  0  0  0  0  # atno 1886 bound_to 1878
    9.3385    2.3539   -2.7655 H   0  0  0  0  0  0  0  0  0  0  0  0  # atno 2577 bound_to 2569
    7.3860    6.6603    1.4597 H   0  0  0  0  0  0  0  0  0  0  0  0  # atno 2891 bound_to 2887
   18.9536    2.8142    0.2566 H   0  0  0  0  0  0  0  0  0  0  0  0  # atno 3175 bound_to 3171
   13.9913    9.8461   10.3612 H   0  0  0  0  0  0  0  0  0  0  0  0  # atno 5278 bound_to 5270
   17.1578   13.8565    6.8918 LP  0  0  0  0  0  0  0  0  0  0  0  0  # atno 5914 bound_to 677 
   16.4938   12.6119    6.0692 LP  0  0  0  0  0  0  0  0  0  0  0  0  # atno 5915 bound_to 677 
   20.7798   11.6050   -1.8966 LP  0  0  0  0  0  0  0  0  0  0  0  0  # atno 5920 bound_to 698 
   19.3071   11.8533   -1.2361 LP  0  0  0  0  0  0  0  0  0  0  0  0  # atno 5921 bound_to 698 
   10.3390    3.4132   -3.4074 LP  0  0  0  0  0  0  0  0  0  0  0  0  # atno 5950 bound_to 2569
   10.8988    2.1726   -2.5050 LP  0  0  0  0  0  0  0  0  0  0  0  0  # atno 5951 bound_to 2569
    8.3808    6.3438    0.2570 LP  0  0  0  0  0  0  0  0  0  0  0  0  # atno 5982 bound_to 2887
    7.5206    5.1515    0.9677 LP  0  0  0  0  0  0  0  0  0  0  0  0  # atno 5983 bound_to 2887
   17.8762    1.9362   -0.5205 LP  0  0  0  0  0  0  0  0  0  0  0  0  # atno 6000 bound_to 3171
   19.0651    2.7109   -1.3285 LP  0  0  0  0  0  0  0  0  0  0  0  0  # atno 6001 bound_to 3171
   13.9878   10.2113    8.8109 LP  0  0  0  0  0  0  0  0  0  0  0  0  # atno 6004 bound_to 5270
   12.5878    9.9962    9.6234 LP  0  0  0  0  0  0  0  0  0  0  0  0  # atno 6005 bound_to 5270
    9.5458   19.3202    7.8747 LP  0  0  0  0  0  0  0  0  0  0  0  0  # atno 6055 bound_to 637 
   11.0897   19.0123    7.4407 LP  0  0  0  0  0  0  0  0  0  0  0  0  # atno 6056 bound_to 637 
    1.9826   10.7417   10.3473 LP  0  0  0  0  0  0  0  0  0  0  0  0  # atno 6063 bound_to 1878
    0.5848   11.2175   11.0447 LP  0  0  0  0  0  0  0  0  0  0  0  0  # atno 6064 bound_to 1878
   -7.1528   16.7483   -0.0594 LP  0  0  0  0  0  0  0  0  0  0  0  0  # atno 6067 bound_to 957 
   -6.8316   15.3261   -0.7949 LP  0  0  0  0  0  0  0  0  0  0  0  0  # atno 6068 bound_to 957 

>  <STRIFE_LigEff_Score>  (153) 
2.82285

$$$$
unknown|pharmsElabsTestMulti|sdf|154|dock9
     RDKit          3D

 17 17  0  0  0  0  0  0  0  0999 V2000
   14.6400    7.6810    3.3971 C   0  0  0  0  0  0  0  0  0  0  0  0
   13.3696    7.6503    2.5491 C   0  0  0  0  0  0  0  0  0  0  0  0
   13.4394    8.5736    1.4147 N   0  0  0  0  0  0  0  0  0  0  0  0
   12.0003    7.7005    3.2705 C   0  0  0  0  0  0  0  0  0  0  0  0
   10.8573    7.0618    2.4683 C   0  0  0  0  0  0  0  0  0  0  0  0
    9.4466    7.4592    2.8677 C   0  0  0  0  0  0  0  0  0  0  0  0
    9.3240    8.9287    3.1795 C   0  0  0  0  0  0  0  0  0  0  0  0
    7.9089    9.4127    3.2684 C   0  0  0  0  0  0  0  0  0  0  0  0
    7.3039    9.4861    2.1716 O   0  0  0  0  0  0  0  0  0  0  0  0
    7.2274    9.7994    4.4728 N   0  0  0  0  0  0  0  0  0  0  0  0
    5.8892   10.4010    4.4093 C   0  0  0  0  0  0  0  0  0  0  0  0
    4.8617    9.5087    5.1286 C   0  0  0  0  0  0  0  0  0  0  0  0
    3.4549    9.6325    4.5278 C   0  0  0  0  0  0  0  0  0  0  0  0
    3.3115    8.8878    3.1998 C   0  0  0  0  0  0  0  0  0  0  0  0
    3.2862    9.8017    2.1391 O   0  0  0  0  0  0  0  0  0  0  0  0
   10.3006    9.4843    4.1786 C   0  0  0  0  0  0  0  0  0  0  0  0
   11.7438    9.1223    3.8370 C   0  0  0  0  0  0  0  0  0  0  0  0
  1  2  1  0
  2  3  1  0
  2  4  1  0
  4  5  1  0
  5  6  1  0
  6  7  1  0
  7  8  1  0
  8  9  2  0
  8 10  1  0
 10 11  1  0
 11 12  1  0
 12 13  1  0
 13 14  1  0
 14 15  1  0
  7 16  1  0
 16 17  1  0
 17  4  1  0
M  CHG  1   3   1
M  END
>  <EmbedRMS>  (154) 
0.3028787039700591

>  <Gold.Version>  (154) 
2020.3.0

>  <Gold.Id.Protein>  (154) 
unknown|1q8t_protein|pdb

>  <Gold.PLP.Fitness>  (154) 
49.6233

>  <Gold.PLP.PLP>  (154) 
-42.5090

>  <Gold.PLP.part.hbond>  (154) 
-2.0000

>  <Gold.PLP.part.metal>  (154) 
0.0000

>  <Gold.PLP.part.buried>  (154) 
-3.4243

>  <Gold.PLP.part.nonpolar>  (154) 
-36.9522

>  <Gold.PLP.part.repulsive>  (154) 
0.0000

>  <Gold.PLP.ligand.clash>  (154) 
0.0000

>  <Gold.PLP.ligand.torsion>  (154) 
1.2886

>  <Gold.PLP.Chemscore.Hbond>  (154) 
3.0000

>  <Gold.PLP.Chemscore.CHOScore>  (154) 
0.0000

>  <Gold.PLP.Chemscore.Metal>  (154) 
0.0000

>  <Gold.Chemscore.Hbonds>  (154) 
donor molecule, donor type, donor heavy atom, donor atom, acceptor molecule, acceptor atom, score
      L1  H     3    23       P1  2902  2.00
      L1  H    15    40       P1  1855  1.00

>  <Gold.PLP.Chemscore.Internal.Correction>  (154) 
0.6914

>  <Gold.PLP.Constraint>  (154) 
-0.0000

>  <Gold.Protein.RotatedTorsions>  (154) 
[  681  677  676  673 ] final  151.52 input -179.99 | X-H torsion
[  702  698  697  694 ] final   43.58 input  179.99 | X-H torsion
[ 2577 2569 2568 2566 ] final  -24.04 input   -0.13 | X-H torsion
[ 2891 2887 2886 2883 ] final  -60.26 input  179.98 | X-H torsion
[ 3175 3171 3170 3167 ] final    6.88 input -179.99 | X-H torsion
[ 5278 5270 5269 5267 ] final   89.22 input    0.55 | X-H torsion
[  641  637  636  633 ] final   69.37 input  179.99 | X-H torsion
[ 1886 1878 1877 1875 ] final    9.85 input    1.60 | X-H torsion
[  965  957  956  954 ] final  -40.15 input    0.45 | X-H torsion

>  <Gold.Protein.ActiveResidues>  (154) 
 LYS47   THR48   LEU49   GLY50   THR51   GLY52   SER53   PHE54   GLY55   ARG56  
 VAL57   MET58   LEU59   TYR69   ALA70   MET71   LYS72   ILE73   LEU74   GLU91  
 LEU95   VAL104  LYS105  MET118  VAL119  MET120  GLU121  TYR122  VAL123  PRO124 
 GLY125  GLY126  GLU127  MET128  PHE129  TYR164  ASP166  LEU167  LYS168  PRO169 
 GLU170  ASN171  LEU172  LEU173  ILE174  GLN181  VAL182  THR183  ASP184  PHE185 
 GLY186  PHE187  GLY200  THR201  ASN326  PHE327  TYR330  ARG18   ARG19   ASN20  
 ALA21   ILE22   HIS23  

>  <Gold.Protein.RotatedAtoms>  (154) 
   10.0217   19.7202    8.7466 H   0  0  0  0  0  0  0  0  0  0  0  0  # atno 641  bound_to 637 
   17.2114   13.7139    6.6915 H   0  0  0  0  0  0  0  0  0  0  0  0  # atno 681  bound_to 677 
   19.3643   11.8611   -1.2914 H   0  0  0  0  0  0  0  0  0  0  0  0  # atno 702  bound_to 698 
   -6.5062   15.7534   -1.4615 H   0  0  0  0  0  0  0  0  0  0  0  0  # atno 965  bound_to 957 
    2.2532   11.4673   10.3328 H   0  0  0  0  0  0  0  0  0  0  0  0  # atno 1886 bound_to 1878
   10.1184    3.3671   -3.4119 H   0  0  0  0  0  0  0  0  0  0  0  0  # atno 2577 bound_to 2569
    7.4876    5.2123    0.9951 H   0  0  0  0  0  0  0  0  0  0  0  0  # atno 2891 bound_to 2887
   19.0647    2.6955   -1.2779 H   0  0  0  0  0  0  0  0  0  0  0  0  # atno 3175 bound_to 3171
   13.2887   10.2298    8.7758 H   0  0  0  0  0  0  0  0  0  0  0  0  # atno 5278 bound_to 5270
   16.2628   12.5531    6.1541 LP  0  0  0  0  0  0  0  0  0  0  0  0  # atno 5914 bound_to 677 
   15.7959   13.5102    7.3921 LP  0  0  0  0  0  0  0  0  0  0  0  0  # atno 5915 bound_to 677 
   20.5436   11.6151   -0.2493 LP  0  0  0  0  0  0  0  0  0  0  0  0  # atno 5920 bound_to 698 
   20.8296   11.5954   -1.8569 LP  0  0  0  0  0  0  0  0  0  0  0  0  # atno 5921 bound_to 698 
   11.0215    2.3321   -2.6067 LP  0  0  0  0  0  0  0  0  0  0  0  0  # atno 5950 bound_to 2569
    9.3951    2.1869   -2.6251 LP  0  0  0  0  0  0  0  0  0  0  0  0  # atno 5951 bound_to 2569
    7.4099    6.7293    1.4740 LP  0  0  0  0  0  0  0  0  0  0  0  0  # atno 5982 bound_to 2887
    8.3846    6.2899    0.2397 LP  0  0  0  0  0  0  0  0  0  0  0  0  # atno 5983 bound_to 2887
   18.9470    2.8372    0.3038 LP  0  0  0  0  0  0  0  0  0  0  0  0  # atno 6000 bound_to 3171
   17.8774    1.9348   -0.5379 LP  0  0  0  0  0  0  0  0  0  0  0  0  # atno 6001 bound_to 3171
   12.8712    9.8415   10.2630 LP  0  0  0  0  0  0  0  0  0  0  0  0  # atno 6004 bound_to 5270
   14.4437    9.9623    9.8394 LP  0  0  0  0  0  0  0  0  0  0  0  0  # atno 6005 bound_to 5270
    9.9987   19.0120    7.3208 LP  0  0  0  0  0  0  0  0  0  0  0  0  # atno 6055 bound_to 637 
   11.4112   19.3207    8.0798 LP  0  0  0  0  0  0  0  0  0  0  0  0  # atno 6056 bound_to 637 
    0.9898   10.5976   10.7604 LP  0  0  0  0  0  0  0  0  0  0  0  0  # atno 6063 bound_to 1878
    1.0236   12.2094   11.0204 LP  0  0  0  0  0  0  0  0  0  0  0  0  # atno 6064 bound_to 1878
   -6.7779   17.2079   -0.8735 LP  0  0  0  0  0  0  0  0  0  0  0  0  # atno 6067 bound_to 957 
   -7.1778   15.8726   -0.0228 LP  0  0  0  0  0  0  0  0  0  0  0  0  # atno 6068 bound_to 957 

>  <STRIFE_LigEff_Score>  (154) 
2.9190176470588236

$$$$
unknown|pharmsElabsTestMulti|sdf|155|dock7
     RDKit          3D

 18 18  0  0  0  0  0  0  0  0999 V2000
   14.2812    9.2347    1.8439 C   0  0  0  0  0  0  0  0  0  0  0  0
   13.3701    8.0195    1.8175 C   0  0  0  0  0  0  0  0  0  0  0  0
   13.7187    7.0127    0.8214 N   0  0  0  0  0  0  0  0  0  0  0  0
   11.8556    8.2707    2.0809 C   0  0  0  0  0  0  0  0  0  0  0  0
   10.9557    7.0475    2.3193 C   0  0  0  0  0  0  0  0  0  0  0  0
    9.4666    7.4170    2.1772 C   0  0  0  0  0  0  0  0  0  0  0  0
    9.1653    8.8960    2.4084 C   0  0  0  0  0  0  0  0  0  0  0  0
    7.7152    9.2147    2.4915 C   0  0  0  0  0  0  0  0  0  0  0  0
    7.0111    8.8790    1.5082 O   0  0  0  0  0  0  0  0  0  0  0  0
    7.1120    9.8234    3.6279 N   0  0  0  0  0  0  0  0  0  0  0  0
    5.7932   10.4079    3.5805 C   0  0  0  0  0  0  0  0  0  0  0  0
    4.6764    9.5917    4.2368 C   0  0  0  0  0  0  0  0  0  0  0  0
    4.2044    9.7795    5.6761 C   0  0  0  0  0  0  0  0  0  0  0  0
    3.7022    9.1451    3.1415 C   0  0  0  0  0  0  0  0  0  0  0  0
    4.0955    9.2042    1.6737 C   0  0  0  0  0  0  0  0  0  0  0  0
    2.4108    9.5027    3.4732 O   0  0  0  0  0  0  0  0  0  0  0  0
   10.0963    9.7405    3.2657 C   0  0  0  0  0  0  0  0  0  0  0  0
   11.5801    9.3355    3.1618 C   0  0  0  0  0  0  0  0  0  0  0  0
  1  2  1  0
  2  3  1  0
  2  4  1  0
  4  5  1  0
  5  6  1  0
  6  7  1  0
  7  8  1  0
  8  9  2  0
  8 10  1  0
 10 11  1  0
 11 12  1  0
 12 13  1  0
 12 14  1  0
 14 15  1  0
 14 16  1  0
  7 17  1  0
 17 18  1  0
 18  4  1  0
M  CHG  1   3   1
M  END
>  <EmbedRMS>  (155) 
0.38250517418353436

>  <Gold.Version>  (155) 
2020.3.0

>  <Gold.Id.Protein>  (155) 
unknown|1q8t_protein|pdb

>  <Gold.PLP.Fitness>  (155) 
55.6949

>  <Gold.PLP.PLP>  (155) 
-41.4891

>  <Gold.PLP.part.hbond>  (155) 
-5.0000

>  <Gold.PLP.part.metal>  (155) 
0.0000

>  <Gold.PLP.part.buried>  (155) 
2.4073

>  <Gold.PLP.part.nonpolar>  (155) 
-39.2034

>  <Gold.PLP.part.repulsive>  (155) 
0.0679

>  <Gold.PLP.ligand.clash>  (155) 
0.0000

>  <Gold.PLP.ligand.torsion>  (155) 
2.1574

>  <Gold.PLP.Chemscore.Hbond>  (155) 
5.5363

>  <Gold.PLP.Chemscore.CHOScore>  (155) 
0.0000

>  <Gold.PLP.Chemscore.Metal>  (155) 
0.0000

>  <Gold.Chemscore.Hbonds>  (155) 
donor molecule, donor type, donor heavy atom, donor atom, acceptor molecule, acceptor atom, score
      L1  H     3    23       P1  2902  2.00
      L1  H     3    24       P1  2691  1.00
      L1  H    16    43       P1  1855  0.99
      P1  H  2887  2891       L1     9  0.87
      P1  H  1888  1903       L1    16  0.67

>  <Gold.PLP.Chemscore.Internal.Correction>  (155) 
1.9117

>  <Gold.PLP.Constraint>  (155) 
-0.0000

>  <Gold.Protein.RotatedTorsions>  (155) 
[  681  677  676  673 ] final   23.21 input -179.99 | X-H torsion
[  702  698  697  694 ] final   32.12 input  179.99 | X-H torsion
[ 2577 2569 2568 2566 ] final  110.42 input   -0.13 | X-H torsion
[ 2891 2887 2886 2883 ] final  154.68 input  179.98 | X-H torsion
[ 3175 3171 3170 3167 ] final -167.10 input -179.99 | X-H torsion
[ 5278 5270 5269 5267 ] final   43.97 input    0.55 | X-H torsion
[  641  637  636  633 ] final   46.28 input  179.99 | X-H torsion
[ 1886 1878 1877 1875 ] final  -53.19 input    1.60 | X-H torsion
[  965  957  956  954 ] final  -65.74 input    0.45 | X-H torsion

>  <Gold.Protein.ActiveResidues>  (155) 
 LYS47   THR48   LEU49   GLY50   THR51   GLY52   SER53   PHE54   GLY55   ARG56  
 VAL57   MET58   LEU59   TYR69   ALA70   MET71   LYS72   ILE73   LEU74   GLU91  
 LEU95   VAL104  LYS105  MET118  VAL119  MET120  GLU121  TYR122  VAL123  PRO124 
 GLY125  GLY126  GLU127  MET128  PHE129  TYR164  ASP166  LEU167  LYS168  PRO169 
 GLU170  ASN171  LEU172  LEU173  ILE174  GLN181  VAL182  THR183  ASP184  PHE185 
 GLY186  PHE187  GLY200  THR201  ASN326  PHE327  TYR330  ARG18   ARG19   ASN20  
 ALA21   ILE22   HIS23  

>  <Gold.Protein.RotatedAtoms>  (155) 
    9.7538   19.6240    8.5289 H   0  0  0  0  0  0  0  0  0  0  0  0  # atno 641  bound_to 637 
   16.1506   12.5892    6.2337 H   0  0  0  0  0  0  0  0  0  0  0  0  # atno 681  bound_to 677 
   19.3504   11.8601   -1.1130 H   0  0  0  0  0  0  0  0  0  0  0  0  # atno 702  bound_to 698 
   -6.4409   16.1202   -1.5974 H   0  0  0  0  0  0  0  0  0  0  0  0  # atno 965  bound_to 957 
    1.7878   10.6575   10.3999 H   0  0  0  0  0  0  0  0  0  0  0  0  # atno 1886 bound_to 1878
    9.5832    2.0658   -2.5476 H   0  0  0  0  0  0  0  0  0  0  0  0  # atno 2577 bound_to 2569
    7.6552    6.9002    1.2054 H   0  0  0  0  0  0  0  0  0  0  0  0  # atno 2891 bound_to 2887
   18.2870    2.3248    0.2899 H   0  0  0  0  0  0  0  0  0  0  0  0  # atno 3175 bound_to 3171
   12.7474   10.1222    9.1890 H   0  0  0  0  0  0  0  0  0  0  0  0  # atno 5278 bound_to 5270
   15.8858   13.6055    7.4309 LP  0  0  0  0  0  0  0  0  0  0  0  0  # atno 5914 bound_to 677 
   17.2894   13.6415    6.5971 LP  0  0  0  0  0  0  0  0  0  0  0  0  # atno 5915 bound_to 677 
   20.7109   11.5870   -0.3308 LP  0  0  0  0  0  0  0  0  0  0  0  0  # atno 5920 bound_to 698 
   20.6768   11.6245   -1.9630 LP  0  0  0  0  0  0  0  0  0  0  0  0  # atno 5921 bound_to 698 
    9.8818    3.3700   -3.4109 LP  0  0  0  0  0  0  0  0  0  0  0  0  # atno 5950 bound_to 2569
   11.0985    2.5192   -2.7309 LP  0  0  0  0  0  0  0  0  0  0  0  0  # atno 5951 bound_to 2569
    8.3445    5.8858    0.1894 LP  0  0  0  0  0  0  0  0  0  0  0  0  # atno 5982 bound_to 2887
    7.2736    5.3570    1.3031 LP  0  0  0  0  0  0  0  0  0  0  0  0  # atno 5983 bound_to 2887
   18.2494    2.1121   -1.2877 LP  0  0  0  0  0  0  0  0  0  0  0  0  # atno 6000 bound_to 3171
   19.3934    3.0500   -0.5963 LP  0  0  0  0  0  0  0  0  0  0  0  0  # atno 6001 bound_to 3171
   13.5450    9.7837   10.5255 LP  0  0  0  0  0  0  0  0  0  0  0  0  # atno 6004 bound_to 5270
   14.3394   10.1332    9.1422 LP  0  0  0  0  0  0  0  0  0  0  0  0  # atno 6005 bound_to 5270
   10.3562   18.9418    7.2225 LP  0  0  0  0  0  0  0  0  0  0  0  0  # atno 6055 bound_to 637 
   11.3358   19.4922    8.4074 LP  0  0  0  0  0  0  0  0  0  0  0  0  # atno 6056 bound_to 637 
    0.5767   11.4318   11.0848 LP  0  0  0  0  0  0  0  0  0  0  0  0  # atno 6063 bound_to 1878
    1.9266   12.2276   10.6254 LP  0  0  0  0  0  0  0  0  0  0  0  0  # atno 6064 bound_to 1878
   -6.9498   17.1523   -0.4970 LP  0  0  0  0  0  0  0  0  0  0  0  0  # atno 6067 bound_to 957 
   -7.0748   15.5420   -0.2561 LP  0  0  0  0  0  0  0  0  0  0  0  0  # atno 6068 bound_to 957 

>  <STRIFE_LigEff_Score>  (155) 
3.094161111111111

$$$$
unknown|pharmsElabsTestMulti|sdf|156|dock8
     RDKit          3D

 16 16  0  0  0  0  0  0  0  0999 V2000
   14.0065    7.1547    3.6518 C   0  0  0  0  0  0  0  0  0  0  0  0
   13.6955    8.0616    2.4472 C   0  0  0  0  0  0  0  0  0  0  0  0
   14.0366    7.3510    1.2071 N   0  0  0  0  0  0  0  0  0  0  0  0
   12.2007    8.5234    2.4814 C   0  0  0  0  0  0  0  0  0  0  0  0
   11.2911    7.2994    2.2685 C   0  0  0  0  0  0  0  0  0  0  0  0
    9.8092    7.6463    2.1772 C   0  0  0  0  0  0  0  0  0  0  0  0
    9.4206    8.9207    2.9109 C   0  0  0  0  0  0  0  0  0  0  0  0
    7.9384    9.1137    3.0368 C   0  0  0  0  0  0  0  0  0  0  0  0
    7.2563    8.6137    2.1100 O   0  0  0  0  0  0  0  0  0  0  0  0
    7.2697    9.8065    4.1038 N   0  0  0  0  0  0  0  0  0  0  0  0
    5.8269   10.0827    4.0328 C   0  0  0  0  0  0  0  0  0  0  0  0
    5.1089    9.6031    5.3001 C   0  0  0  0  0  0  0  0  0  0  0  0
    3.7307   10.0958    5.3516 N   0  0  0  0  0  0  0  0  0  0  0  0
    3.0157    9.4858    4.3050 N   0  0  0  0  0  0  0  0  0  0  0  0
   10.3070    9.5048    3.9948 C   0  0  0  0  0  0  0  0  0  0  0  0
   11.8132    9.2141    3.8136 C   0  0  0  0  0  0  0  0  0  0  0  0
  1  2  1  0
  2  3  1  0
  2  4  1  0
  4  5  1  0
  5  6  1  0
  6  7  1  0
  7  8  1  0
  8  9  2  0
  8 10  1  0
 10 11  1  0
 11 12  1  0
 12 13  1  0
 13 14  1  0
  7 15  1  0
 15 16  1  0
 16  4  1  0
M  CHG  1   3   1
M  END
>  <EmbedRMS>  (156) 
0.18953983231979948

>  <Gold.Version>  (156) 
2020.3.0

>  <Gold.Id.Protein>  (156) 
unknown|1q8t_protein|pdb

>  <Gold.PLP.Fitness>  (156) 
48.3516

>  <Gold.PLP.PLP>  (156) 
-33.5371

>  <Gold.PLP.part.hbond>  (156) 
-4.0000

>  <Gold.PLP.part.metal>  (156) 
0.0000

>  <Gold.PLP.part.buried>  (156) 
-5.6103

>  <Gold.PLP.part.nonpolar>  (156) 
-24.0302

>  <Gold.PLP.part.repulsive>  (156) 
0.0362

>  <Gold.PLP.ligand.clash>  (156) 
0.0000

>  <Gold.PLP.ligand.torsion>  (156) 
0.4698

>  <Gold.PLP.Chemscore.Hbond>  (156) 
5.0000

>  <Gold.PLP.Chemscore.CHOScore>  (156) 
0.0000

>  <Gold.PLP.Chemscore.Metal>  (156) 
0.0000

>  <Gold.Chemscore.Hbonds>  (156) 
donor molecule, donor type, donor heavy atom, donor atom, acceptor molecule, acceptor atom, score
      L1  H     3    21       P1  2902  2.00
      L1  H     3    22       P1  2691  1.00
      P1  H  2887  2891       L1     9  1.00
      P1  H  1888  1903       L1    14  1.00

>  <Gold.PLP.Chemscore.Internal.Correction>  (156) 
0.7540

>  <Gold.PLP.Constraint>  (156) 
-0.0000

>  <Gold.Protein.RotatedTorsions>  (156) 
[  681  677  676  673 ] final -160.31 input -179.99 | X-H torsion
[  702  698  697  694 ] final  -20.00 input  179.99 | X-H torsion
[ 2577 2569 2568 2566 ] final   83.60 input   -0.13 | X-H torsion
[ 2891 2887 2886 2883 ] final  144.65 input  179.98 | X-H torsion
[ 3175 3171 3170 3167 ] final  129.29 input -179.99 | X-H torsion
[ 5278 5270 5269 5267 ] final -158.50 input    0.55 | X-H torsion
[  641  637  636  633 ] final  -71.63 input  179.99 | X-H torsion
[ 1886 1878 1877 1875 ] final   35.93 input    1.60 | X-H torsion
[  965  957  956  954 ] final  168.41 input    0.45 | X-H torsion

>  <Gold.Protein.ActiveResidues>  (156) 
 LYS47   THR48   LEU49   GLY50   THR51   GLY52   SER53   PHE54   GLY55   ARG56  
 VAL57   MET58   LEU59   TYR69   ALA70   MET71   LYS72   ILE73   LEU74   GLU91  
 LEU95   VAL104  LYS105  MET118  VAL119  MET120  GLU121  TYR122  VAL123  PRO124 
 GLY125  GLY126  GLU127  MET128  PHE129  TYR164  ASP166  LEU167  LYS168  PRO169 
 GLU170  ASN171  LEU172  LEU173  ILE174  GLN181  VAL182  THR183  ASP184  PHE185 
 GLY186  PHE187  GLY200  THR201  ASN326  PHE327  TYR330  ARG18   ARG19   ASN20  
 ALA21   ILE22   HIS23  

>  <Gold.Protein.RotatedAtoms>  (156) 
   10.3287   18.9518    7.2754 H   0  0  0  0  0  0  0  0  0  0  0  0  # atno 641  bound_to 637 
   16.7611   13.9585    7.2130 H   0  0  0  0  0  0  0  0  0  0  0  0  # atno 681  bound_to 677 
   19.7057   11.7837   -0.4145 H   0  0  0  0  0  0  0  0  0  0  0  0  # atno 702  bound_to 698 
   -6.9634   17.0714   -0.4294 H   0  0  0  0  0  0  0  0  0  0  0  0  # atno 965  bound_to 957 
    2.1777   11.8518   10.4316 H   0  0  0  0  0  0  0  0  0  0  0  0  # atno 1886 bound_to 1878
    9.3461    2.3376   -2.7537 H   0  0  0  0  0  0  0  0  0  0  0  0  # atno 2577 bound_to 2569
    7.7589    6.9379    1.0943 H   0  0  0  0  0  0  0  0  0  0  0  0  # atno 2891 bound_to 2887
   17.9232    1.9522   -0.4975 H   0  0  0  0  0  0  0  0  0  0  0  0  # atno 3175 bound_to 3171
   14.4202   10.0095    9.7170 H   0  0  0  0  0  0  0  0  0  0  0  0  # atno 5278 bound_to 5270
   16.9510   12.8826    6.0543 LP  0  0  0  0  0  0  0  0  0  0  0  0  # atno 5914 bound_to 677 
   15.5816   12.9232    6.9429 LP  0  0  0  0  0  0  0  0  0  0  0  0  # atno 5915 bound_to 677 
   21.1519   11.5223   -1.0290 LP  0  0  0  0  0  0  0  0  0  0  0  0  # atno 5920 bound_to 698 
   19.8622   11.7697   -1.9996 LP  0  0  0  0  0  0  0  0  0  0  0  0  # atno 5921 bound_to 698 
   10.3168    3.4154   -3.4106 LP  0  0  0  0  0  0  0  0  0  0  0  0  # atno 5950 bound_to 2569
   10.9131    2.1875   -2.5143 LP  0  0  0  0  0  0  0  0  0  0  0  0  # atno 5951 bound_to 2569
    8.2965    5.7292    0.2075 LP  0  0  0  0  0  0  0  0  0  0  0  0  # atno 5982 bound_to 2887
    7.2125    5.4739    1.4019 LP  0  0  0  0  0  0  0  0  0  0  0  0  # atno 5983 bound_to 2887
   19.0500    2.6984   -1.3395 LP  0  0  0  0  0  0  0  0  0  0  0  0  # atno 6000 bound_to 3171
   18.9757    2.8559    0.2842 LP  0  0  0  0  0  0  0  0  0  0  0  0  # atno 6001 bound_to 3171
   13.1567   10.2130    8.7689 LP  0  0  0  0  0  0  0  0  0  0  0  0  # atno 6004 bound_to 5270
   12.9677    9.8227   10.3433 LP  0  0  0  0  0  0  0  0  0  0  0  0  # atno 6005 bound_to 5270
   11.3487   19.4771    8.3794 LP  0  0  0  0  0  0  0  0  0  0  0  0  # atno 6055 bound_to 637 
    9.7379   19.6648    8.5706 LP  0  0  0  0  0  0  0  0  0  0  0  0  # atno 6056 bound_to 637 
    1.3603   10.4933   10.5792 LP  0  0  0  0  0  0  0  0  0  0  0  0  # atno 6063 bound_to 1878
    0.7325   11.9089   11.0975 LP  0  0  0  0  0  0  0  0  0  0  0  0  # atno 6064 bound_to 1878
   -7.0432   15.4845   -0.3267 LP  0  0  0  0  0  0  0  0  0  0  0  0  # atno 6067 bound_to 957 
   -6.4310   16.2079   -1.6566 LP  0  0  0  0  0  0  0  0  0  0  0  0  # atno 6068 bound_to 957 

>  <STRIFE_LigEff_Score>  (156) 
3.021975

$$$$
unknown|pharmsElabsTestMulti|sdf|157|dock8
     RDKit          3D

 18 18  0  0  0  0  0  0  0  0999 V2000
    3.6679    9.7896    1.9508 C   0  0  0  0  0  0  0  0  0  0  0  0
    4.1397    8.5751    2.7406 C   0  0  0  0  0  0  0  0  0  0  0  0
    3.5936    8.6264    4.1615 C   0  0  0  0  0  0  0  0  0  0  0  0
    4.0372    9.8526    4.8296 N   0  0  0  0  0  0  0  0  0  0  0  0
    5.4275    9.7049    5.2772 C   0  0  0  0  0  0  0  0  0  0  0  0
    6.3777   10.4647    4.3527 C   0  0  0  0  0  0  0  0  0  0  0  0
    7.6491    9.7576    4.2495 N   0  0  0  0  0  0  0  0  0  0  0  0
    7.9525    8.8567    3.1803 C   0  0  0  0  0  0  0  0  0  0  0  0
    7.0837    8.5999    2.2984 O   0  0  0  0  0  0  0  0  0  0  0  0
    9.3205    8.2249    3.1054 C   0  0  0  0  0  0  0  0  0  0  0  0
    9.8580    8.3493    1.6847 C   0  0  0  0  0  0  0  0  0  0  0  0
   11.1824    7.6320    1.4980 C   0  0  0  0  0  0  0  0  0  0  0  0
   12.1634    7.7592    2.6787 C   0  0  0  0  0  0  0  0  0  0  0  0
   13.6868    7.6520    2.3160 C   0  0  0  0  0  0  0  0  0  0  0  0
   14.6129    7.1237    3.4219 C   0  0  0  0  0  0  0  0  0  0  0  0
   13.9121    6.9079    1.0716 N   0  0  0  0  0  0  0  0  0  0  0  0
   11.7574    8.5643    3.9312 C   0  0  0  0  0  0  0  0  0  0  0  0
   10.2639    8.9032    4.1052 C   0  0  0  0  0  0  0  0  0  0  0  0
  1  2  1  0
  2  3  1  0
  3  4  1  0
  4  5  1  0
  5  6  1  0
  6  7  1  0
  7  8  1  0
  8  9  2  0
  8 10  1  0
 10 11  1  0
 11 12  1  0
 12 13  1  0
 13 14  1  0
 14 15  1  0
 14 16  1  0
 13 17  1  0
 17 18  1  0
 18 10  1  0
M  CHG  1  16   1
M  END
>  <EmbedRMS>  (157) 
0.16499967102600221

>  <Gold.Version>  (157) 
2020.3.0

>  <Gold.Id.Protein>  (157) 
unknown|1q8t_protein|pdb

>  <Gold.PLP.Fitness>  (157) 
55.1577

>  <Gold.PLP.PLP>  (157) 
-45.3960

>  <Gold.PLP.part.hbond>  (157) 
-3.0000

>  <Gold.PLP.part.metal>  (157) 
0.0000

>  <Gold.PLP.part.buried>  (157) 
-6.3723

>  <Gold.PLP.part.nonpolar>  (157) 
-36.9936

>  <Gold.PLP.part.repulsive>  (157) 
0.0750

>  <Gold.PLP.ligand.clash>  (157) 
0.0000

>  <Gold.PLP.ligand.torsion>  (157) 
1.4605

>  <Gold.PLP.Chemscore.Hbond>  (157) 
3.9913

>  <Gold.PLP.Chemscore.CHOScore>  (157) 
0.0000

>  <Gold.PLP.Chemscore.Metal>  (157) 
0.0000

>  <Gold.Chemscore.Hbonds>  (157) 
donor molecule, donor type, donor heavy atom, donor atom, acceptor molecule, acceptor atom, score
      L1  H    16    42       P1  2902  2.00
      L1  H    16    44       P1  2691  0.99
      P1  H  2887  2891       L1     9  1.00

>  <Gold.PLP.Chemscore.Internal.Correction>  (157) 
0.7090

>  <Gold.PLP.Constraint>  (157) 
-0.0000

>  <Gold.Protein.RotatedTorsions>  (157) 
[  681  677  676  673 ] final  -35.51 input -179.99 | X-H torsion
[  702  698  697  694 ] final -101.69 input  179.99 | X-H torsion
[ 2577 2569 2568 2566 ] final -155.29 input   -0.13 | X-H torsion
[ 2891 2887 2886 2883 ] final  171.32 input  179.98 | X-H torsion
[ 3175 3171 3170 3167 ] final -139.66 input -179.99 | X-H torsion
[ 5278 5270 5269 5267 ] final  -79.58 input    0.55 | X-H torsion
[  641  637  636  633 ] final  -93.18 input  179.99 | X-H torsion
[ 1886 1878 1877 1875 ] final -103.12 input    1.60 | X-H torsion
[  965  957  956  954 ] final  -79.92 input    0.45 | X-H torsion

>  <Gold.Protein.ActiveResidues>  (157) 
 LYS47   THR48   LEU49   GLY50   THR51   GLY52   SER53   PHE54   GLY55   ARG56  
 VAL57   MET58   LEU59   TYR69   ALA70   MET71   LYS72   ILE73   LEU74   GLU91  
 LEU95   VAL104  LYS105  MET118  VAL119  MET120  GLU121  TYR122  VAL123  PRO124 
 GLY125  GLY126  GLU127  MET128  PHE129  TYR164  ASP166  LEU167  LYS168  PRO169 
 GLU170  ASN171  LEU172  LEU173  ILE174  GLN181  VAL182  THR183  ASP184  PHE185 
 GLY186  PHE187  GLY200  THR201  ASN326  PHE327  TYR330  ARG18   ARG19   ASN20  
 ALA21   ILE22   HIS23  

>  <Gold.Protein.RotatedAtoms>  (157) 
   10.6629   18.9417    7.2922 H   0  0  0  0  0  0  0  0  0  0  0  0  # atno 641  bound_to 637 
   15.6281   12.9015    6.8669 H   0  0  0  0  0  0  0  0  0  0  0  0  # atno 681  bound_to 677 
   20.8570   11.5813   -0.5038 H   0  0  0  0  0  0  0  0  0  0  0  0  # atno 702  bound_to 698 
   -6.4352   16.3410   -1.6053 H   0  0  0  0  0  0  0  0  0  0  0  0  # atno 965  bound_to 957 
    1.0946   10.5978   10.6952 H   0  0  0  0  0  0  0  0  0  0  0  0  # atno 1886 bound_to 1878
   10.8877    2.2126   -2.5539 H   0  0  0  0  0  0  0  0  0  0  0  0  # atno 2577 bound_to 2569
    7.4909    6.7821    1.3674 H   0  0  0  0  0  0  0  0  0  0  0  0  # atno 2891 bound_to 2887
   18.6163    2.5797    0.3740 H   0  0  0  0  0  0  0  0  0  0  0  0  # atno 3175 bound_to 3171
   13.5995    9.8123   10.4817 H   0  0  0  0  0  0  0  0  0  0  0  0  # atno 5278 bound_to 5270
   16.7177   13.9831    7.2900 LP  0  0  0  0  0  0  0  0  0  0  0  0  # atno 5914 bound_to 677 
   17.0074   12.9352    6.0715 LP  0  0  0  0  0  0  0  0  0  0  0  0  # atno 5915 bound_to 677 
   20.4697   11.6629   -2.0468 LP  0  0  0  0  0  0  0  0  0  0  0  0  # atno 5920 bound_to 698 
   19.3332   11.8420   -0.8879 LP  0  0  0  0  0  0  0  0  0  0  0  0  # atno 5921 bound_to 698 
    9.3079    2.3177   -2.7223 LP  0  0  0  0  0  0  0  0  0  0  0  0  # atno 5950 bound_to 2569
   10.2987    3.4169   -3.4129 LP  0  0  0  0  0  0  0  0  0  0  0  0  # atno 5951 bound_to 2569
    8.3844    6.1550    0.2077 LP  0  0  0  0  0  0  0  0  0  0  0  0  # atno 5982 bound_to 2887
    7.4067    5.2120    1.1142 LP  0  0  0  0  0  0  0  0  0  0  0  0  # atno 5983 bound_to 2887
   17.9905    1.9640   -0.9545 LP  0  0  0  0  0  0  0  0  0  0  0  0  # atno 6000 bound_to 3171
   19.3057    2.9299   -1.0180 LP  0  0  0  0  0  0  0  0  0  0  0  0  # atno 6001 bound_to 3171
   14.3079   10.1447    9.0944 LP  0  0  0  0  0  0  0  0  0  0  0  0  # atno 6004 bound_to 5270
   12.6799   10.0984    9.2131 LP  0  0  0  0  0  0  0  0  0  0  0  0  # atno 6005 bound_to 5270
   11.1633   19.6216    8.6421 LP  0  0  0  0  0  0  0  0  0  0  0  0  # atno 6055 bound_to 637 
    9.5713   19.5309    8.2902 LP  0  0  0  0  0  0  0  0  0  0  0  0  # atno 6056 bound_to 637 
    0.9338   12.1420   11.0485 LP  0  0  0  0  0  0  0  0  0  0  0  0  # atno 6063 bound_to 1878
    2.2992   11.5804   10.3507 LP  0  0  0  0  0  0  0  0  0  0  0  0  # atno 6064 bound_to 1878
   -7.0361   17.0447   -0.3096 LP  0  0  0  0  0  0  0  0  0  0  0  0  # atno 6067 bound_to 957 
   -6.9944   15.4171   -0.4353 LP  0  0  0  0  0  0  0  0  0  0  0  0  # atno 6068 bound_to 957 

>  <STRIFE_LigEff_Score>  (157) 
3.0643166666666666

$$$$
unknown|pharmsElabsTestMulti|sdf|158|dock4
     RDKit          3D

 16 16  0  0  0  0  0  0  0  0999 V2000
   14.5646    9.0842    1.7065 C   0  0  0  0  0  0  0  0  0  0  0  0
   13.6838    7.8690    1.9921 C   0  0  0  0  0  0  0  0  0  0  0  0
   13.4679    7.0496    0.7978 N   0  0  0  0  0  0  0  0  0  0  0  0
   12.3864    8.0750    2.8122 C   0  0  0  0  0  0  0  0  0  0  0  0
   11.2510    7.1179    2.4208 C   0  0  0  0  0  0  0  0  0  0  0  0
    9.8465    7.5323    2.8270 C   0  0  0  0  0  0  0  0  0  0  0  0
    9.5951    9.0063    2.6316 C   0  0  0  0  0  0  0  0  0  0  0  0
    8.1484    9.3933    2.7177 C   0  0  0  0  0  0  0  0  0  0  0  0
    7.6556    9.8338    1.6515 O   0  0  0  0  0  0  0  0  0  0  0  0
    7.3269    9.3240    3.8957 N   0  0  0  0  0  0  0  0  0  0  0  0
    5.9549    9.8556    3.8901 C   0  0  0  0  0  0  0  0  0  0  0  0
    5.2227    9.5541    5.2061 C   0  0  0  0  0  0  0  0  0  0  0  0
    3.7946   10.1058    5.2493 C   0  0  0  0  0  0  0  0  0  0  0  0
    3.0123    9.4931    4.2632 O   0  0  0  0  0  0  0  0  0  0  0  0
   10.5937    9.9424    3.2539 C   0  0  0  0  0  0  0  0  0  0  0  0
   12.0307    9.5836    2.8837 C   0  0  0  0  0  0  0  0  0  0  0  0
  1  2  1  0
  2  3  1  0
  2  4  1  0
  4  5  1  0
  5  6  1  0
  6  7  1  0
  7  8  1  0
  8  9  2  0
  8 10  1  0
 10 11  1  0
 11 12  1  0
 12 13  1  0
 13 14  1  0
  7 15  1  0
 15 16  1  0
 16  4  1  0
M  CHG  1   3   1
M  END
>  <EmbedRMS>  (158) 
0.31188721664002633

>  <Gold.Version>  (158) 
2020.3.0

>  <Gold.Id.Protein>  (158) 
unknown|1q8t_protein|pdb

>  <Gold.PLP.Fitness>  (158) 
45.3778

>  <Gold.PLP.PLP>  (158) 
-35.8207

>  <Gold.PLP.part.hbond>  (158) 
-2.7629

>  <Gold.PLP.part.metal>  (158) 
0.0000

>  <Gold.PLP.part.buried>  (158) 
-4.3191

>  <Gold.PLP.part.nonpolar>  (158) 
-29.2917

>  <Gold.PLP.part.repulsive>  (158) 
0.0577

>  <Gold.PLP.ligand.clash>  (158) 
0.0606

>  <Gold.PLP.ligand.torsion>  (158) 
1.4610

>  <Gold.PLP.Chemscore.Hbond>  (158) 
3.9600

>  <Gold.PLP.Chemscore.CHOScore>  (158) 
0.0000

>  <Gold.PLP.Chemscore.Metal>  (158) 
0.0000

>  <Gold.Chemscore.Hbonds>  (158) 
donor molecule, donor type, donor heavy atom, donor atom, acceptor molecule, acceptor atom, score
      L1  H     3    22       P1  2902  1.98
      L1  H     3    23       P1  2691  0.98
      P1  H  1888  1903       L1    14  1.00

>  <Gold.PLP.Chemscore.Internal.Correction>  (158) 
0.6597

>  <Gold.PLP.Constraint>  (158) 
-0.0000

>  <Gold.Protein.RotatedTorsions>  (158) 
[  681  677  676  673 ] final -118.79 input -179.99 | X-H torsion
[  702  698  697  694 ] final -137.78 input  179.99 | X-H torsion
[ 2577 2569 2568 2566 ] final   60.63 input   -0.13 | X-H torsion
[ 2891 2887 2886 2883 ] final -178.44 input  179.98 | X-H torsion
[ 3175 3171 3170 3167 ] final -121.60 input -179.99 | X-H torsion
[ 5278 5270 5269 5267 ] final  134.38 input    0.55 | X-H torsion
[  641  637  636  633 ] final  169.45 input  179.99 | X-H torsion
[ 1886 1878 1877 1875 ] final  110.67 input    1.60 | X-H torsion
[  965  957  956  954 ] final  -32.25 input    0.45 | X-H torsion

>  <Gold.Protein.ActiveResidues>  (158) 
 LYS47   THR48   LEU49   GLY50   THR51   GLY52   SER53   PHE54   GLY55   ARG56  
 VAL57   MET58   LEU59   TYR69   ALA70   MET71   LYS72   ILE73   LEU74   GLU91  
 LEU95   VAL104  LYS105  MET118  VAL119  MET120  GLU121  TYR122  VAL123  PRO124 
 GLY125  GLY126  GLU127  MET128  PHE129  TYR164  ASP166  LEU167  LYS168  PRO169 
 GLU170  ASN171  LEU172  LEU173  ILE174  GLN181  VAL182  THR183  ASP184  PHE185 
 GLY186  PHE187  GLY200  THR201  ASN326  PHE327  TYR330  ARG18   ARG19   ASN20  
 ALA21   ILE22   HIS23  

>  <Gold.Protein.RotatedAtoms>  (158) 
   11.3095   19.4492    8.3567 H   0  0  0  0  0  0  0  0  0  0  0  0  # atno 641  bound_to 637 
   16.1806   13.8013    7.4167 H   0  0  0  0  0  0  0  0  0  0  0  0  # atno 681  bound_to 677 
   21.1046   11.5470   -0.9996 H   0  0  0  0  0  0  0  0  0  0  0  0  # atno 702  bound_to 698 
   -6.5392   15.6576   -1.3910 H   0  0  0  0  0  0  0  0  0  0  0  0  # atno 965  bound_to 957 
    1.2962   12.2879   10.8947 H   0  0  0  0  0  0  0  0  0  0  0  0  # atno 1886 bound_to 1878
    9.2845    2.6239   -2.9570 H   0  0  0  0  0  0  0  0  0  0  0  0  # atno 2577 bound_to 2569
    7.3996    6.6787    1.4484 H   0  0  0  0  0  0  0  0  0  0  0  0  # atno 2891 bound_to 2887
   18.8413    2.7391    0.3194 H   0  0  0  0  0  0  0  0  0  0  0  0  # atno 3175 bound_to 3171
   13.9718   10.2166    8.8583 H   0  0  0  0  0  0  0  0  0  0  0  0  # atno 5278 bound_to 5270
   17.2830   13.3841    6.3458 LP  0  0  0  0  0  0  0  0  0  0  0  0  # atno 5914 bound_to 677 
   15.8606   12.5872    6.4370 LP  0  0  0  0  0  0  0  0  0  0  0  0  # atno 5915 bound_to 677 
   19.8954   11.7640   -2.0135 LP  0  0  0  0  0  0  0  0  0  0  0  0  # atno 5920 bound_to 698 
   19.6471   11.7769   -0.3996 LP  0  0  0  0  0  0  0  0  0  0  0  0  # atno 5921 bound_to 698 
   10.6688    3.3219   -3.3198 LP  0  0  0  0  0  0  0  0  0  0  0  0  # atno 5950 bound_to 2569
   10.6259    1.9796   -2.3909 LP  0  0  0  0  0  0  0  0  0  0  0  0  # atno 5951 bound_to 2569
    8.3829    6.3183    0.2485 LP  0  0  0  0  0  0  0  0  0  0  0  0  # atno 5982 bound_to 2887
    7.5042    5.1576    0.9882 LP  0  0  0  0  0  0  0  0  0  0  0  0  # atno 5983 bound_to 2887
   17.8967    1.9310   -0.6759 LP  0  0  0  0  0  0  0  0  0  0  0  0  # atno 6000 bound_to 3171
   19.1628    2.7950   -1.2392 LP  0  0  0  0  0  0  0  0  0  0  0  0  # atno 6001 bound_to 3171
   12.5877    9.9982    9.6154 LP  0  0  0  0  0  0  0  0  0  0  0  0  # atno 6004 bound_to 5270
   14.0084    9.8195   10.4003 LP  0  0  0  0  0  0  0  0  0  0  0  0  # atno 6005 bound_to 5270
    9.7491   19.6705    8.5830 LP  0  0  0  0  0  0  0  0  0  0  0  0  # atno 6055 bound_to 637 
   10.3046   18.9476    7.2282 LP  0  0  0  0  0  0  0  0  0  0  0  0  # atno 6056 bound_to 637 
    2.2489   11.1587   10.3010 LP  0  0  0  0  0  0  0  0  0  0  0  0  # atno 6063 bound_to 1878
    0.7719   10.7844   10.8883 LP  0  0  0  0  0  0  0  0  0  0  0  0  # atno 6064 bound_to 1878
   -6.7249   17.1874   -0.9904 LP  0  0  0  0  0  0  0  0  0  0  0  0  # atno 6067 bound_to 957 
   -7.1961   15.9941    0.0199 LP  0  0  0  0  0  0  0  0  0  0  0  0  # atno 6068 bound_to 957 

>  <STRIFE_LigEff_Score>  (158) 
2.8361125

$$$$
unknown|pharmsElabsTestMulti|sdf|159|dock1
     RDKit          3D

 18 18  0  0  0  0  0  0  0  0999 V2000
   14.1329    7.5043    3.5718 C   0  0  0  0  0  0  0  0  0  0  0  0
   13.7142    8.0987    2.2149 C   0  0  0  0  0  0  0  0  0  0  0  0
   13.9396    7.1008    1.1602 N   0  0  0  0  0  0  0  0  0  0  0  0
   12.2295    8.5897    2.2674 C   0  0  0  0  0  0  0  0  0  0  0  0
   11.2939    7.3798    2.0919 C   0  0  0  0  0  0  0  0  0  0  0  0
    9.8181    7.7532    2.0188 C   0  0  0  0  0  0  0  0  0  0  0  0
    9.4665    9.0460    2.7377 C   0  0  0  0  0  0  0  0  0  0  0  0
    7.9910    9.2659    2.8835 C   0  0  0  0  0  0  0  0  0  0  0  0
    7.2956    8.8630    1.9197 O   0  0  0  0  0  0  0  0  0  0  0  0
    7.3401    9.8843    4.0058 N   0  0  0  0  0  0  0  0  0  0  0  0
    5.9026   10.1850    3.9542 C   0  0  0  0  0  0  0  0  0  0  0  0
    5.1004    8.9025    3.6604 C   0  0  0  0  0  0  0  0  0  0  0  0
    3.7871    9.1438    2.8763 C   0  0  0  0  0  0  0  0  0  0  0  0
    4.0138   10.0972    1.6945 C   0  0  0  0  0  0  0  0  0  0  0  0
    2.8159    9.7080    3.7214 O   0  0  0  0  0  0  0  0  0  0  0  0
    3.3014    7.9149    2.3890 O   0  0  0  0  0  0  0  0  0  0  0  0
   10.3814    9.6315    3.7969 C   0  0  0  0  0  0  0  0  0  0  0  0
   11.8788    9.3103    3.5942 C   0  0  0  0  0  0  0  0  0  0  0  0
  1  2  1  0
  2  3  1  0
  2  4  1  0
  4  5  1  0
  5  6  1  0
  6  7  1  0
  7  8  1  0
  8  9  2  0
  8 10  1  0
 10 11  1  0
 11 12  1  0
 12 13  1  0
 13 14  1  0
 13 15  1  0
 13 16  1  0
  7 17  1  0
 17 18  1  0
 18  4  1  0
M  CHG  1   3   1
M  END
>  <EmbedRMS>  (159) 
0.17853379055345855

>  <Gold.Version>  (159) 
2020.3.0

>  <Gold.Id.Protein>  (159) 
unknown|1q8t_protein|pdb

>  <Gold.PLP.Fitness>  (159) 
50.5938

>  <Gold.PLP.PLP>  (159) 
-37.0701

>  <Gold.PLP.part.hbond>  (159) 
-4.6487

>  <Gold.PLP.part.metal>  (159) 
0.0000

>  <Gold.PLP.part.buried>  (159) 
-2.1881

>  <Gold.PLP.part.nonpolar>  (159) 
-29.8080

>  <Gold.PLP.part.repulsive>  (159) 
0.0568

>  <Gold.PLP.ligand.clash>  (159) 
0.0000

>  <Gold.PLP.ligand.torsion>  (159) 
1.0466

>  <Gold.PLP.Chemscore.Hbond>  (159) 
4.9348

>  <Gold.PLP.Chemscore.CHOScore>  (159) 
0.0000

>  <Gold.PLP.Chemscore.Metal>  (159) 
0.0000

>  <Gold.Chemscore.Hbonds>  (159) 
donor molecule, donor type, donor heavy atom, donor atom, acceptor molecule, acceptor atom, score
      L1  H     3    24       P1  2691  1.00
      L1  H     3    25       P1  2902  2.00
      P1  H  2887  2891       L1     9  0.96
      P1  H  1888  1903       L1    15  0.98

>  <Gold.PLP.Chemscore.Internal.Correction>  (159) 
0.8128

>  <Gold.PLP.Constraint>  (159) 
-0.0000

>  <Gold.Protein.RotatedTorsions>  (159) 
[  681  677  676  673 ] final   17.56 input -179.99 | X-H torsion
[  702  698  697  694 ] final -178.17 input  179.99 | X-H torsion
[ 2577 2569 2568 2566 ] final  -84.32 input   -0.13 | X-H torsion
[ 2891 2887 2886 2883 ] final  156.79 input  179.98 | X-H torsion
[ 3175 3171 3170 3167 ] final  -57.97 input -179.99 | X-H torsion
[ 5278 5270 5269 5267 ] final  103.45 input    0.55 | X-H torsion
[  641  637  636  633 ] final   46.90 input  179.99 | X-H torsion
[ 1886 1878 1877 1875 ] final -153.89 input    1.60 | X-H torsion
[  965  957  956  954 ] final   48.29 input    0.45 | X-H torsion

>  <Gold.Protein.ActiveResidues>  (159) 
 LYS47   THR48   LEU49   GLY50   THR51   GLY52   SER53   PHE54   GLY55   ARG56  
 VAL57   MET58   LEU59   TYR69   ALA70   MET71   LYS72   ILE73   LEU74   GLU91  
 LEU95   VAL104  LYS105  MET118  VAL119  MET120  GLU121  TYR122  VAL123  PRO124 
 GLY125  GLY126  GLU127  MET128  PHE129  TYR164  ASP166  LEU167  LYS168  PRO169 
 GLU170  ASN171  LEU172  LEU173  ILE174  GLN181  VAL182  THR183  ASP184  PHE185 
 GLY186  PHE187  GLY200  THR201  ASN326  PHE327  TYR330  ARG18   ARG19   ASN20  
 ALA21   ILE22   HIS23  

>  <Gold.Protein.RotatedAtoms>  (159) 
    9.7597   19.6273    8.5359 H   0  0  0  0  0  0  0  0  0  0  0  0  # atno 641  bound_to 637 
   16.0762   12.5906    6.2812 H   0  0  0  0  0  0  0  0  0  0  0  0  # atno 681  bound_to 677 
   20.9851   11.5798   -1.6058 H   0  0  0  0  0  0  0  0  0  0  0  0  # atno 702  bound_to 698 
   -7.0165   15.5229   -0.3452 H   0  0  0  0  0  0  0  0  0  0  0  0  # atno 965  bound_to 957 
    0.6386   11.1413   10.9890 H   0  0  0  0  0  0  0  0  0  0  0  0  # atno 1886 bound_to 1878
   10.9230    3.0672   -3.1447 H   0  0  0  0  0  0  0  0  0  0  0  0  # atno 2577 bound_to 2569
    7.6336    6.8889    1.2277 H   0  0  0  0  0  0  0  0  0  0  0  0  # atno 2891 bound_to 2887
   19.3537    3.0217   -0.4219 H   0  0  0  0  0  0  0  0  0  0  0  0  # atno 3175 bound_to 3171
   13.5083   10.2398    8.7444 H   0  0  0  0  0  0  0  0  0  0  0  0  # atno 5278 bound_to 5270
   15.9537   13.6663    7.4491 LP  0  0  0  0  0  0  0  0  0  0  0  0  # atno 5914 bound_to 677 
   17.2999   13.5793    6.5289 LP  0  0  0  0  0  0  0  0  0  0  0  0  # atno 5915 bound_to 677 
   19.4140   11.8411   -1.5823 LP  0  0  0  0  0  0  0  0  0  0  0  0  # atno 5920 bound_to 698 
   20.2542   11.6653   -0.1931 LP  0  0  0  0  0  0  0  0  0  0  0  0  # atno 5921 bound_to 698 
   10.2351    1.8738   -2.3461 LP  0  0  0  0  0  0  0  0  0  0  0  0  # atno 5950 bound_to 2569
    9.3344    2.9609   -3.1669 LP  0  0  0  0  0  0  0  0  0  0  0  0  # atno 5951 bound_to 2569
    8.3524    5.9197    0.1884 LP  0  0  0  0  0  0  0  0  0  0  0  0  # atno 5982 bound_to 2887
    7.2885    5.3350    1.2806 LP  0  0  0  0  0  0  0  0  0  0  0  0  # atno 5983 bound_to 2887
   18.1401    2.2313    0.2400 LP  0  0  0  0  0  0  0  0  0  0  0  0  # atno 6000 bound_to 3171
   18.3801    2.1975   -1.3749 LP  0  0  0  0  0  0  0  0  0  0  0  0  # atno 6001 bound_to 3171
   12.7257    9.8838   10.0851 LP  0  0  0  0  0  0  0  0  0  0  0  0  # atno 6004 bound_to 5270
   14.3581    9.9094   10.0504 LP  0  0  0  0  0  0  0  0  0  0  0  0  # atno 6005 bound_to 5270
   10.3460   18.9429    7.2234 LP  0  0  0  0  0  0  0  0  0  0  0  0  # atno 6055 bound_to 637 
   11.3398   19.4877    8.3991 LP  0  0  0  0  0  0  0  0  0  0  0  0  # atno 6056 bound_to 637 
    1.6632   12.3385   10.7604 LP  0  0  0  0  0  0  0  0  0  0  0  0  # atno 6063 bound_to 1878
    2.0499   10.8116   10.3295 LP  0  0  0  0  0  0  0  0  0  0  0  0  # atno 6064 bound_to 1878
   -6.4310   16.2100   -1.6567 LP  0  0  0  0  0  0  0  0  0  0  0  0  # atno 6067 bound_to 957 
   -6.9874   17.1133   -0.4153 LP  0  0  0  0  0  0  0  0  0  0  0  0  # atno 6068 bound_to 957 

>  <STRIFE_LigEff_Score>  (159) 
2.810766666666667

$$$$
unknown|pharmsElabsTestMulti|sdf|160|dock2
     RDKit          3D

 18 19  0  0  0  0  0  0  0  0999 V2000
   15.0596    8.1985    2.7232 C   0  0  0  0  0  0  0  0  0  0  0  0
   13.9080    7.3627    2.1910 C   0  0  0  0  0  0  0  0  0  0  0  0
   14.1154    6.7925    0.8659 N   0  0  0  0  0  0  0  0  0  0  0  0
   12.4709    7.8473    2.5418 C   0  0  0  0  0  0  0  0  0  0  0  0
   11.3469    6.8007    2.6467 C   0  0  0  0  0  0  0  0  0  0  0  0
   10.0007    7.5333    2.5158 C   0  0  0  0  0  0  0  0  0  0  0  0
    9.8506    8.6022    3.6152 C   0  0  0  0  0  0  0  0  0  0  0  0
    8.5663    9.3639    3.4490 C   0  0  0  0  0  0  0  0  0  0  0  0
    8.3045    9.9557    2.3631 O   0  0  0  0  0  0  0  0  0  0  0  0
    7.6573    9.4384    4.5519 N   0  0  0  0  0  0  0  0  0  0  0  0
    6.3634   10.0973    4.4551 C   0  0  0  0  0  0  0  0  0  0  0  0
    5.6674    9.6937    3.1563 C   0  0  0  0  0  0  0  0  0  0  0  0
    4.2136    9.2911    3.4227 C   0  0  0  0  0  0  0  0  0  0  0  0
    3.3895    8.6023    2.3326 C   0  0  0  0  0  0  0  0  0  0  0  0
    3.8917    8.9003    4.8436 C   0  0  0  0  0  0  0  0  0  0  0  0
    3.4466   10.1033    4.4537 C   0  0  0  0  0  0  0  0  0  0  0  0
   11.0452    9.5735    3.6744 C   0  0  0  0  0  0  0  0  0  0  0  0
   12.3822    8.8214    3.7296 C   0  0  0  0  0  0  0  0  0  0  0  0
  1  2  1  0
  2  3  1  0
  2  4  1  0
  4  5  1  0
  5  6  1  0
  6  7  1  0
  7  8  1  0
  8  9  2  0
  8 10  1  0
 10 11  1  0
 11 12  1  0
 12 13  1  0
 13 14  1  0
 13 15  1  0
 15 16  1  0
  7 17  1  0
 17 18  1  0
 18  4  1  0
 16 13  1  0
M  CHG  1   3   1
M  END
>  <EmbedRMS>  (160) 
0.5113108624362681

>  <Gold.Version>  (160) 
2020.3.0

>  <Gold.Id.Protein>  (160) 
unknown|1q8t_protein|pdb

>  <Gold.PLP.Fitness>  (160) 
52.1411

>  <Gold.PLP.PLP>  (160) 
-44.8365

>  <Gold.PLP.part.hbond>  (160) 
-2.0000

>  <Gold.PLP.part.metal>  (160) 
0.0000

>  <Gold.PLP.part.buried>  (160) 
-0.0359

>  <Gold.PLP.part.nonpolar>  (160) 
-43.3622

>  <Gold.PLP.part.repulsive>  (160) 
0.0953

>  <Gold.PLP.ligand.clash>  (160) 
0.0000

>  <Gold.PLP.ligand.torsion>  (160) 
1.5323

>  <Gold.PLP.Chemscore.Hbond>  (160) 
3.0000

>  <Gold.PLP.Chemscore.CHOScore>  (160) 
0.0000

>  <Gold.PLP.Chemscore.Metal>  (160) 
0.0000

>  <Gold.Chemscore.Hbonds>  (160) 
donor molecule, donor type, donor heavy atom, donor atom, acceptor molecule, acceptor atom, score
      L1  H     3    23       P1  2902  2.00
      L1  H     3    24       P1  2691  1.00

>  <Gold.PLP.Chemscore.Internal.Correction>  (160) 
1.3693

>  <Gold.PLP.Constraint>  (160) 
-0.0000

>  <Gold.Protein.RotatedTorsions>  (160) 
[  681  677  676  673 ] final -101.95 input -179.99 | X-H torsion
[  702  698  697  694 ] final   71.57 input  179.99 | X-H torsion
[ 2577 2569 2568 2566 ] final  117.53 input   -0.13 | X-H torsion
[ 2891 2887 2886 2883 ] final  -67.01 input  179.98 | X-H torsion
[ 3175 3171 3170 3167 ] final  143.09 input -179.99 | X-H torsion
[ 5278 5270 5269 5267 ] final  161.70 input    0.55 | X-H torsion
[  641  637  636  633 ] final  -47.97 input  179.99 | X-H torsion
[ 1886 1878 1877 1875 ] final  -60.42 input    1.60 | X-H torsion
[  965  957  956  954 ] final  -74.58 input    0.45 | X-H torsion

>  <Gold.Protein.ActiveResidues>  (160) 
 LYS47   THR48   LEU49   GLY50   THR51   GLY52   SER53   PHE54   GLY55   ARG56  
 VAL57   MET58   LEU59   TYR69   ALA70   MET71   LYS72   ILE73   LEU74   GLU91  
 LEU95   VAL104  LYS105  MET118  VAL119  MET120  GLU121  TYR122  VAL123  PRO124 
 GLY125  GLY126  GLU127  MET128  PHE129  TYR164  ASP166  LEU167  LYS168  PRO169 
 GLU170  ASN171  LEU172  LEU173  ILE174  GLN181  VAL182  THR183  ASP184  PHE185 
 GLY186  PHE187  GLY200  THR201  ASN326  PHE327  TYR330  ARG18   ARG19   ASN20  
 ALA21   ILE22   HIS23  

>  <Gold.Protein.RotatedAtoms>  (160) 
    9.9860   19.0264    7.3840 H   0  0  0  0  0  0  0  0  0  0  0  0  # atno 641  bound_to 637 
   15.9654   13.6520    7.4021 H   0  0  0  0  0  0  0  0  0  0  0  0  # atno 681  bound_to 677 
   19.5396   11.8377   -1.6873 H   0  0  0  0  0  0  0  0  0  0  0  0  # atno 702  bound_to 698 
   -6.4347   16.2576   -1.6082 H   0  0  0  0  0  0  0  0  0  0  0  0  # atno 965  bound_to 957 
    1.6918   10.6088   10.4338 H   0  0  0  0  0  0  0  0  0  0  0  0  # atno 1886 bound_to 1878
    9.6703    2.0125   -2.5041 H   0  0  0  0  0  0  0  0  0  0  0  0  # atno 2577 bound_to 2569
    7.4266    5.2466    1.0741 H   0  0  0  0  0  0  0  0  0  0  0  0  # atno 2891 bound_to 2887
   17.9342    1.9881   -0.2856 H   0  0  0  0  0  0  0  0  0  0  0  0  # atno 3175 bound_to 3171
   14.2803   10.1503    9.1402 H   0  0  0  0  0  0  0  0  0  0  0  0  # atno 5278 bound_to 5270
   17.2993   13.5848    6.5347 LP  0  0  0  0  0  0  0  0  0  0  0  0  # atno 5914 bound_to 677 
   16.0708   12.5436    6.2635 LP  0  0  0  0  0  0  0  0  0  0  0  0  # atno 5915 bound_to 677 
   20.0968   11.6934   -0.2020 LP  0  0  0  0  0  0  0  0  0  0  0  0  # atno 5920 bound_to 698 
   21.0920   11.5418   -1.4877 LP  0  0  0  0  0  0  0  0  0  0  0  0  # atno 5921 bound_to 698 
    9.7734    3.3305   -3.3914 LP  0  0  0  0  0  0  0  0  0  0  0  0  # atno 5950 bound_to 2569
   11.1150    2.6148   -2.7961 LP  0  0  0  0  0  0  0  0  0  0  0  0  # atno 5951 bound_to 2569
    7.4733    6.8010    1.4177 LP  0  0  0  0  0  0  0  0  0  0  0  0  # atno 5982 bound_to 2887
    8.3855    6.1822    0.2129 LP  0  0  0  0  0  0  0  0  0  0  0  0  # atno 5983 bound_to 2887
   18.8864    2.5662   -1.4235 LP  0  0  0  0  0  0  0  0  0  0  0  0  # atno 6000 bound_to 3171
   19.1277    2.9503    0.1452 LP  0  0  0  0  0  0  0  0  0  0  0  0  # atno 6001 bound_to 3171
   12.6892   10.1030    9.1948 LP  0  0  0  0  0  0  0  0  0  0  0  0  # atno 6004 bound_to 5270
   13.5823    9.7844   10.5243 LP  0  0  0  0  0  0  0  0  0  0  0  0  # atno 6005 bound_to 5270
   11.4102   19.3008    8.0408 LP  0  0  0  0  0  0  0  0  0  0  0  0  # atno 6055 bound_to 637 
   10.0373   19.7625    8.7948 LP  0  0  0  0  0  0  0  0  0  0  0  0  # atno 6056 bound_to 637 
    0.5918   11.5489   11.0981 LP  0  0  0  0  0  0  0  0  0  0  0  0  # atno 6063 bound_to 1878
    2.0125   12.1619   10.5763 LP  0  0  0  0  0  0  0  0  0  0  0  0  # atno 6064 bound_to 1878
   -7.0049   17.0912   -0.3772 LP  0  0  0  0  0  0  0  0  0  0  0  0  # atno 6067 bound_to 957 
   -7.0262   15.4584   -0.3646 LP  0  0  0  0  0  0  0  0  0  0  0  0  # atno 6068 bound_to 957 

>  <STRIFE_LigEff_Score>  (160) 
2.896727777777778

$$$$
unknown|pharmsElabsTestMulti|sdf|161|dock10
     RDKit          3D

 17 17  0  0  0  0  0  0  0  0999 V2000
   14.4874    7.4117    3.3100 C   0  0  0  0  0  0  0  0  0  0  0  0
   13.1746    7.5062    2.5342 C   0  0  0  0  0  0  0  0  0  0  0  0
   13.2688    8.4249    1.3977 N   0  0  0  0  0  0  0  0  0  0  0  0
   11.8583    7.6819    3.3308 C   0  0  0  0  0  0  0  0  0  0  0  0
   10.6367    7.0473    2.6503 C   0  0  0  0  0  0  0  0  0  0  0  0
    9.2750    7.5466    3.1032 C   0  0  0  0  0  0  0  0  0  0  0  0
    9.2424    9.0395    3.3101 C   0  0  0  0  0  0  0  0  0  0  0  0
    7.8600    9.6042    3.4453 C   0  0  0  0  0  0  0  0  0  0  0  0
    7.3711   10.0640    2.3852 O   0  0  0  0  0  0  0  0  0  0  0  0
    7.0899    9.6703    4.6582 N   0  0  0  0  0  0  0  0  0  0  0  0
    5.8084   10.3909    4.6843 C   0  0  0  0  0  0  0  0  0  0  0  0
    4.7093    9.5154    5.3056 C   0  0  0  0  0  0  0  0  0  0  0  0
    3.4537    9.6376    4.5665 N   0  0  0  0  0  0  0  0  0  0  0  0
    3.3736    9.3344    3.1704 C   0  0  0  0  0  0  0  0  0  0  0  0
    4.3927    8.9601    2.5307 O   0  0  0  0  0  0  0  0  0  0  0  0
   10.3079    9.6150    4.2010 C   0  0  0  0  0  0  0  0  0  0  0  0
   11.7072    9.1532    3.8004 C   0  0  0  0  0  0  0  0  0  0  0  0
  1  2  1  0
  2  3  1  0
  2  4  1  0
  4  5  1  0
  5  6  1  0
  6  7  1  0
  7  8  1  0
  8  9  2  0
  8 10  1  0
 10 11  1  0
 11 12  1  0
 12 13  1  0
 13 14  1  0
 14 15  2  0
  7 16  1  0
 16 17  1  0
 17  4  1  0
M  CHG  1   3   1
M  END
>  <EmbedRMS>  (161) 
0.30207850723488733

>  <Gold.Version>  (161) 
2020.3.0

>  <Gold.Id.Protein>  (161) 
unknown|1q8t_protein|pdb

>  <Gold.PLP.Fitness>  (161) 
42.9101

>  <Gold.PLP.PLP>  (161) 
-38.3544

>  <Gold.PLP.part.hbond>  (161) 
-1.0000

>  <Gold.PLP.part.metal>  (161) 
0.0000

>  <Gold.PLP.part.buried>  (161) 
-5.8022

>  <Gold.PLP.part.nonpolar>  (161) 
-32.2165

>  <Gold.PLP.part.repulsive>  (161) 
0.1383

>  <Gold.PLP.ligand.clash>  (161) 
0.0000

>  <Gold.PLP.ligand.torsion>  (161) 
1.0493

>  <Gold.PLP.Chemscore.Hbond>  (161) 
2.0000

>  <Gold.PLP.Chemscore.CHOScore>  (161) 
0.0000

>  <Gold.PLP.Chemscore.Metal>  (161) 
0.0000

>  <Gold.Chemscore.Hbonds>  (161) 
donor molecule, donor type, donor heavy atom, donor atom, acceptor molecule, acceptor atom, score
      L1  H     3    22       P1  2902  2.00

>  <Gold.PLP.Chemscore.Internal.Correction>  (161) 
0.6542

>  <Gold.PLP.Constraint>  (161) 
-0.0000

>  <Gold.Protein.RotatedTorsions>  (161) 
[  681  677  676  673 ] final  -69.76 input -179.99 | X-H torsion
[  702  698  697  694 ] final  144.42 input  179.99 | X-H torsion
[ 2577 2569 2568 2566 ] final  -57.81 input   -0.13 | X-H torsion
[ 2891 2887 2886 2883 ] final -177.16 input  179.98 | X-H torsion
[ 3175 3171 3170 3167 ] final  -13.33 input -179.99 | X-H torsion
[ 5278 5270 5269 5267 ] final  177.56 input    0.55 | X-H torsion
[  641  637  636  633 ] final  -73.50 input  179.99 | X-H torsion
[ 1886 1878 1877 1875 ] final    3.32 input    1.60 | X-H torsion
[  965  957  956  954 ] final -134.23 input    0.45 | X-H torsion

>  <Gold.Protein.ActiveResidues>  (161) 
 LYS47   THR48   LEU49   GLY50   THR51   GLY52   SER53   PHE54   GLY55   ARG56  
 VAL57   MET58   LEU59   TYR69   ALA70   MET71   LYS72   ILE73   LEU74   GLU91  
 LEU95   VAL104  LYS105  MET118  VAL119  MET120  GLU121  TYR122  VAL123  PRO124 
 GLY125  GLY126  GLU127  MET128  PHE129  TYR164  ASP166  LEU167  LYS168  PRO169 
 GLU170  ASN171  LEU172  LEU173  ILE174  GLN181  VAL182  THR183  ASP184  PHE185 
 GLY186  PHE187  GLY200  THR201  ASN326  PHE327  TYR330  ARG18   ARG19   ASN20  
 ALA21   ILE22   HIS23  

>  <Gold.Protein.RotatedAtoms>  (161) 
   10.3577   18.9487    7.2724 H   0  0  0  0  0  0  0  0  0  0  0  0  # atno 641  bound_to 637 
   15.6782   13.2896    7.2207 H   0  0  0  0  0  0  0  0  0  0  0  0  # atno 681  bound_to 677 
   20.5503   11.6640   -1.9722 H   0  0  0  0  0  0  0  0  0  0  0  0  # atno 702  bound_to 698 
   -6.6080   17.0357   -1.2110 H   0  0  0  0  0  0  0  0  0  0  0  0  # atno 965  bound_to 957 
    2.2457   11.3665   10.3189 H   0  0  0  0  0  0  0  0  0  0  0  0  # atno 1886 bound_to 1878
   10.6242    3.2879   -3.3198 H   0  0  0  0  0  0  0  0  0  0  0  0  # atno 2577 bound_to 2569
    7.3889    6.6643    1.4573 H   0  0  0  0  0  0  0  0  0  0  0  0  # atno 2891 bound_to 2887
   19.2414    2.8534   -1.0715 H   0  0  0  0  0  0  0  0  0  0  0  0  # atno 3175 bound_to 3171
   14.3857   10.0977    9.3577 H   0  0  0  0  0  0  0  0  0  0  0  0  # atno 5278 bound_to 5270
   17.1291   13.8791    6.9319 LP  0  0  0  0  0  0  0  0  0  0  0  0  # atno 5914 bound_to 677 
   16.5433   12.6308    6.0572 LP  0  0  0  0  0  0  0  0  0  0  0  0  # atno 5915 bound_to 677 
   19.3127   11.8475   -0.9862 LP  0  0  0  0  0  0  0  0  0  0  0  0  # atno 5920 bound_to 698 
   20.8129   11.5703   -0.4038 LP  0  0  0  0  0  0  0  0  0  0  0  0  # atno 5921 bound_to 698 
   10.6482    1.9906   -2.3969 LP  0  0  0  0  0  0  0  0  0  0  0  0  # atno 5950 bound_to 2569
    9.2359    2.6118   -2.9318 LP  0  0  0  0  0  0  0  0  0  0  0  0  # atno 5951 bound_to 2569
    8.3813    6.3383    0.2551 LP  0  0  0  0  0  0  0  0  0  0  0  0  # atno 5982 bound_to 2887
    7.5171    5.1528    0.9722 LP  0  0  0  0  0  0  0  0  0  0  0  0  # atno 5983 bound_to 2887
   18.6886    2.6596    0.4092 LP  0  0  0  0  0  0  0  0  0  0  0  0  # atno 6000 bound_to 3171
   17.9498    1.9462   -0.8604 LP  0  0  0  0  0  0  0  0  0  0  0  0  # atno 6001 bound_to 3171
   12.8377   10.1557    8.9876 LP  0  0  0  0  0  0  0  0  0  0  0  0  # atno 6004 bound_to 5270
   13.3230    9.7871   10.5026 LP  0  0  0  0  0  0  0  0  0  0  0  0  # atno 6005 bound_to 5270
   11.3372   19.4907    8.4046 LP  0  0  0  0  0  0  0  0  0  0  0  0  # atno 6055 bound_to 637 
    9.7188   19.6546    8.5485 LP  0  0  0  0  0  0  0  0  0  0  0  0  # atno 6056 bound_to 637 
    0.9087   10.6517   10.8054 LP  0  0  0  0  0  0  0  0  0  0  0  0  # atno 6063 bound_to 1878
    1.1125   12.2614   10.9900 LP  0  0  0  0  0  0  0  0  0  0  0  0  # atno 6064 bound_to 1878
   -7.2107   16.2863    0.0580 LP  0  0  0  0  0  0  0  0  0  0  0  0  # atno 6067 bound_to 957 
   -6.6379   15.4438   -1.2182 LP  0  0  0  0  0  0  0  0  0  0  0  0  # atno 6068 bound_to 957 

>  <STRIFE_LigEff_Score>  (161) 
2.5241235294117645

$$$$
unknown|pharmsElabsTestMulti|sdf|162|dock7
     RDKit          3D

 18 18  0  0  0  0  0  0  0  0999 V2000
    3.5981    8.8856    1.7510 C   0  0  0  0  0  0  0  0  0  0  0  0
    3.5974    8.6832    3.2611 C   0  0  0  0  0  0  0  0  0  0  0  0
    3.3334   10.0054    3.9696 C   0  0  0  0  0  0  0  0  0  0  0  0
    3.8775    9.9675    5.3295 N   0  0  0  0  0  0  0  0  0  0  0  0
    5.2650    9.4889    5.3013 C   0  0  0  0  0  0  0  0  0  0  0  0
    6.0686   10.2208    4.2274 C   0  0  0  0  0  0  0  0  0  0  0  0
    7.4243    9.6867    4.1643 N   0  0  0  0  0  0  0  0  0  0  0  0
    7.9345    8.9953    3.0205 C   0  0  0  0  0  0  0  0  0  0  0  0
    7.1877    8.7748    2.0244 O   0  0  0  0  0  0  0  0  0  0  0  0
    9.3734    8.5419    3.0059 C   0  0  0  0  0  0  0  0  0  0  0  0
    9.7273    8.0265    1.6159 C   0  0  0  0  0  0  0  0  0  0  0  0
   11.1259    7.4409    1.5502 C   0  0  0  0  0  0  0  0  0  0  0  0
   12.1920    8.2108    2.3522 C   0  0  0  0  0  0  0  0  0  0  0  0
   13.6640    8.0941    1.8200 C   0  0  0  0  0  0  0  0  0  0  0  0
   14.7661    7.9977    2.8858 C   0  0  0  0  0  0  0  0  0  0  0  0
   13.8171    7.0150    0.8376 N   0  0  0  0  0  0  0  0  0  0  0  0
   11.7924    9.4711    3.1484 C   0  0  0  0  0  0  0  0  0  0  0  0
   10.2905    9.7035    3.4049 C   0  0  0  0  0  0  0  0  0  0  0  0
  1  2  1  0
  2  3  1  0
  3  4  1  0
  4  5  1  0
  5  6  1  0
  6  7  1  0
  7  8  1  0
  8  9  2  0
  8 10  1  0
 10 11  1  0
 11 12  1  0
 12 13  1  0
 13 14  1  0
 14 15  1  0
 14 16  1  0
 13 17  1  0
 17 18  1  0
 18 10  1  0
M  CHG  1  16   1
M  END
>  <EmbedRMS>  (162) 
0.16499967102600221

>  <Gold.Version>  (162) 
2020.3.0

>  <Gold.Id.Protein>  (162) 
unknown|1q8t_protein|pdb

>  <Gold.PLP.Fitness>  (162) 
56.2341

>  <Gold.PLP.PLP>  (162) 
-45.1173

>  <Gold.PLP.part.hbond>  (162) 
-3.0000

>  <Gold.PLP.part.metal>  (162) 
0.0000

>  <Gold.PLP.part.buried>  (162) 
-3.8476

>  <Gold.PLP.part.nonpolar>  (162) 
-38.0727

>  <Gold.PLP.part.repulsive>  (162) 
0.0701

>  <Gold.PLP.ligand.clash>  (162) 
0.0000

>  <Gold.PLP.ligand.torsion>  (162) 
1.0117

>  <Gold.PLP.Chemscore.Hbond>  (162) 
4.0000

>  <Gold.PLP.Chemscore.CHOScore>  (162) 
0.0000

>  <Gold.PLP.Chemscore.Metal>  (162) 
0.0000

>  <Gold.Chemscore.Hbonds>  (162) 
donor molecule, donor type, donor heavy atom, donor atom, acceptor molecule, acceptor atom, score
      L1  H    16    42       P1  2902  2.00
      L1  H    16    44       P1  2691  1.00
      P1  H  2887  2891       L1     9  1.00

>  <Gold.PLP.Chemscore.Internal.Correction>  (162) 
1.1403

>  <Gold.PLP.Constraint>  (162) 
-0.0000

>  <Gold.Protein.RotatedTorsions>  (162) 
[  681  677  676  673 ] final  -75.87 input -179.99 | X-H torsion
[  702  698  697  694 ] final   47.01 input  179.99 | X-H torsion
[ 2577 2569 2568 2566 ] final   67.18 input   -0.13 | X-H torsion
[ 2891 2887 2886 2883 ] final  154.21 input  179.98 | X-H torsion
[ 3175 3171 3170 3167 ] final   22.62 input -179.99 | X-H torsion
[ 5278 5270 5269 5267 ] final  119.22 input    0.55 | X-H torsion
[  641  637  636  633 ] final  151.41 input  179.99 | X-H torsion
[ 1886 1878 1877 1875 ] final   83.32 input    1.60 | X-H torsion
[  965  957  956  954 ] final   83.54 input    0.45 | X-H torsion

>  <Gold.Protein.ActiveResidues>  (162) 
 LYS47   THR48   LEU49   GLY50   THR51   GLY52   SER53   PHE54   GLY55   ARG56  
 VAL57   MET58   LEU59   TYR69   ALA70   MET71   LYS72   ILE73   LEU74   GLU91  
 LEU95   VAL104  LYS105  MET118  VAL119  MET120  GLU121  TYR122  VAL123  PRO124 
 GLY125  GLY126  GLU127  MET128  PHE129  TYR164  ASP166  LEU167  LYS168  PRO169 
 GLU170  ASN171  LEU172  LEU173  ILE174  GLN181  VAL182  THR183  ASP184  PHE185 
 GLY186  PHE187  GLY200  THR201  ASN326  PHE327  TYR330  ARG18   ARG19   ASN20  
 ALA21   ILE22   HIS23  

>  <Gold.Protein.RotatedAtoms>  (162) 
   11.1739   19.5669    8.5725 H   0  0  0  0  0  0  0  0  0  0  0  0  # atno 641  bound_to 637 
   15.7167   13.3625    7.2691 H   0  0  0  0  0  0  0  0  0  0  0  0  # atno 681  bound_to 677 
   19.3753   11.8602   -1.3440 H   0  0  0  0  0  0  0  0  0  0  0  0  # atno 702  bound_to 698 
   -7.1539   15.9455   -0.0345 H   0  0  0  0  0  0  0  0  0  0  0  0  # atno 965  bound_to 957 
    1.6835   12.2860   10.7236 H   0  0  0  0  0  0  0  0  0  0  0  0  # atno 1886 bound_to 1878
    9.2876    2.5401   -2.8985 H   0  0  0  0  0  0  0  0  0  0  0  0  # atno 2577 bound_to 2569
    7.6600    6.9025    1.2004 H   0  0  0  0  0  0  0  0  0  0  0  0  # atno 2891 bound_to 2887
   18.8897    2.5532   -1.3745 H   0  0  0  0  0  0  0  0  0  0  0  0  # atno 3175 bound_to 3171
   13.7525   10.2356    8.7720 H   0  0  0  0  0  0  0  0  0  0  0  0  # atno 5278 bound_to 5270
   17.1804   13.8357    6.8571 LP  0  0  0  0  0  0  0  0  0  0  0  0  # atno 5914 bound_to 677 
   16.4514   12.5975    6.0812 LP  0  0  0  0  0  0  0  0  0  0  0  0  # atno 5915 bound_to 677 
   20.4907   11.6241   -0.2316 LP  0  0  0  0  0  0  0  0  0  0  0  0  # atno 5920 bound_to 698 
   20.8710   11.5874   -1.8192 LP  0  0  0  0  0  0  0  0  0  0  0  0  # atno 5921 bound_to 698 
   10.5741    3.3605   -3.3536 LP  0  0  0  0  0  0  0  0  0  0  0  0  # atno 5950 bound_to 2569
   10.7174    2.0293   -2.4187 LP  0  0  0  0  0  0  0  0  0  0  0  0  # atno 5951 bound_to 2569
    8.3427    5.8783    0.1897 LP  0  0  0  0  0  0  0  0  0  0  0  0  # atno 5982 bound_to 2887
    7.2705    5.3620    1.3080 LP  0  0  0  0  0  0  0  0  0  0  0  0  # atno 5983 bound_to 2887
   19.1230    2.9475    0.1505 LP  0  0  0  0  0  0  0  0  0  0  0  0  # atno 6000 bound_to 3171
   17.8855    1.9742   -0.2828 LP  0  0  0  0  0  0  0  0  0  0  0  0  # atno 6001 bound_to 3171
   12.6225    9.9396    9.8546 LP  0  0  0  0  0  0  0  0  0  0  0  0  # atno 6004 bound_to 5270
   14.2043    9.8581   10.2519 LP  0  0  0  0  0  0  0  0  0  0  0  0  # atno 6005 bound_to 5270
    9.5968   19.5621    8.3541 LP  0  0  0  0  0  0  0  0  0  0  0  0  # atno 6055 bound_to 637 
   10.5998   18.9320    7.2299 LP  0  0  0  0  0  0  0  0  0  0  0  0  # atno 6056 bound_to 637 
    2.0195   10.7783   10.3373 LP  0  0  0  0  0  0  0  0  0  0  0  0  # atno 6063 bound_to 1878
    0.5937   11.1669   11.0321 LP  0  0  0  0  0  0  0  0  0  0  0  0  # atno 6064 bound_to 1878
   -6.5207   15.6777   -1.4707 LP  0  0  0  0  0  0  0  0  0  0  0  0  # atno 6067 bound_to 957 
   -6.7529   17.2005   -0.9285 LP  0  0  0  0  0  0  0  0  0  0  0  0  # atno 6068 bound_to 957 

>  <STRIFE_LigEff_Score>  (162) 
3.1241166666666667

$$$$
unknown|pharmsElabsTestMulti|sdf|163|dock1
     RDKit          3D

 15 15  0  0  0  0  0  0  0  0999 V2000
    3.8899   10.1002    5.3688 C   0  0  0  0  0  0  0  0  0  0  0  0
    5.4144   10.0835    5.4592 C   0  0  0  0  0  0  0  0  0  0  0  0
    6.0572    9.9714    4.0753 C   0  0  0  0  0  0  0  0  0  0  0  0
    7.4525    9.5634    4.1883 N   0  0  0  0  0  0  0  0  0  0  0  0
    8.2810    9.3749    3.0410 C   0  0  0  0  0  0  0  0  0  0  0  0
    7.8320    9.6075    1.8830 O   0  0  0  0  0  0  0  0  0  0  0  0
    9.7021    8.9273    3.2404 C   0  0  0  0  0  0  0  0  0  0  0  0
    9.9563    7.5788    2.5417 C   0  0  0  0  0  0  0  0  0  0  0  0
   11.4273    7.1552    2.6929 C   0  0  0  0  0  0  0  0  0  0  0  0
   12.3060    8.2591    2.0769 C   0  0  0  0  0  0  0  0  0  0  0  0
   13.7702    7.9095    1.6814 C   0  0  0  0  0  0  0  0  0  0  0  0
   14.7253    9.0766    1.4979 C   0  0  0  0  0  0  0  0  0  0  0  0
   13.9654    6.7969    0.7605 N   0  0  0  0  0  0  0  0  0  0  0  0
   12.1390    9.5608    2.8802 C   0  0  0  0  0  0  0  0  0  0  0  0
   10.6801   10.0305    2.7931 C   0  0  0  0  0  0  0  0  0  0  0  0
  1  2  1  0
  2  3  1  0
  3  4  1  0
  4  5  1  0
  5  6  2  0
  5  7  1  0
  7  8  1  0
  8  9  1  0
  9 10  1  0
 10 11  1  0
 11 12  1  0
 11 13  1  0
 10 14  1  0
 14 15  1  0
 15  7  1  0
M  CHG  1  13   1
M  END
>  <EmbedRMS>  (163) 
0.2000484947854372

>  <Gold.Version>  (163) 
2020.3.0

>  <Gold.Id.Protein>  (163) 
unknown|1q8t_protein|pdb

>  <Gold.PLP.Fitness>  (163) 
42.3620

>  <Gold.PLP.PLP>  (163) 
-33.7793

>  <Gold.PLP.part.hbond>  (163) 
-1.8693

>  <Gold.PLP.part.metal>  (163) 
0.0000

>  <Gold.PLP.part.buried>  (163) 
-2.8738

>  <Gold.PLP.part.nonpolar>  (163) 
-30.1195

>  <Gold.PLP.part.repulsive>  (163) 
0.0941

>  <Gold.PLP.ligand.clash>  (163) 
0.0000

>  <Gold.PLP.ligand.torsion>  (163) 
0.4011

>  <Gold.PLP.Chemscore.Hbond>  (163) 
2.9920

>  <Gold.PLP.Chemscore.CHOScore>  (163) 
0.0000

>  <Gold.PLP.Chemscore.Metal>  (163) 
0.0000

>  <Gold.Chemscore.Hbonds>  (163) 
donor molecule, donor type, donor heavy atom, donor atom, acceptor molecule, acceptor atom, score
      L1  H    13    35       P1  2691  0.99
      L1  H    13    36       P1  2902  2.00

>  <Gold.PLP.Chemscore.Internal.Correction>  (163) 
0.4090

>  <Gold.PLP.Constraint>  (163) 
-0.0000

>  <Gold.Protein.RotatedTorsions>  (163) 
[  681  677  676  673 ] final   92.86 input -179.99 | X-H torsion
[  702  698  697  694 ] final  -27.75 input  179.99 | X-H torsion
[ 2577 2569 2568 2566 ] final   39.35 input   -0.13 | X-H torsion
[ 2891 2887 2886 2883 ] final -137.43 input  179.98 | X-H torsion
[ 3175 3171 3170 3167 ] final -105.48 input -179.99 | X-H torsion
[ 5278 5270 5269 5267 ] final  153.21 input    0.55 | X-H torsion
[  641  637  636  633 ] final   93.81 input  179.99 | X-H torsion
[ 1886 1878 1877 1875 ] final   79.37 input    1.60 | X-H torsion
[  965  957  956  954 ] final   62.23 input    0.45 | X-H torsion

>  <Gold.Protein.ActiveResidues>  (163) 
 LYS47   THR48   LEU49   GLY50   THR51   GLY52   SER53   PHE54   GLY55   ARG56  
 VAL57   MET58   LEU59   TYR69   ALA70   MET71   LYS72   ILE73   LEU74   GLU91  
 LEU95   VAL104  LYS105  MET118  VAL119  MET120  GLU121  TYR122  VAL123  PRO124 
 GLY125  GLY126  GLU127  MET128  PHE129  TYR164  ASP166  LEU167  LYS168  PRO169 
 GLU170  ASN171  LEU172  LEU173  ILE174  GLN181  VAL182  THR183  ASP184  PHE185 
 GLY186  PHE187  GLY200  THR201  ASN326  PHE327  TYR330  ARG18   ARG19   ASN20  
 ALA21   ILE22   HIS23  

>  <Gold.Protein.RotatedAtoms>  (163) 
   10.3822   19.7568    8.8578 H   0  0  0  0  0  0  0  0  0  0  0  0  # atno 641  bound_to 637 
   17.0564   13.0543    6.1337 H   0  0  0  0  0  0  0  0  0  0  0  0  # atno 681  bound_to 677 
   19.8060   11.7646   -0.3492 H   0  0  0  0  0  0  0  0  0  0  0  0  # atno 702  bound_to 698 
   -7.0838   15.6641   -0.1944 H   0  0  0  0  0  0  0  0  0  0  0  0  # atno 965  bound_to 957 
    1.7367   12.2693   10.6972 H   0  0  0  0  0  0  0  0  0  0  0  0  # atno 1886 bound_to 1878
    9.3539    2.8919   -3.1380 H   0  0  0  0  0  0  0  0  0  0  0  0  # atno 2577 bound_to 2569
    7.1688    6.1100    1.5795 H   0  0  0  0  0  0  0  0  0  0  0  0  # atno 2891 bound_to 2887
   19.0264    2.8607    0.2007 H   0  0  0  0  0  0  0  0  0  0  0  0  # atno 3175 bound_to 3171
   14.1998   10.1747    9.0378 H   0  0  0  0  0  0  0  0  0  0  0  0  # atno 5278 bound_to 5270
   15.6259   12.7874    6.7808 LP  0  0  0  0  0  0  0  0  0  0  0  0  # atno 5914 bound_to 677 
   16.5959   13.9701    7.3525 LP  0  0  0  0  0  0  0  0  0  0  0  0  # atno 5915 bound_to 677 
   21.1580   11.5237   -1.1563 LP  0  0  0  0  0  0  0  0  0  0  0  0  # atno 5920 bound_to 698 
   19.7506   11.7883   -1.9410 LP  0  0  0  0  0  0  0  0  0  0  0  0  # atno 5921 bound_to 698 
   10.9265    3.1388   -3.1738 LP  0  0  0  0  0  0  0  0  0  0  0  0  # atno 5950 bound_to 2569
   10.2951    1.8805   -2.3464 LP  0  0  0  0  0  0  0  0  0  0  0  0  # atno 5951 bound_to 2569
    8.1882    6.8428    0.5997 LP  0  0  0  0  0  0  0  0  0  0  0  0  # atno 5982 bound_to 2887
    7.9419    5.2317    0.4990 LP  0  0  0  0  0  0  0  0  0  0  0  0  # atno 5983 bound_to 2887
   17.8742    1.9488   -0.4129 LP  0  0  0  0  0  0  0  0  0  0  0  0  # atno 6000 bound_to 3171
   18.9905    2.6493   -1.3772 LP  0  0  0  0  0  0  0  0  0  0  0  0  # atno 6001 bound_to 3171
   12.6356   10.0717    9.3197 LP  0  0  0  0  0  0  0  0  0  0  0  0  # atno 6004 bound_to 5270
   13.7206    9.7901   10.5072 LP  0  0  0  0  0  0  0  0  0  0  0  0  # atno 6005 bound_to 5270
    9.7035   19.1471    7.5530 LP  0  0  0  0  0  0  0  0  0  0  0  0  # atno 6055 bound_to 637 
   11.3268   19.1470    7.7305 LP  0  0  0  0  0  0  0  0  0  0  0  0  # atno 6056 bound_to 637 
    1.9739   10.7336   10.3497 LP  0  0  0  0  0  0  0  0  0  0  0  0  # atno 6063 bound_to 1878
    0.5831   11.2291   11.0474 LP  0  0  0  0  0  0  0  0  0  0  0  0  # atno 6064 bound_to 1878
   -6.4501   15.9851   -1.6194 LP  0  0  0  0  0  0  0  0  0  0  0  0  # atno 6067 bound_to 957 
   -6.8974   17.1894   -0.6114 LP  0  0  0  0  0  0  0  0  0  0  0  0  # atno 6068 bound_to 957 

>  <STRIFE_LigEff_Score>  (163) 
2.8241333333333336

$$$$
unknown|pharmsElabsTestMulti|sdf|164|dock1
     RDKit          3D

 18 19  0  0  0  0  0  0  0  0999 V2000
   13.9019    6.7748    3.2026 C   0  0  0  0  0  0  0  0  0  0  0  0
   13.6837    7.7102    1.9971 C   0  0  0  0  0  0  0  0  0  0  0  0
   13.8434    6.9413    0.7560 N   0  0  0  0  0  0  0  0  0  0  0  0
   12.2855    8.3893    2.0922 C   0  0  0  0  0  0  0  0  0  0  0  0
   11.2172    7.4868    1.4410 C   0  0  0  0  0  0  0  0  0  0  0  0
    9.8791    8.2098    1.3891 C   0  0  0  0  0  0  0  0  0  0  0  0
    9.4198    8.5737    2.8049 C   0  0  0  0  0  0  0  0  0  0  0  0
    8.0936    9.2709    2.7540 C   0  0  0  0  0  0  0  0  0  0  0  0
    7.6499    9.6998    1.6538 O   0  0  0  0  0  0  0  0  0  0  0  0
    7.3447    9.4365    3.9666 N   0  0  0  0  0  0  0  0  0  0  0  0
    6.0443   10.1008    4.0582 C   0  0  0  0  0  0  0  0  0  0  0  0
    5.3670    9.8109    5.4142 C   0  0  0  0  0  0  0  0  0  0  0  0
    3.8949   10.2183    5.3684 C   0  0  0  0  0  0  0  0  0  0  0  0
    3.1056    9.4356    4.2989 C   0  0  0  0  0  0  0  0  0  0  0  0
    3.9765    8.8612    3.1676 C   0  0  0  0  0  0  0  0  0  0  0  0
    5.1603    9.7740    2.8285 C   0  0  0  0  0  0  0  0  0  0  0  0
   10.4689    9.4306    3.5333 C   0  0  0  0  0  0  0  0  0  0  0  0
   11.8420    8.7382    3.5349 C   0  0  0  0  0  0  0  0  0  0  0  0
  1  2  1  0
  2  3  1  0
  2  4  1  0
  4  5  1  0
  5  6  1  0
  6  7  1  0
  7  8  1  0
  8  9  2  0
  8 10  1  0
 10 11  1  0
 11 12  1  0
 12 13  1  0
 13 14  1  0
 14 15  1  0
 15 16  1  0
  7 17  1  0
 17 18  1  0
 18  4  1  0
 16 11  1  0
M  CHG  1   3   1
M  END
>  <EmbedRMS>  (164) 
0.03225401817650533

>  <Gold.Version>  (164) 
2020.3.0

>  <Gold.Id.Protein>  (164) 
unknown|1q8t_protein|pdb

>  <Gold.PLP.Fitness>  (164) 
54.3220

>  <Gold.PLP.PLP>  (164) 
-47.3117

>  <Gold.PLP.part.hbond>  (164) 
-2.0000

>  <Gold.PLP.part.metal>  (164) 
0.0000

>  <Gold.PLP.part.buried>  (164) 
-0.6939

>  <Gold.PLP.part.nonpolar>  (164) 
-45.3151

>  <Gold.PLP.part.repulsive>  (164) 
0.0790

>  <Gold.PLP.ligand.clash>  (164) 
0.0000

>  <Gold.PLP.ligand.torsion>  (164) 
1.0268

>  <Gold.PLP.Chemscore.Hbond>  (164) 
3.0000

>  <Gold.PLP.Chemscore.CHOScore>  (164) 
0.0000

>  <Gold.PLP.Chemscore.Metal>  (164) 
0.0000

>  <Gold.Chemscore.Hbonds>  (164) 
donor molecule, donor type, donor heavy atom, donor atom, acceptor molecule, acceptor atom, score
      L1  H     3    23       P1  2691  1.00
      L1  H     3    24       P1  2902  2.00

>  <Gold.PLP.Chemscore.Internal.Correction>  (164) 
0.0638

>  <Gold.PLP.Constraint>  (164) 
-0.0000

>  <Gold.Protein.RotatedTorsions>  (164) 
[  681  677  676  673 ] final   98.33 input -179.99 | X-H torsion
[  702  698  697  694 ] final -132.09 input  179.99 | X-H torsion
[ 2577 2569 2568 2566 ] final   50.78 input   -0.13 | X-H torsion
[ 2891 2887 2886 2883 ] final -155.30 input  179.98 | X-H torsion
[ 3175 3171 3170 3167 ] final   -2.99 input -179.99 | X-H torsion
[ 5278 5270 5269 5267 ] final -161.64 input    0.55 | X-H torsion
[  641  637  636  633 ] final -123.29 input  179.99 | X-H torsion
[ 1886 1878 1877 1875 ] final  -22.17 input    1.60 | X-H torsion
[  965  957  956  954 ] final   14.39 input    0.45 | X-H torsion

>  <Gold.Protein.ActiveResidues>  (164) 
 LYS47   THR48   LEU49   GLY50   THR51   GLY52   SER53   PHE54   GLY55   ARG56  
 VAL57   MET58   LEU59   TYR69   ALA70   MET71   LYS72   ILE73   LEU74   GLU91  
 LEU95   VAL104  LYS105  MET118  VAL119  MET120  GLU121  TYR122  VAL123  PRO124 
 GLY125  GLY126  GLU127  MET128  PHE129  TYR164  ASP166  LEU167  LYS168  PRO169 
 GLU170  ASN171  LEU172  LEU173  ILE174  GLN181  VAL182  THR183  ASP184  PHE185 
 GLY186  PHE187  GLY200  THR201  ASN326  PHE327  TYR330  ARG18   ARG19   ASN20  
 ALA21   ILE22   HIS23  

>  <Gold.Protein.RotatedAtoms>  (164) 
   11.0746   19.0215    7.4934 H   0  0  0  0  0  0  0  0  0  0  0  0  # atno 641  bound_to 637 
   17.1043   13.1172    6.1663 H   0  0  0  0  0  0  0  0  0  0  0  0  # atno 681  bound_to 677 
   21.0868   11.5484   -0.9123 H   0  0  0  0  0  0  0  0  0  0  0  0  # atno 702  bound_to 698 
   -6.8105   15.3735   -0.8010 H   0  0  0  0  0  0  0  0  0  0  0  0  # atno 965  bound_to 957 
    2.1184   10.9926   10.3112 H   0  0  0  0  0  0  0  0  0  0  0  0  # atno 1886 bound_to 1878
    9.3016    2.7500   -3.0433 H   0  0  0  0  0  0  0  0  0  0  0  0  # atno 2577 bound_to 2569
    7.2382    6.3790    1.5636 H   0  0  0  0  0  0  0  0  0  0  0  0  # atno 2891 bound_to 2887
   19.1590    2.7771   -1.1875 H   0  0  0  0  0  0  0  0  0  0  0  0  # atno 3175 bound_to 3171
   14.4245   10.0212    9.6695 H   0  0  0  0  0  0  0  0  0  0  0  0  # atno 5278 bound_to 5270
   15.6572   12.7379    6.7124 LP  0  0  0  0  0  0  0  0  0  0  0  0  # atno 5914 bound_to 677 
   16.5143   13.9534    7.3865 LP  0  0  0  0  0  0  0  0  0  0  0  0  # atno 5915 bound_to 677 
   19.9830   11.7491   -2.0432 LP  0  0  0  0  0  0  0  0  0  0  0  0  # atno 5920 bound_to 698 
   19.5782   11.7903   -0.4617 LP  0  0  0  0  0  0  0  0  0  0  0  0  # atno 5921 bound_to 698 
   10.7988    3.2474   -3.2586 LP  0  0  0  0  0  0  0  0  0  0  0  0  # atno 5950 bound_to 2569
   10.4778    1.9213   -2.3613 LP  0  0  0  0  0  0  0  0  0  0  0  0  # atno 5951 bound_to 2569
    8.3077    6.6496    0.4149 LP  0  0  0  0  0  0  0  0  0  0  0  0  # atno 5982 bound_to 2887
    7.7493    5.1418    0.7006 LP  0  0  0  0  0  0  0  0  0  0  0  0  # atno 5983 bound_to 2887
   18.8237    2.7545    0.3690 LP  0  0  0  0  0  0  0  0  0  0  0  0  # atno 6000 bound_to 3171
   17.9015    1.9316   -0.6982 LP  0  0  0  0  0  0  0  0  0  0  0  0  # atno 6001 bound_to 3171
   13.1098   10.2073    8.7899 LP  0  0  0  0  0  0  0  0  0  0  0  0  # atno 6004 bound_to 5270
   13.0100    9.8160   10.3722 LP  0  0  0  0  0  0  0  0  0  0  0  0  # atno 6005 bound_to 5270
   10.7502   19.7593    8.8665 LP  0  0  0  0  0  0  0  0  0  0  0  0  # atno 6055 bound_to 637 
    9.5508   19.3093    7.8539 LP  0  0  0  0  0  0  0  0  0  0  0  0  # atno 6056 bound_to 637 
    0.6664   10.9507   10.9632 LP  0  0  0  0  0  0  0  0  0  0  0  0  # atno 6063 bound_to 1878
    1.4889   12.3560   10.8403 LP  0  0  0  0  0  0  0  0  0  0  0  0  # atno 6064 bound_to 1878
   -6.4794   16.7449   -1.5391 LP  0  0  0  0  0  0  0  0  0  0  0  0  # atno 6067 bound_to 957 
   -7.1559   16.7358   -0.0528 LP  0  0  0  0  0  0  0  0  0  0  0  0  # atno 6068 bound_to 957 

>  <STRIFE_LigEff_Score>  (164) 
3.017888888888889

$$$$
unknown|pharmsElabsTestMulti|sdf|165|dock6
     RDKit          3D

 18 18  0  0  0  0  0  0  0  0999 V2000
    3.9001    9.4460    1.7798 C   0  0  0  0  0  0  0  0  0  0  0  0
    3.4865    8.7762    3.0844 C   0  0  0  0  0  0  0  0  0  0  0  0
    3.5330    9.7796    4.2294 C   0  0  0  0  0  0  0  0  0  0  0  0
    4.3138    9.2379    5.3446 N   0  0  0  0  0  0  0  0  0  0  0  0
    5.4903   10.0813    5.5893 C   0  0  0  0  0  0  0  0  0  0  0  0
    6.2165   10.3904    4.2810 C   0  0  0  0  0  0  0  0  0  0  0  0
    7.5489    9.7972    4.2948 N   0  0  0  0  0  0  0  0  0  0  0  0
    8.0466    8.9801    3.2311 C   0  0  0  0  0  0  0  0  0  0  0  0
    7.3065    8.6974    2.2458 O   0  0  0  0  0  0  0  0  0  0  0  0
    9.4647    8.4685    3.2872 C   0  0  0  0  0  0  0  0  0  0  0  0
    9.8377    7.8629    1.9392 C   0  0  0  0  0  0  0  0  0  0  0  0
   11.2115    7.2182    1.9502 C   0  0  0  0  0  0  0  0  0  0  0  0
   12.2850    7.9872    2.7431 C   0  0  0  0  0  0  0  0  0  0  0  0
   13.7660    7.7813    2.2655 C   0  0  0  0  0  0  0  0  0  0  0  0
   14.7785    7.3756    3.3472 C   0  0  0  0  0  0  0  0  0  0  0  0
   13.8599    6.8696    1.1197 N   0  0  0  0  0  0  0  0  0  0  0  0
   11.9157    9.3048    3.4568 C   0  0  0  0  0  0  0  0  0  0  0  0
   10.4180    9.6120    3.6521 C   0  0  0  0  0  0  0  0  0  0  0  0
  1  2  1  0
  2  3  1  0
  3  4  1  0
  4  5  1  0
  5  6  1  0
  6  7  1  0
  7  8  1  0
  8  9  2  0
  8 10  1  0
 10 11  1  0
 11 12  1  0
 12 13  1  0
 13 14  1  0
 14 15  1  0
 14 16  1  0
 13 17  1  0
 17 18  1  0
 18 10  1  0
M  CHG  1  16   1
M  END
>  <EmbedRMS>  (165) 
0.16499967102600221

>  <Gold.Version>  (165) 
2020.3.0

>  <Gold.Id.Protein>  (165) 
unknown|1q8t_protein|pdb

>  <Gold.PLP.Fitness>  (165) 
54.6099

>  <Gold.PLP.PLP>  (165) 
-46.2669

>  <Gold.PLP.part.hbond>  (165) 
-2.9297

>  <Gold.PLP.part.metal>  (165) 
0.0000

>  <Gold.PLP.part.buried>  (165) 
-3.6152

>  <Gold.PLP.part.nonpolar>  (165) 
-40.4459

>  <Gold.PLP.part.repulsive>  (165) 
0.0752

>  <Gold.PLP.ligand.clash>  (165) 
0.0000

>  <Gold.PLP.ligand.torsion>  (165) 
2.3933

>  <Gold.PLP.Chemscore.Hbond>  (165) 
3.9913

>  <Gold.PLP.Chemscore.CHOScore>  (165) 
0.0000

>  <Gold.PLP.Chemscore.Metal>  (165) 
0.0000

>  <Gold.Chemscore.Hbonds>  (165) 
donor molecule, donor type, donor heavy atom, donor atom, acceptor molecule, acceptor atom, score
      L1  H    16    42       P1  2691  1.00
      L1  H    16    43       P1  2902  2.00
      P1  H  2887  2891       L1     9  0.99

>  <Gold.PLP.Chemscore.Internal.Correction>  (165) 
1.1559

>  <Gold.PLP.Constraint>  (165) 
-0.0000

>  <Gold.Protein.RotatedTorsions>  (165) 
[  681  677  676  673 ] final -131.37 input -179.99 | X-H torsion
[  702  698  697  694 ] final   80.65 input  179.99 | X-H torsion
[ 2577 2569 2568 2566 ] final  126.25 input   -0.13 | X-H torsion
[ 2891 2887 2886 2883 ] final  155.62 input  179.98 | X-H torsion
[ 3175 3171 3170 3167 ] final  129.75 input -179.99 | X-H torsion
[ 5278 5270 5269 5267 ] final  -21.56 input    0.55 | X-H torsion
[  641  637  636  633 ] final  -92.09 input  179.99 | X-H torsion
[ 1886 1878 1877 1875 ] final   24.58 input    1.60 | X-H torsion
[  965  957  956  954 ] final  -67.63 input    0.45 | X-H torsion

>  <Gold.Protein.ActiveResidues>  (165) 
 LYS47   THR48   LEU49   GLY50   THR51   GLY52   SER53   PHE54   GLY55   ARG56  
 VAL57   MET58   LEU59   TYR69   ALA70   MET71   LYS72   ILE73   LEU74   GLU91  
 LEU95   VAL104  LYS105  MET118  VAL119  MET120  GLU121  TYR122  VAL123  PRO124 
 GLY125  GLY126  GLU127  MET128  PHE129  TYR164  ASP166  LEU167  LYS168  PRO169 
 GLU170  ASN171  LEU172  LEU173  ILE174  GLN181  VAL182  THR183  ASP184  PHE185 
 GLY186  PHE187  GLY200  THR201  ASN326  PHE327  TYR330  ARG18   ARG19   ASN20  
 ALA21   ILE22   HIS23  

>  <Gold.Protein.RotatedAtoms>  (165) 
   10.6463   18.9408    7.2886 H   0  0  0  0  0  0  0  0  0  0  0  0  # atno 641  bound_to 637 
   16.3566   13.8838    7.3895 H   0  0  0  0  0  0  0  0  0  0  0  0  # atno 681  bound_to 677 
   19.6345   11.8229   -1.7917 H   0  0  0  0  0  0  0  0  0  0  0  0  # atno 702  bound_to 698 
   -6.4388   16.1494   -1.6013 H   0  0  0  0  0  0  0  0  0  0  0  0  # atno 965  bound_to 957 
    2.2309   11.6907   10.3807 H   0  0  0  0  0  0  0  0  0  0  0  0  # atno 1886 bound_to 1878
    9.7877    1.9602   -2.4592 H   0  0  0  0  0  0  0  0  0  0  0  0  # atno 2577 bound_to 2569
    7.6455    6.8953    1.2154 H   0  0  0  0  0  0  0  0  0  0  0  0  # atno 2891 bound_to 2887
   17.9229    1.9529   -0.4904 H   0  0  0  0  0  0  0  0  0  0  0  0  # atno 3175 bound_to 3171
   12.8092    9.8911   10.1288 H   0  0  0  0  0  0  0  0  0  0  0  0  # atno 5278 bound_to 5270
   17.2233   13.2264    6.2265 LP  0  0  0  0  0  0  0  0  0  0  0  0  # atno 5914 bound_to 677 
   15.7350   12.6580    6.5850 LP  0  0  0  0  0  0  0  0  0  0  0  0  # atno 5915 bound_to 677 
   19.9534   11.7194   -0.2345 LP  0  0  0  0  0  0  0  0  0  0  0  0  # atno 5920 bound_to 698 
   21.1355   11.5313   -1.3453 LP  0  0  0  0  0  0  0  0  0  0  0  0  # atno 5921 bound_to 698 
    9.6493    3.2679   -3.3570 LP  0  0  0  0  0  0  0  0  0  0  0  0  # atno 5950 bound_to 2569
   11.1157    2.7325   -2.8778 LP  0  0  0  0  0  0  0  0  0  0  0  0  # atno 5951 bound_to 2569
    8.3481    5.9009    0.1888 LP  0  0  0  0  0  0  0  0  0  0  0  0  # atno 5982 bound_to 2887
    7.2802    5.3471    1.2931 LP  0  0  0  0  0  0  0  0  0  0  0  0  # atno 5983 bound_to 2887
   19.0450    2.6941   -1.3431 LP  0  0  0  0  0  0  0  0  0  0  0  0  # atno 6000 bound_to 3171
   18.9811    2.8594    0.2803 LP  0  0  0  0  0  0  0  0  0  0  0  0  # atno 6001 bound_to 3171
   14.3944    9.9275    9.9785 LP  0  0  0  0  0  0  0  0  0  0  0  0  # atno 6004 bound_to 5270
   13.4251   10.2327    8.7003 LP  0  0  0  0  0  0  0  0  0  0  0  0  # atno 6005 bound_to 5270
   11.1753   19.6151    8.6305 LP  0  0  0  0  0  0  0  0  0  0  0  0  # atno 6055 bound_to 637 
    9.5768   19.5384    8.3055 LP  0  0  0  0  0  0  0  0  0  0  0  0  # atno 6056 bound_to 637 
    1.1924   10.5158   10.6571 LP  0  0  0  0  0  0  0  0  0  0  0  0  # atno 6063 bound_to 1878
    0.8444   12.0560   11.0732 LP  0  0  0  0  0  0  0  0  0  0  0  0  # atno 6064 bound_to 1878
   -6.9619   17.1409   -0.4707 LP  0  0  0  0  0  0  0  0  0  0  0  0  # atno 6067 bound_to 957 
   -7.0649   15.5226   -0.2783 LP  0  0  0  0  0  0  0  0  0  0  0  0  # atno 6068 bound_to 957 

>  <STRIFE_LigEff_Score>  (165) 
3.0338833333333337

$$$$
unknown|pharmsElabsTestMulti|sdf|166|dock7
     RDKit          3D

 17 17  0  0  0  0  0  0  0  0999 V2000
    3.6645    8.3317    2.9103 C   0  0  0  0  0  0  0  0  0  0  0  0
    3.2926    9.6801    3.5052 C   0  0  0  0  0  0  0  0  0  0  0  0
    3.7910    9.7848    4.8811 N   0  0  0  0  0  0  0  0  0  0  0  0
    5.2178    9.4506    4.8955 C   0  0  0  0  0  0  0  0  0  0  0  0
    5.9718   10.2222    3.8074 C   0  0  0  0  0  0  0  0  0  0  0  0
    7.4028    9.8863    3.8414 N   0  0  0  0  0  0  0  0  0  0  0  0
    8.0174    9.2230    2.7235 C   0  0  0  0  0  0  0  0  0  0  0  0
    7.3065    8.8898    1.7431 O   0  0  0  0  0  0  0  0  0  0  0  0
    9.4757    8.9013    2.5922 C   0  0  0  0  0  0  0  0  0  0  0  0
    9.7979    7.4113    2.4544 C   0  0  0  0  0  0  0  0  0  0  0  0
   11.3040    7.0797    2.5020 C   0  0  0  0  0  0  0  0  0  0  0  0
   12.1521    8.2841    2.0626 C   0  0  0  0  0  0  0  0  0  0  0  0
   13.6471    8.0281    1.6984 C   0  0  0  0  0  0  0  0  0  0  0  0
   14.5040    9.2488    1.4094 C   0  0  0  0  0  0  0  0  0  0  0  0
   13.9466    6.8611    0.8754 N   0  0  0  0  0  0  0  0  0  0  0  0
   11.9449    9.4511    3.0495 C   0  0  0  0  0  0  0  0  0  0  0  0
   10.4668    9.8467    3.2508 C   0  0  0  0  0  0  0  0  0  0  0  0
  1  2  1  0
  2  3  1  0
  3  4  1  0
  4  5  1  0
  5  6  1  0
  6  7  1  0
  7  8  2  0
  7  9  1  0
  9 10  1  0
 10 11  1  0
 11 12  1  0
 12 13  1  0
 13 14  1  0
 13 15  1  0
 12 16  1  0
 16 17  1  0
 17  9  1  0
M  CHG  1  15   1
M  END
>  <EmbedRMS>  (166) 
0.25842907567579826

>  <Gold.Version>  (166) 
2020.3.0

>  <Gold.Id.Protein>  (166) 
unknown|1q8t_protein|pdb

>  <Gold.PLP.Fitness>  (166) 
50.4687

>  <Gold.PLP.PLP>  (166) 
-38.5709

>  <Gold.PLP.part.hbond>  (166) 
-3.0000

>  <Gold.PLP.part.metal>  (166) 
0.0000

>  <Gold.PLP.part.buried>  (166) 
-2.3631

>  <Gold.PLP.part.nonpolar>  (166) 
-32.9288

>  <Gold.PLP.part.repulsive>  (166) 
0.0854

>  <Gold.PLP.ligand.clash>  (166) 
0.0000

>  <Gold.PLP.ligand.torsion>  (166) 
0.5752

>  <Gold.PLP.Chemscore.Hbond>  (166) 
4.0000

>  <Gold.PLP.Chemscore.CHOScore>  (166) 
0.0000

>  <Gold.PLP.Chemscore.Metal>  (166) 
0.0000

>  <Gold.Chemscore.Hbonds>  (166) 
donor molecule, donor type, donor heavy atom, donor atom, acceptor molecule, acceptor atom, score
      L1  H    15    39       P1  2691  1.00
      L1  H    15    40       P1  2902  2.00
      P1  H  2887  2891       L1     8  1.00

>  <Gold.PLP.Chemscore.Internal.Correction>  (166) 
1.0482

>  <Gold.PLP.Constraint>  (166) 
-0.0000

>  <Gold.Protein.RotatedTorsions>  (166) 
[  681  677  676  673 ] final   79.35 input -179.99 | X-H torsion
[  702  698  697  694 ] final -163.70 input  179.99 | X-H torsion
[ 2577 2569 2568 2566 ] final   63.26 input   -0.13 | X-H torsion
[ 2891 2887 2886 2883 ] final  155.84 input  179.98 | X-H torsion
[ 3175 3171 3170 3167 ] final -176.04 input -179.99 | X-H torsion
[ 5278 5270 5269 5267 ] final  157.25 input    0.55 | X-H torsion
[  641  637  636  633 ] final  -76.33 input  179.99 | X-H torsion
[ 1886 1878 1877 1875 ] final  109.63 input    1.60 | X-H torsion
[  965  957  956  954 ] final   42.22 input    0.45 | X-H torsion

>  <Gold.Protein.ActiveResidues>  (166) 
 LYS47   THR48   LEU49   GLY50   THR51   GLY52   SER53   PHE54   GLY55   ARG56  
 VAL57   MET58   LEU59   TYR69   ALA70   MET71   LYS72   ILE73   LEU74   GLU91  
 LEU95   VAL104  LYS105  MET118  VAL119  MET120  GLU121  TYR122  VAL123  PRO124 
 GLY125  GLY126  GLU127  MET128  PHE129  TYR164  ASP166  LEU167  LYS168  PRO169 
 GLU170  ASN171  LEU172  LEU173  ILE174  GLN181  VAL182  THR183  ASP184  PHE185 
 GLY186  PHE187  GLY200  THR201  ASN326  PHE327  TYR330  ARG18   ARG19   ASN20  
 ALA21   ILE22   HIS23  

>  <Gold.Protein.RotatedAtoms>  (166) 
   10.4015   18.9447    7.2695 H   0  0  0  0  0  0  0  0  0  0  0  0  # atno 641  bound_to 637 
   16.9148   12.9088    6.0771 H   0  0  0  0  0  0  0  0  0  0  0  0  # atno 681  bound_to 677 
   21.0765   11.5597   -1.4004 H   0  0  0  0  0  0  0  0  0  0  0  0  # atno 702  bound_to 698 
   -6.9831   15.4747   -0.4197 H   0  0  0  0  0  0  0  0  0  0  0  0  # atno 965  bound_to 957 
    1.3108   12.2915   10.8888 H   0  0  0  0  0  0  0  0  0  0  0  0  # atno 1886 bound_to 1878
    9.2843    2.5901   -2.9335 H   0  0  0  0  0  0  0  0  0  0  0  0  # atno 2577 bound_to 2569
    7.6433    6.8941    1.2177 H   0  0  0  0  0  0  0  0  0  0  0  0  # atno 2891 bound_to 2887
   18.1939    2.2468    0.2212 H   0  0  0  0  0  0  0  0  0  0  0  0  # atno 3175 bound_to 3171
   14.2400   10.1635    9.0850 H   0  0  0  0  0  0  0  0  0  0  0  0  # atno 5278 bound_to 5270
   15.5810   12.9271    6.9471 LP  0  0  0  0  0  0  0  0  0  0  0  0  # atno 5914 bound_to 677 
   16.7899   13.9836    7.2457 LP  0  0  0  0  0  0  0  0  0  0  0  0  # atno 5915 bound_to 677 
   19.5505   11.8206   -1.7755 LP  0  0  0  0  0  0  0  0  0  0  0  0  # atno 5920 bound_to 698 
   20.0215   11.7070   -0.2160 LP  0  0  0  0  0  0  0  0  0  0  0  0  # atno 5921 bound_to 698 
   10.6314    3.3385   -3.3341 LP  0  0  0  0  0  0  0  0  0  0  0  0  # atno 5950 bound_to 2569
   10.6635    1.9985   -2.4013 LP  0  0  0  0  0  0  0  0  0  0  0  0  # atno 5951 bound_to 2569
    8.3490    5.9044    0.1887 LP  0  0  0  0  0  0  0  0  0  0  0  0  # atno 5982 bound_to 2887
    7.2817    5.3448    1.2907 LP  0  0  0  0  0  0  0  0  0  0  0  0  # atno 5983 bound_to 2887
   18.3559    2.1813   -1.3615 LP  0  0  0  0  0  0  0  0  0  0  0  0  # atno 6000 bound_to 3171
   19.3850    3.0629   -0.4502 LP  0  0  0  0  0  0  0  0  0  0  0  0  # atno 6001 bound_to 3171
   12.6587   10.0868    9.2594 LP  0  0  0  0  0  0  0  0  0  0  0  0  # atno 6004 bound_to 5270
   13.6552    9.7868   10.5178 LP  0  0  0  0  0  0  0  0  0  0  0  0  # atno 6005 bound_to 5270
   11.3181   19.5108    8.4419 LP  0  0  0  0  0  0  0  0  0  0  0  0  # atno 6055 bound_to 637 
    9.6918   19.6386    8.5143 LP  0  0  0  0  0  0  0  0  0  0  0  0  # atno 6056 bound_to 637 
    2.2433   11.1426   10.3007 LP  0  0  0  0  0  0  0  0  0  0  0  0  # atno 6063 bound_to 1878
    0.7621   10.7968   10.8947 LP  0  0  0  0  0  0  0  0  0  0  0  0  # atno 6064 bound_to 1878
   -6.4298   16.3098   -1.6572 LP  0  0  0  0  0  0  0  0  0  0  0  0  # atno 6067 bound_to 957 
   -7.0238   17.0642   -0.3364 LP  0  0  0  0  0  0  0  0  0  0  0  0  # atno 6068 bound_to 957 

>  <STRIFE_LigEff_Score>  (166) 
2.968747058823529

$$$$
unknown|pharmsElabsTestMulti|sdf|167|dock3
     RDKit          3D

 17 17  0  0  0  0  0  0  0  0999 V2000
   14.1094    9.3386    1.4341 C   0  0  0  0  0  0  0  0  0  0  0  0
   13.2253    8.1387    1.7269 C   0  0  0  0  0  0  0  0  0  0  0  0
   13.6174    6.9070    1.0514 N   0  0  0  0  0  0  0  0  0  0  0  0
   11.7003    8.4123    1.8868 C   0  0  0  0  0  0  0  0  0  0  0  0
   10.8190    7.2803    2.4401 C   0  0  0  0  0  0  0  0  0  0  0  0
    9.3253    7.5590    2.1763 C   0  0  0  0  0  0  0  0  0  0  0  0
    8.9916    9.0352    1.9691 C   0  0  0  0  0  0  0  0  0  0  0  0
    7.5320    9.3294    1.9006 C   0  0  0  0  0  0  0  0  0  0  0  0
    7.0790    9.6867    0.7898 O   0  0  0  0  0  0  0  0  0  0  0  0
    6.6680    9.2190    3.0144 N   0  0  0  0  0  0  0  0  0  0  0  0
    5.2952    9.6312    3.0204 C   0  0  0  0  0  0  0  0  0  0  0  0
    4.7257   10.0971    1.9835 O   0  0  0  0  0  0  0  0  0  0  0  0
    4.6207    9.4594    4.3405 C   0  0  0  0  0  0  0  0  0  0  0  0
    5.3306    9.9781    5.4122 O   0  0  0  0  0  0  0  0  0  0  0  0
    3.2573    9.6968    4.3208 O   0  0  0  0  0  0  0  0  0  0  0  0
    9.8827   10.1070    2.5832 C   0  0  0  0  0  0  0  0  0  0  0  0
   11.3769    9.7277    2.6237 C   0  0  0  0  0  0  0  0  0  0  0  0
  1  2  1  0
  2  3  1  0
  2  4  1  0
  4  5  1  0
  5  6  1  0
  6  7  1  0
  7  8  1  0
  8  9  2  0
  8 10  1  0
 10 11  1  0
 11 12  2  0
 11 13  1  0
 13 14  1  0
 13 15  1  0
  7 16  1  0
 16 17  1  0
 17  4  1  0
M  CHG  1   3   1
M  END
>  <EmbedRMS>  (167) 
0.34070605611656996

>  <Gold.Version>  (167) 
2020.3.0

>  <Gold.Id.Protein>  (167) 
unknown|1q8t_protein|pdb

>  <Gold.PLP.Fitness>  (167) 
40.6375

>  <Gold.PLP.PLP>  (167) 
-29.6199

>  <Gold.PLP.part.hbond>  (167) 
-2.6303

>  <Gold.PLP.part.metal>  (167) 
0.0000

>  <Gold.PLP.part.buried>  (167) 
-4.0164

>  <Gold.PLP.part.nonpolar>  (167) 
-23.9189

>  <Gold.PLP.part.repulsive>  (167) 
0.1028

>  <Gold.PLP.ligand.clash>  (167) 
0.0000

>  <Gold.PLP.ligand.torsion>  (167) 
0.6625

>  <Gold.PLP.Chemscore.Hbond>  (167) 
3.6937

>  <Gold.PLP.Chemscore.CHOScore>  (167) 
0.0000

>  <Gold.PLP.Chemscore.Metal>  (167) 
0.0000

>  <Gold.Chemscore.Hbonds>  (167) 
donor molecule, donor type, donor heavy atom, donor atom, acceptor molecule, acceptor atom, score
      L1  H     3    22       P1  2902  2.00
      L1  H     3    24       P1  2691  0.75
      P1  H  1888  1903       L1    15  0.94

>  <Gold.PLP.Chemscore.Internal.Correction>  (167) 
1.2615

>  <Gold.PLP.Constraint>  (167) 
-0.0000

>  <Gold.Protein.RotatedTorsions>  (167) 
[  681  677  676  673 ] final  104.55 input -179.99 | X-H torsion
[  702  698  697  694 ] final   16.06 input  179.99 | X-H torsion
[ 2577 2569 2568 2566 ] final   -6.59 input   -0.13 | X-H torsion
[ 2891 2887 2886 2883 ] final  -44.19 input  179.98 | X-H torsion
[ 3175 3171 3170 3167 ] final  -35.66 input -179.99 | X-H torsion
[ 5278 5270 5269 5267 ] final -118.17 input    0.55 | X-H torsion
[  641  637  636  633 ] final -150.80 input  179.99 | X-H torsion
[ 1886 1878 1877 1875 ] final   69.99 input    1.60 | X-H torsion
[  965  957  956  954 ] final  171.37 input    0.45 | X-H torsion

>  <Gold.Protein.ActiveResidues>  (167) 
 LYS47   THR48   LEU49   GLY50   THR51   GLY52   SER53   PHE54   GLY55   ARG56  
 VAL57   MET58   LEU59   TYR69   ALA70   MET71   LYS72   ILE73   LEU74   GLU91  
 LEU95   VAL104  LYS105  MET118  VAL119  MET120  GLU121  TYR122  VAL123  PRO124 
 GLY125  GLY126  GLU127  MET128  PHE129  TYR164  ASP166  LEU167  LYS168  PRO169 
 GLU170  ASN171  LEU172  LEU173  ILE174  GLN181  VAL182  THR183  ASP184  PHE185 
 GLY186  PHE187  GLY200  THR201  ASN326  PHE327  TYR330  ARG18   ARG19   ASN20  
 ALA21   ILE22   HIS23  

>  <Gold.Protein.RotatedAtoms>  (167) 
   11.3099   19.1723    7.8146 H   0  0  0  0  0  0  0  0  0  0  0  0  # atno 641  bound_to 637 
   17.1513   13.1904    6.2098 H   0  0  0  0  0  0  0  0  0  0  0  0  # atno 681  bound_to 677 
   19.3900   11.8483   -0.8660 H   0  0  0  0  0  0  0  0  0  0  0  0  # atno 702  bound_to 698 
   -6.9459   17.0908   -0.4675 H   0  0  0  0  0  0  0  0  0  0  0  0  # atno 965  bound_to 957 
    1.8569   12.2138   10.6348 H   0  0  0  0  0  0  0  0  0  0  0  0  # atno 1886 bound_to 1878
    9.8537    3.3095   -3.3913 H   0  0  0  0  0  0  0  0  0  0  0  0  # atno 2577 bound_to 2569
    7.6458    5.1789    0.8039 H   0  0  0  0  0  0  0  0  0  0  0  0  # atno 2891 bound_to 2887
   19.3506    2.9744   -0.7651 H   0  0  0  0  0  0  0  0  0  0  0  0  # atno 3175 bound_to 3171
   14.1416    9.8747   10.2516 H   0  0  0  0  0  0  0  0  0  0  0  0  # atno 5278 bound_to 5270
   15.7013   12.6875    6.6351 LP  0  0  0  0  0  0  0  0  0  0  0  0  # atno 5914 bound_to 677 
   16.4207   13.9268    7.4181 LP  0  0  0  0  0  0  0  0  0  0  0  0  # atno 5915 bound_to 677 
   20.9118   11.5546   -0.4981 LP  0  0  0  0  0  0  0  0  0  0  0  0  # atno 5920 bound_to 698 
   20.4343   11.6693   -2.0555 LP  0  0  0  0  0  0  0  0  0  0  0  0  # atno 5921 bound_to 698 
   11.1072    2.5592   -2.7581 LP  0  0  0  0  0  0  0  0  0  0  0  0  # atno 5950 bound_to 2569
    9.5882    2.0204   -2.4953 LP  0  0  0  0  0  0  0  0  0  0  0  0  # atno 5951 bound_to 2569
    7.2800    6.5235    1.5751 LP  0  0  0  0  0  0  0  0  0  0  0  0  # atno 5982 bound_to 2887
    8.3480    6.5309    0.3399 LP  0  0  0  0  0  0  0  0  0  0  0  0  # atno 5983 bound_to 2887
   18.3964    2.4411    0.3928 LP  0  0  0  0  0  0  0  0  0  0  0  0  # atno 6000 bound_to 3171
   18.1271    2.0374   -1.1665 LP  0  0  0  0  0  0  0  0  0  0  0  0  # atno 6001 bound_to 3171
   13.8056   10.2280    8.7354 LP  0  0  0  0  0  0  0  0  0  0  0  0  # atno 6004 bound_to 5270
   12.6119    9.9494    9.8143 LP  0  0  0  0  0  0  0  0  0  0  0  0  # atno 6005 bound_to 5270
   10.3033   19.7919    8.8814 LP  0  0  0  0  0  0  0  0  0  0  0  0  # atno 6055 bound_to 637 
    9.7499   19.1178    7.5008 LP  0  0  0  0  0  0  0  0  0  0  0  0  # atno 6056 bound_to 637 
    1.8561   10.6411   10.3859 LP  0  0  0  0  0  0  0  0  0  0  0  0  # atno 6063 bound_to 1878
    0.5744   11.3801   11.0770 LP  0  0  0  0  0  0  0  0  0  0  0  0  # atno 6064 bound_to 1878
   -7.0595   15.5126   -0.2904 LP  0  0  0  0  0  0  0  0  0  0  0  0  # atno 6067 bound_to 957 
   -6.4332   16.1594   -1.6528 LP  0  0  0  0  0  0  0  0  0  0  0  0  # atno 6068 bound_to 957 

>  <STRIFE_LigEff_Score>  (167) 
2.3904411764705884

$$$$
unknown|pharmsElabsTestMulti|sdf|168|dock2
     RDKit          3D

 20 21  0  0  0  0  0  0  0  0999 V2000
   14.7329    7.1697    3.4197 C   0  0  0  0  0  0  0  0  0  0  0  0
   13.8075    7.3919    2.2354 C   0  0  0  0  0  0  0  0  0  0  0  0
   14.4449    7.9374    1.0436 N   0  0  0  0  0  0  0  0  0  0  0  0
   12.3631    7.8759    2.5566 C   0  0  0  0  0  0  0  0  0  0  0  0
   11.1772    7.0164    2.0825 C   0  0  0  0  0  0  0  0  0  0  0  0
    9.9190    7.9018    2.0786 C   0  0  0  0  0  0  0  0  0  0  0  0
    9.6460    8.4720    3.4837 C   0  0  0  0  0  0  0  0  0  0  0  0
    8.4528    9.3878    3.4680 C   0  0  0  0  0  0  0  0  0  0  0  0
    7.8658    9.6597    2.3823 O   0  0  0  0  0  0  0  0  0  0  0  0
    8.0016    9.9623    4.6999 N   0  0  0  0  0  0  0  0  0  0  0  0
    6.8804   10.8892    4.7735 C   0  0  0  0  0  0  0  0  0  0  0  0
    5.6175   10.1984    4.3532 C   0  0  0  0  0  0  0  0  0  0  0  0
    4.8223    9.5386    5.2980 C   0  0  0  0  0  0  0  0  0  0  0  0
    3.6571    8.8930    4.8832 C   0  0  0  0  0  0  0  0  0  0  0  0
    3.3001    8.8999    3.5700 N   0  0  0  0  0  0  0  0  0  0  0  0
    4.0618    9.5257    2.6297 C   0  0  0  0  0  0  0  0  0  0  0  0
    3.7072    9.5135    1.4210 O   0  0  0  0  0  0  0  0  0  0  0  0
    5.2377   10.1822    3.0043 C   0  0  0  0  0  0  0  0  0  0  0  0
   10.8687    9.1916    4.0851 C   0  0  0  0  0  0  0  0  0  0  0  0
   12.1306    8.3192    4.0116 C   0  0  0  0  0  0  0  0  0  0  0  0
  1  2  1  0
  2  3  1  0
  2  4  1  0
  4  5  1  0
  5  6  1  0
  6  7  1  0
  7  8  1  0
  8  9  2  0
  8 10  1  0
 10 11  1  0
 11 12  1  0
 12 13  1  0
 13 14  2  0
 14 15  1  0
 15 16  1  0
 16 17  2  0
 16 18  1  0
  7 19  1  0
 19 20  1  0
 20  4  1  0
 18 12  2  0
M  CHG  1   3   1
M  END
>  <EmbedRMS>  (168) 
0.17308315428879256

>  <Gold.Version>  (168) 
2020.3.0

>  <Gold.Id.Protein>  (168) 
unknown|1q8t_protein|pdb

>  <Gold.PLP.Fitness>  (168) 
49.9684

>  <Gold.PLP.PLP>  (168) 
-43.9021

>  <Gold.PLP.part.hbond>  (168) 
-1.0000

>  <Gold.PLP.part.metal>  (168) 
0.0000

>  <Gold.PLP.part.buried>  (168) 
-2.7787

>  <Gold.PLP.part.nonpolar>  (168) 
-40.7544

>  <Gold.PLP.part.repulsive>  (168) 
0.1958

>  <Gold.PLP.ligand.clash>  (168) 
0.0000

>  <Gold.PLP.ligand.torsion>  (168) 
1.7028

>  <Gold.PLP.Chemscore.Hbond>  (168) 
2.0000

>  <Gold.PLP.Chemscore.CHOScore>  (168) 
1.0000

>  <Gold.PLP.Chemscore.Metal>  (168) 
0.0000

>  <Gold.Chemscore.Hbonds>  (168) 
donor molecule, donor type, donor heavy atom, donor atom, acceptor molecule, acceptor atom, score
      L1  H     3    27       P1  2902  2.00
      L1  C    14    38       P1  1891  1.00

>  <Gold.PLP.Chemscore.Internal.Correction>  (168) 
0.4718

>  <Gold.PLP.Constraint>  (168) 
-0.0000

>  <Gold.Protein.RotatedTorsions>  (168) 
[  681  677  676  673 ] final  -24.41 input -179.99 | X-H torsion
[  702  698  697  694 ] final  162.49 input  179.99 | X-H torsion
[ 2577 2569 2568 2566 ] final  -82.92 input   -0.13 | X-H torsion
[ 2891 2887 2886 2883 ] final  -22.24 input  179.98 | X-H torsion
[ 3175 3171 3170 3167 ] final -125.68 input -179.99 | X-H torsion
[ 5278 5270 5269 5267 ] final  112.23 input    0.55 | X-H torsion
[  641  637  636  633 ] final -178.10 input  179.99 | X-H torsion
[ 1886 1878 1877 1875 ] final    6.86 input    1.60 | X-H torsion
[  965  957  956  954 ] final   54.25 input    0.45 | X-H torsion

>  <Gold.Protein.ActiveResidues>  (168) 
 LYS47   THR48   LEU49   GLY50   THR51   GLY52   SER53   PHE54   GLY55   ARG56  
 VAL57   MET58   LEU59   TYR69   ALA70   MET71   LYS72   ILE73   LEU74   GLU91  
 LEU95   VAL104  LYS105  MET118  VAL119  MET120  GLU121  TYR122  VAL123  PRO124 
 GLY125  GLY126  GLU127  MET128  PHE129  TYR164  ASP166  LEU167  LYS168  PRO169 
 GLU170  ASN171  LEU172  LEU173  ILE174  GLN181  VAL182  THR183  ASP184  PHE185 
 GLY186  PHE187  GLY200  THR201  ASN326  PHE327  TYR330  ARG18   ARG19   ASN20  
 ALA21   ILE22   HIS23  

>  <Gold.Protein.RotatedAtoms>  (168) 
   11.3554   19.3613    8.1897 H   0  0  0  0  0  0  0  0  0  0  0  0  # atno 641  bound_to 637 
   15.6738   12.7978    6.7358 H   0  0  0  0  0  0  0  0  0  0  0  0  # atno 681  bound_to 677 
   20.7900   11.6188   -1.8318 H   0  0  0  0  0  0  0  0  0  0  0  0  # atno 702  bound_to 698 
   -7.0470   15.5784   -0.2769 H   0  0  0  0  0  0  0  0  0  0  0  0  # atno 965  bound_to 957 
    2.2511   11.4212   10.3258 H   0  0  0  0  0  0  0  0  0  0  0  0  # atno 1886 bound_to 1878
   10.9107    3.0817   -3.1557 H   0  0  0  0  0  0  0  0  0  0  0  0  # atno 2577 bound_to 2569
    7.8722    5.2446    0.5574 H   0  0  0  0  0  0  0  0  0  0  0  0  # atno 2891 bound_to 2887
   18.7914    2.7048    0.3392 H   0  0  0  0  0  0  0  0  0  0  0  0  # atno 3175 bound_to 3171
   13.6452   10.2395    8.7517 H   0  0  0  0  0  0  0  0  0  0  0  0  # atno 5278 bound_to 5270
   16.5553   13.9626    7.3702 LP  0  0  0  0  0  0  0  0  0  0  0  0  # atno 5914 bound_to 677 
   17.1218   13.0649    6.1293 LP  0  0  0  0  0  0  0  0  0  0  0  0  # atno 5915 bound_to 677 
   19.3133   11.8531   -1.2822 LP  0  0  0  0  0  0  0  0  0  0  0  0  # atno 5920 bound_to 698 
   20.5601   11.6123   -0.2555 LP  0  0  0  0  0  0  0  0  0  0  0  0  # atno 5921 bound_to 698 
   10.2580    1.8760   -2.3460 LP  0  0  0  0  0  0  0  0  0  0  0  0  # atno 5950 bound_to 2569
    9.3244    2.9435   -3.1556 LP  0  0  0  0  0  0  0  0  0  0  0  0  # atno 5951 bound_to 2569
    7.1648    6.1877    1.6282 LP  0  0  0  0  0  0  0  0  0  0  0  0  # atno 5982 bound_to 2887
    8.2250    6.7976    0.5462 LP  0  0  0  0  0  0  0  0  0  0  0  0  # atno 5983 bound_to 2887
   17.9118    1.9336   -0.7411 LP  0  0  0  0  0  0  0  0  0  0  0  0  # atno 6000 bound_to 3171
   19.2002    2.8285   -1.1948 LP  0  0  0  0  0  0  0  0  0  0  0  0  # atno 6001 bound_to 3171
   12.6602    9.9139    9.9602 LP  0  0  0  0  0  0  0  0  0  0  0  0  # atno 6004 bound_to 5270
   14.2796    9.8797   10.1676 LP  0  0  0  0  0  0  0  0  0  0  0  0  # atno 6005 bound_to 5270
    9.8968   19.7282    8.7122 LP  0  0  0  0  0  0  0  0  0  0  0  0  # atno 6055 bound_to 637 
   10.1086   18.9825    7.2749 LP  0  0  0  0  0  0  0  0  0  0  0  0  # atno 6056 bound_to 637 
    0.9519   10.6211   10.7811 LP  0  0  0  0  0  0  0  0  0  0  0  0  # atno 6063 bound_to 1878
    1.0637   12.2345   11.0070 LP  0  0  0  0  0  0  0  0  0  0  0  0  # atno 6064 bound_to 1878
   -6.4364   16.1126   -1.6469 LP  0  0  0  0  0  0  0  0  0  0  0  0  # atno 6067 bound_to 957 
   -6.9498   17.1523   -0.4971 LP  0  0  0  0  0  0  0  0  0  0  0  0  # atno 6068 bound_to 957 

>  <STRIFE_LigEff_Score>  (168) 
2.4984200000000003

$$$$
unknown|pharmsElabsTestMulti|sdf|169|dock1
     RDKit          3D

 20 21  0  0  0  0  0  0  0  0999 V2000
    3.8886    9.8001    5.6079 C   0  0  0  0  0  0  0  0  0  0  0  0
    4.2813    9.5730    4.1721 C   0  0  0  0  0  0  0  0  0  0  0  0
    3.3072    9.1096    3.2715 C   0  0  0  0  0  0  0  0  0  0  0  0
    3.6150    8.9244    1.9235 C   0  0  0  0  0  0  0  0  0  0  0  0
    4.8988    9.1991    1.4551 C   0  0  0  0  0  0  0  0  0  0  0  0
    5.8804    9.6579    2.3348 C   0  0  0  0  0  0  0  0  0  0  0  0
    5.5880    9.8506    3.6974 C   0  0  0  0  0  0  0  0  0  0  0  0
    6.6877   10.3521    4.6011 C   0  0  0  0  0  0  0  0  0  0  0  0
    7.8316    9.4489    4.5519 N   0  0  0  0  0  0  0  0  0  0  0  0
    8.7437    9.4083    3.4476 C   0  0  0  0  0  0  0  0  0  0  0  0
    8.5804   10.1688    2.4545 O   0  0  0  0  0  0  0  0  0  0  0  0
    9.9148    8.4670    3.4873 C   0  0  0  0  0  0  0  0  0  0  0  0
   10.2132    7.9295    2.0891 C   0  0  0  0  0  0  0  0  0  0  0  0
   11.2980    6.8629    2.1214 C   0  0  0  0  0  0  0  0  0  0  0  0
   12.5342    7.1906    3.0012 C   0  0  0  0  0  0  0  0  0  0  0  0
   13.9399    7.1945    2.3689 C   0  0  0  0  0  0  0  0  0  0  0  0
   15.1496    7.2583    3.3013 C   0  0  0  0  0  0  0  0  0  0  0  0
   14.0592    8.1788    1.2845 N   0  0  0  0  0  0  0  0  0  0  0  0
   12.3535    8.2516    4.1299 C   0  0  0  0  0  0  0  0  0  0  0  0
   11.1501    9.1855    4.0188 C   0  0  0  0  0  0  0  0  0  0  0  0
  1  2  1  0
  2  3  2  0
  3  4  1  0
  4  5  2  0
  5  6  1  0
  6  7  2  0
  7  8  1  0
  8  9  1  0
  9 10  1  0
 10 11  2  0
 10 12  1  0
 12 13  1  0
 13 14  1  0
 14 15  1  0
 15 16  1  0
 16 17  1  0
 16 18  1  0
 15 19  1  0
 19 20  1  0
  7  2  1  0
 20 12  1  0
M  CHG  1  18   1
M  END
>  <EmbedRMS>  (169) 
0.19204016474732244

>  <Gold.Version>  (169) 
2020.3.0

>  <Gold.Id.Protein>  (169) 
unknown|1q8t_protein|pdb

>  <Gold.PLP.Fitness>  (169) 
57.5929

>  <Gold.PLP.PLP>  (169) 
-53.2114

>  <Gold.PLP.part.hbond>  (169) 
-1.0000

>  <Gold.PLP.part.metal>  (169) 
0.0000

>  <Gold.PLP.part.buried>  (169) 
0.5125

>  <Gold.PLP.part.nonpolar>  (169) 
-52.3493

>  <Gold.PLP.part.repulsive>  (169) 
0.0000

>  <Gold.PLP.ligand.clash>  (169) 
0.0000

>  <Gold.PLP.ligand.torsion>  (169) 
1.0335

>  <Gold.PLP.Chemscore.Hbond>  (169) 
2.0000

>  <Gold.PLP.Chemscore.CHOScore>  (169) 
0.0000

>  <Gold.PLP.Chemscore.Metal>  (169) 
0.0000

>  <Gold.Chemscore.Hbonds>  (169) 
donor molecule, donor type, donor heavy atom, donor atom, acceptor molecule, acceptor atom, score
      L1  H    18    41       P1  2902  2.00

>  <Gold.PLP.Chemscore.Internal.Correction>  (169) 
0.4485

>  <Gold.PLP.Constraint>  (169) 
-0.0000

>  <Gold.Protein.RotatedTorsions>  (169) 
[  681  677  676  673 ] final -173.30 input -179.99 | X-H torsion
[  702  698  697  694 ] final   70.29 input  179.99 | X-H torsion
[ 2577 2569 2568 2566 ] final  -11.22 input   -0.13 | X-H torsion
[ 2891 2887 2886 2883 ] final    9.63 input  179.98 | X-H torsion
[ 3175 3171 3170 3167 ] final  -68.47 input -179.99 | X-H torsion
[ 5278 5270 5269 5267 ] final -170.28 input    0.55 | X-H torsion
[  641  637  636  633 ] final -145.78 input  179.99 | X-H torsion
[ 1886 1878 1877 1875 ] final -160.22 input    1.60 | X-H torsion
[  965  957  956  954 ] final -121.15 input    0.45 | X-H torsion

>  <Gold.Protein.ActiveResidues>  (169) 
 LYS47   THR48   LEU49   GLY50   THR51   GLY52   SER53   PHE54   GLY55   ARG56  
 VAL57   MET58   LEU59   TYR69   ALA70   MET71   LYS72   ILE73   LEU74   GLU91  
 LEU95   VAL104  LYS105  MET118  VAL119  MET120  GLU121  TYR122  VAL123  PRO124 
 GLY125  GLY126  GLU127  MET128  PHE129  TYR164  ASP166  LEU167  LYS168  PRO169 
 GLU170  ASN171  LEU172  LEU173  ILE174  GLN181  VAL182  THR183  ASP184  PHE185 
 GLY186  PHE187  GLY200  THR201  ASN326  PHE327  TYR330  ARG18   ARG19   ASN20  
 ALA21   ILE22   HIS23  

>  <Gold.Protein.RotatedAtoms>  (169) 
   11.2801   19.1407    7.7493 H   0  0  0  0  0  0  0  0  0  0  0  0  # atno 641  bound_to 637 
   16.9216   13.9360    7.0913 H   0  0  0  0  0  0  0  0  0  0  0  0  # atno 681  bound_to 677 
   19.5275   11.8395   -1.6713 H   0  0  0  0  0  0  0  0  0  0  0  0  # atno 702  bound_to 698 
   -6.5421   16.9112   -1.3586 H   0  0  0  0  0  0  0  0  0  0  0  0  # atno 965  bound_to 957 
    0.6201   11.2353   11.0132 H   0  0  0  0  0  0  0  0  0  0  0  0  # atno 1886 bound_to 1878
    9.9220    3.3312   -3.4014 H   0  0  0  0  0  0  0  0  0  0  0  0  # atno 2577 bound_to 2569
    8.1606    5.5448    0.2953 H   0  0  0  0  0  0  0  0  0  0  0  0  # atno 2891 bound_to 2887
   19.3179    3.0160   -0.2621 H   0  0  0  0  0  0  0  0  0  0  0  0  # atno 3175 bound_to 3171
   14.4226   10.0535    9.5385 H   0  0  0  0  0  0  0  0  0  0  0  0  # atno 5278 bound_to 5270
   16.7818   12.7547    6.0324 LP  0  0  0  0  0  0  0  0  0  0  0  0  # atno 5914 bound_to 677 
   15.5820   13.0748    7.0930 LP  0  0  0  0  0  0  0  0  0  0  0  0  # atno 5915 bound_to 677 
   20.1174   11.6897   -0.1993 LP  0  0  0  0  0  0  0  0  0  0  0  0  # atno 5920 bound_to 698 
   21.0841   11.5436   -1.5072 LP  0  0  0  0  0  0  0  0  0  0  0  0  # atno 5921 bound_to 698 
   11.0926    2.4973   -2.7162 LP  0  0  0  0  0  0  0  0  0  0  0  0  # atno 5950 bound_to 2569
    9.5309    2.0595   -2.5267 LP  0  0  0  0  0  0  0  0  0  0  0  0  # atno 5951 bound_to 2569
    7.1527    5.6814    1.5208 LP  0  0  0  0  0  0  0  0  0  0  0  0  # atno 5982 bound_to 2887
    7.9335    6.9880    0.9295 LP  0  0  0  0  0  0  0  0  0  0  0  0  # atno 5983 bound_to 2887
   18.0431    2.1446    0.1268 LP  0  0  0  0  0  0  0  0  0  0  0  0  # atno 6000 bound_to 3171
   18.5148    2.2901   -1.4298 LP  0  0  0  0  0  0  0  0  0  0  0  0  # atno 6001 bound_to 3171
   12.9879   10.1887    8.8602 LP  0  0  0  0  0  0  0  0  0  0  0  0  # atno 6004 bound_to 5270
   13.1339    9.8006   10.4397 LP  0  0  0  0  0  0  0  0  0  0  0  0  # atno 6005 bound_to 5270
   10.3851   19.7932    8.8930 LP  0  0  0  0  0  0  0  0  0  0  0  0  # atno 6055 bound_to 637 
    9.6995   19.1498    7.5579 LP  0  0  0  0  0  0  0  0  0  0  0  0  # atno 6056 bound_to 637 
    1.7538   12.3131   10.7161 LP  0  0  0  0  0  0  0  0  0  0  0  0  # atno 6063 bound_to 1878
    1.9788   10.7381   10.3483 LP  0  0  0  0  0  0  0  0  0  0  0  0  # atno 6064 bound_to 1878
   -7.1972   16.4993    0.0329 LP  0  0  0  0  0  0  0  0  0  0  0  0  # atno 6067 bound_to 957 
   -6.7208   15.3619   -1.0376 LP  0  0  0  0  0  0  0  0  0  0  0  0  # atno 6068 bound_to 957 

>  <STRIFE_LigEff_Score>  (169) 
2.879645

$$$$
unknown|pharmsElabsTestMulti|sdf|170|dock6
     RDKit          3D

 17 17  0  0  0  0  0  0  0  0999 V2000
    4.9620    9.5537    2.6002 C   0  0  0  0  0  0  0  0  0  0  0  0
    5.6783    9.3177    3.9061 C   0  0  0  0  0  0  0  0  0  0  0  0
    5.3327   10.2936    5.0340 C   0  0  0  0  0  0  0  0  0  0  0  0
    3.8035   10.2990    5.0922 C   0  0  0  0  0  0  0  0  0  0  0  0
    3.2934    9.0219    5.2450 O   0  0  0  0  0  0  0  0  0  0  0  0
    7.0821    8.9484    3.9332 N   0  0  0  0  0  0  0  0  0  0  0  0
    8.0332    9.2974    2.9421 C   0  0  0  0  0  0  0  0  0  0  0  0
    7.7040   10.0980    2.0274 O   0  0  0  0  0  0  0  0  0  0  0  0
    9.4665    8.8451    3.0966 C   0  0  0  0  0  0  0  0  0  0  0  0
    9.8876    8.0617    1.8595 C   0  0  0  0  0  0  0  0  0  0  0  0
   11.2861    7.4862    1.9788 C   0  0  0  0  0  0  0  0  0  0  0  0
   12.3198    8.4222    2.6329 C   0  0  0  0  0  0  0  0  0  0  0  0
   13.8083    8.2255    2.1752 C   0  0  0  0  0  0  0  0  0  0  0  0
   14.8075    7.8175    3.2683 C   0  0  0  0  0  0  0  0  0  0  0  0
   13.9220    7.3212    1.0252 N   0  0  0  0  0  0  0  0  0  0  0  0
   11.8826    9.8113    3.1392 C   0  0  0  0  0  0  0  0  0  0  0  0
   10.3723   10.0656    3.3092 C   0  0  0  0  0  0  0  0  0  0  0  0
  1  2  1  0
  2  3  1  0
  3  4  1  0
  4  5  1  0
  2  6  1  0
  6  7  1  0
  7  8  2  0
  7  9  1  0
  9 10  1  0
 10 11  1  0
 11 12  1  0
 12 13  1  0
 13 14  1  0
 13 15  1  0
 12 16  1  0
 16 17  1  0
 17  9  1  0
M  CHG  1  15   1
M  END
>  <EmbedRMS>  (170) 
0.26860030186857947

>  <Gold.Version>  (170) 
2020.3.0

>  <Gold.Id.Protein>  (170) 
unknown|1q8t_protein|pdb

>  <Gold.PLP.Fitness>  (170) 
51.6896

>  <Gold.PLP.PLP>  (170) 
-40.4196

>  <Gold.PLP.part.hbond>  (170) 
-4.0000

>  <Gold.PLP.part.metal>  (170) 
0.0000

>  <Gold.PLP.part.buried>  (170) 
-5.3266

>  <Gold.PLP.part.nonpolar>  (170) 
-32.3615

>  <Gold.PLP.part.repulsive>  (170) 
0.0415

>  <Gold.PLP.ligand.clash>  (170) 
0.0000

>  <Gold.PLP.ligand.torsion>  (170) 
1.4714

>  <Gold.PLP.Chemscore.Hbond>  (170) 
4.3702

>  <Gold.PLP.Chemscore.CHOScore>  (170) 
0.0000

>  <Gold.PLP.Chemscore.Metal>  (170) 
0.0000

>  <Gold.Chemscore.Hbonds>  (170) 
donor molecule, donor type, donor heavy atom, donor atom, acceptor molecule, acceptor atom, score
      L1  H     5    26       P1  1891  0.51
      L1  H    15    39       P1  2691  1.00
      L1  H    15    40       P1  2902  2.00
      P1  H  1888  1903       L1     5  0.86

>  <Gold.PLP.Chemscore.Internal.Correction>  (170) 
1.1020

>  <Gold.PLP.Constraint>  (170) 
-0.0000

>  <Gold.Protein.RotatedTorsions>  (170) 
[  681  677  676  673 ] final   11.79 input -179.99 | X-H torsion
[  702  698  697  694 ] final   91.92 input  179.99 | X-H torsion
[ 2577 2569 2568 2566 ] final -101.00 input   -0.13 | X-H torsion
[ 2891 2887 2886 2883 ] final  -53.97 input  179.98 | X-H torsion
[ 3175 3171 3170 3167 ] final  -15.82 input -179.99 | X-H torsion
[ 5278 5270 5269 5267 ] final  -70.38 input    0.55 | X-H torsion
[  641  637  636  633 ] final -105.05 input  179.99 | X-H torsion
[ 1886 1878 1877 1875 ] final   96.52 input    1.60 | X-H torsion
[  965  957  956  954 ] final -158.67 input    0.45 | X-H torsion

>  <Gold.Protein.ActiveResidues>  (170) 
 LYS47   THR48   LEU49   GLY50   THR51   GLY52   SER53   PHE54   GLY55   ARG56  
 VAL57   MET58   LEU59   TYR69   ALA70   MET71   LYS72   ILE73   LEU74   GLU91  
 LEU95   VAL104  LYS105  MET118  VAL119  MET120  GLU121  TYR122  VAL123  PRO124 
 GLY125  GLY126  GLU127  MET128  PHE129  TYR164  ASP166  LEU167  LYS168  PRO169 
 GLU170  ASN171  LEU172  LEU173  ILE174  GLN181  VAL182  THR183  ASP184  PHE185 
 GLY186  PHE187  GLY200  THR201  ASN326  PHE327  TYR330  ARG18   ARG19   ASN20  
 ALA21   ILE22   HIS23  

>  <Gold.Protein.RotatedAtoms>  (170) 
   10.8384   18.9606    7.3484 H   0  0  0  0  0  0  0  0  0  0  0  0  # atno 641  bound_to 637 
   16.0037   12.5989    6.3343 H   0  0  0  0  0  0  0  0  0  0  0  0  # atno 681  bound_to 677 
   19.7728   11.8004   -1.8982 H   0  0  0  0  0  0  0  0  0  0  0  0  # atno 702  bound_to 698 
   -6.7556   17.1581   -0.8841 H   0  0  0  0  0  0  0  0  0  0  0  0  # atno 965  bound_to 957 
    1.4983   12.3120   10.8097 H   0  0  0  0  0  0  0  0  0  0  0  0  # atno 1886 bound_to 1878
   11.0334    2.8779   -3.0052 H   0  0  0  0  0  0  0  0  0  0  0  0  # atno 2577 bound_to 2569
    7.5477    5.1911    0.9204 H   0  0  0  0  0  0  0  0  0  0  0  0  # atno 2891 bound_to 2887
   19.2585    2.8701   -1.0407 H   0  0  0  0  0  0  0  0  0  0  0  0  # atno 3175 bound_to 3171
   13.4558    9.8110   10.4809 H   0  0  0  0  0  0  0  0  0  0  0  0  # atno 5278 bound_to 5270
   16.0279   13.7243    7.4607 LP  0  0  0  0  0  0  0  0  0  0  0  0  # atno 5914 bound_to 677 
   17.3019   13.5125    6.4614 LP  0  0  0  0  0  0  0  0  0  0  0  0  # atno 5915 bound_to 677 
   19.7856   11.7506   -0.3061 LP  0  0  0  0  0  0  0  0  0  0  0  0  # atno 5920 bound_to 698 
   21.1579   11.5238   -1.1617 LP  0  0  0  0  0  0  0  0  0  0  0  0  # atno 5921 bound_to 698 
    9.9630    1.8833   -2.3726 LP  0  0  0  0  0  0  0  0  0  0  0  0  # atno 5950 bound_to 2569
    9.4903    3.1508   -3.2874 LP  0  0  0  0  0  0  0  0  0  0  0  0  # atno 5951 bound_to 2569
    7.3552    6.6542    1.5193 LP  0  0  0  0  0  0  0  0  0  0  0  0  # atno 5982 bound_to 2887
    8.3761    6.3874    0.2730 LP  0  0  0  0  0  0  0  0  0  0  0  0  # atno 5983 bound_to 2887
   18.6555    2.6358    0.4144 LP  0  0  0  0  0  0  0  0  0  0  0  0  # atno 6000 bound_to 3171
   17.9649    1.9524   -0.8981 LP  0  0  0  0  0  0  0  0  0  0  0  0  # atno 6001 bound_to 3171
   14.3832   10.1140    9.2220 LP  0  0  0  0  0  0  0  0  0  0  0  0  # atno 6004 bound_to 5270
   12.7559   10.1305    9.0863 LP  0  0  0  0  0  0  0  0  0  0  0  0  # atno 6005 bound_to 5270
   11.0175   19.6869    8.7539 LP  0  0  0  0  0  0  0  0  0  0  0  0  # atno 6055 bound_to 637 
    9.5324   19.4457    8.1191 LP  0  0  0  0  0  0  0  0  0  0  0  0  # atno 6056 bound_to 637 
    2.1504   10.9486   10.3085 LP  0  0  0  0  0  0  0  0  0  0  0  0  # atno 6063 bound_to 1878
    0.6577   10.9692   10.9702 LP  0  0  0  0  0  0  0  0  0  0  0  0  # atno 6064 bound_to 1878
   -7.1817   15.8948   -0.0137 LP  0  0  0  0  0  0  0  0  0  0  0  0  # atno 6067 bound_to 957 
   -6.5113   15.7064   -1.4907 LP  0  0  0  0  0  0  0  0  0  0  0  0  # atno 6068 bound_to 957 

>  <STRIFE_LigEff_Score>  (170) 
3.040564705882353

$$$$
unknown|pharmsElabsTestMulti|sdf|171|dock9
     RDKit          3D

 18 18  0  0  0  0  0  0  0  0999 V2000
    3.7505    9.7166    1.9137 C   0  0  0  0  0  0  0  0  0  0  0  0
    3.3025    8.8458    3.0901 C   0  0  0  0  0  0  0  0  0  0  0  0
    3.1562    9.6289    4.3201 N   0  0  0  0  0  0  0  0  0  0  0  0
    4.0459    9.1251    5.2914 N   0  0  0  0  0  0  0  0  0  0  0  0
    5.1638   10.0545    5.4051 C   0  0  0  0  0  0  0  0  0  0  0  0
    5.8738   10.1609    4.0629 C   0  0  0  0  0  0  0  0  0  0  0  0
    7.2221    9.6276    4.1720 N   0  0  0  0  0  0  0  0  0  0  0  0
    8.1211    9.5813    3.0603 C   0  0  0  0  0  0  0  0  0  0  0  0
    7.7937   10.0899    1.9503 O   0  0  0  0  0  0  0  0  0  0  0  0
    9.4728    8.9546    3.2461 C   0  0  0  0  0  0  0  0  0  0  0  0
    9.6934    7.8153    2.2332 C   0  0  0  0  0  0  0  0  0  0  0  0
   11.1047    7.2213    2.3796 C   0  0  0  0  0  0  0  0  0  0  0  0
   12.1233    8.3531    2.1536 C   0  0  0  0  0  0  0  0  0  0  0  0
   13.5900    7.9732    1.7969 C   0  0  0  0  0  0  0  0  0  0  0  0
   14.5930    9.1119    1.7283 C   0  0  0  0  0  0  0  0  0  0  0  0
   13.7850    6.9141    0.8147 N   0  0  0  0  0  0  0  0  0  0  0  0
   11.9743    9.4115    3.2605 C   0  0  0  0  0  0  0  0  0  0  0  0
   10.5723   10.0319    3.1877 C   0  0  0  0  0  0  0  0  0  0  0  0
  1  2  1  0
  2  3  1  0
  3  4  1  0
  4  5  1  0
  5  6  1  0
  6  7  1  0
  7  8  1  0
  8  9  2  0
  8 10  1  0
 10 11  1  0
 11 12  1  0
 12 13  1  0
 13 14  1  0
 14 15  1  0
 14 16  1  0
 13 17  1  0
 17 18  1  0
 18 10  1  0
M  CHG  1  16   1
M  END
>  <EmbedRMS>  (171) 
0.18414756709132454

>  <Gold.Version>  (171) 
2020.3.0

>  <Gold.Id.Protein>  (171) 
unknown|1q8t_protein|pdb

>  <Gold.PLP.Fitness>  (171) 
50.2309

>  <Gold.PLP.PLP>  (171) 
-40.0765

>  <Gold.PLP.part.hbond>  (171) 
-3.2607

>  <Gold.PLP.part.metal>  (171) 
0.0000

>  <Gold.PLP.part.buried>  (171) 
-4.9108

>  <Gold.PLP.part.nonpolar>  (171) 
-33.7078

>  <Gold.PLP.part.repulsive>  (171) 
0.0783

>  <Gold.PLP.ligand.clash>  (171) 
0.0000

>  <Gold.PLP.ligand.torsion>  (171) 
1.3061

>  <Gold.PLP.Chemscore.Hbond>  (171) 
4.0000

>  <Gold.PLP.Chemscore.CHOScore>  (171) 
0.0000

>  <Gold.PLP.Chemscore.Metal>  (171) 
0.0000

>  <Gold.Chemscore.Hbonds>  (171) 
donor molecule, donor type, donor heavy atom, donor atom, acceptor molecule, acceptor atom, score
      L1  H    16    42       P1  2902  2.00
      L1  H    16    43       P1  2691  1.00
      P1  H  1888  1903       L1     3  1.00

>  <Gold.PLP.Chemscore.Internal.Correction>  (171) 
0.7666

>  <Gold.PLP.Constraint>  (171) 
-0.0000

>  <Gold.Protein.RotatedTorsions>  (171) 
[  681  677  676  673 ] final -175.47 input -179.99 | X-H torsion
[  702  698  697  694 ] final    4.76 input  179.99 | X-H torsion
[ 2577 2569 2568 2566 ] final  -11.22 input   -0.13 | X-H torsion
[ 2891 2887 2886 2883 ] final   77.61 input  179.98 | X-H torsion
[ 3175 3171 3170 3167 ] final  -94.28 input -179.99 | X-H torsion
[ 5278 5270 5269 5267 ] final   93.10 input    0.55 | X-H torsion
[  641  637  636  633 ] final    7.38 input  179.99 | X-H torsion
[ 1886 1878 1877 1875 ] final  123.23 input    1.60 | X-H torsion
[  965  957  956  954 ] final  148.39 input    0.45 | X-H torsion

>  <Gold.Protein.ActiveResidues>  (171) 
 LYS47   THR48   LEU49   GLY50   THR51   GLY52   SER53   PHE54   GLY55   ARG56  
 VAL57   MET58   LEU59   TYR69   ALA70   MET71   LYS72   ILE73   LEU74   GLU91  
 LEU95   VAL104  LYS105  MET118  VAL119  MET120  GLU121  TYR122  VAL123  PRO124 
 GLY125  GLY126  GLU127  MET128  PHE129  TYR164  ASP166  LEU167  LYS168  PRO169 
 GLU170  ASN171  LEU172  LEU173  ILE174  GLN181  VAL182  THR183  ASP184  PHE185 
 GLY186  PHE187  GLY200  THR201  ASN326  PHE327  TYR330  ARG18   ARG19   ASN20  
 ALA21   ILE22   HIS23  

>  <Gold.Protein.RotatedAtoms>  (171) 
    9.5751   19.3733    8.0183 H   0  0  0  0  0  0  0  0  0  0  0  0  # atno 641  bound_to 637 
   16.9461   13.9289    7.0690 H   0  0  0  0  0  0  0  0  0  0  0  0  # atno 681  bound_to 677 
   19.4577   11.8332   -0.7038 H   0  0  0  0  0  0  0  0  0  0  0  0  # atno 702  bound_to 698 
   -7.0688   16.8872   -0.2018 H   0  0  0  0  0  0  0  0  0  0  0  0  # atno 965  bound_to 957 
    1.1232   12.2227   10.9598 H   0  0  0  0  0  0  0  0  0  0  0  0  # atno 1886 bound_to 1878
    9.9219    3.3312   -3.4014 H   0  0  0  0  0  0  0  0  0  0  0  0  # atno 2577 bound_to 2569
    8.2998    6.5338    0.3709 H   0  0  0  0  0  0  0  0  0  0  0  0  # atno 2891 bound_to 2887
   19.1380    2.9282    0.0843 H   0  0  0  0  0  0  0  0  0  0  0  0  # atno 3175 bound_to 3171
   13.3478   10.2338    8.7620 H   0  0  0  0  0  0  0  0  0  0  0  0  # atno 5278 bound_to 5270
   16.7515   12.7358    6.0323 LP  0  0  0  0  0  0  0  0  0  0  0  0  # atno 5914 bound_to 677 
   15.5864   13.1013    7.1165 LP  0  0  0  0  0  0  0  0  0  0  0  0  # atno 5915 bound_to 677 
   21.0220   11.5380   -0.6466 LP  0  0  0  0  0  0  0  0  0  0  0  0  # atno 5920 bound_to 698 
   20.2529   11.7019   -2.0777 LP  0  0  0  0  0  0  0  0  0  0  0  0  # atno 5921 bound_to 698 
   11.0926    2.4973   -2.7162 LP  0  0  0  0  0  0  0  0  0  0  0  0  # atno 5950 bound_to 2569
    9.5309    2.0595   -2.5266 LP  0  0  0  0  0  0  0  0  0  0  0  0  # atno 5951 bound_to 2569
    7.6721    5.1306    0.7873 LP  0  0  0  0  0  0  0  0  0  0  0  0  # atno 5982 bound_to 2887
    7.2677    6.4979    1.5833 LP  0  0  0  0  0  0  0  0  0  0  0  0  # atno 5983 bound_to 2887
   17.8938    1.9867   -0.2340 LP  0  0  0  0  0  0  0  0  0  0  0  0  # atno 6000 bound_to 3171
   18.8534    2.5404   -1.4337 LP  0  0  0  0  0  0  0  0  0  0  0  0  # atno 6001 bound_to 3171
   12.8270    9.8521   10.2180 LP  0  0  0  0  0  0  0  0  0  0  0  0  # atno 6004 bound_to 5270
   14.4257    9.9474    9.8990 LP  0  0  0  0  0  0  0  0  0  0  0  0  # atno 6005 bound_to 5270
   10.9684   18.9767    7.3577 LP  0  0  0  0  0  0  0  0  0  0  0  0  # atno 6055 bound_to 637 
   10.9119   19.7214    8.8099 LP  0  0  0  0  0  0  0  0  0  0  0  0  # atno 6056 bound_to 637 
    2.2953   11.3593   10.3147 LP  0  0  0  0  0  0  0  0  0  0  0  0  # atno 6063 bound_to 1878
    0.9076   10.6526   10.8060 LP  0  0  0  0  0  0  0  0  0  0  0  0  # atno 6064 bound_to 1878
   -6.9199   15.3529   -0.6003 LP  0  0  0  0  0  0  0  0  0  0  0  0  # atno 6067 bound_to 957 
   -6.4434   16.5336   -1.6227 LP  0  0  0  0  0  0  0  0  0  0  0  0  # atno 6068 bound_to 957 

>  <STRIFE_LigEff_Score>  (171) 
2.7906055555555556

$$$$
unknown|pharmsElabsTestMulti|sdf|172|dock10
     RDKit          3D

 17 17  0  0  0  0  0  0  0  0999 V2000
    3.5354    8.4512    2.0013 C   0  0  0  0  0  0  0  0  0  0  0  0
    4.5716    9.2068    2.6917 N   0  0  0  0  0  0  0  0  0  0  0  0
    4.4052    9.6528    4.0420 C   0  0  0  0  0  0  0  0  0  0  0  0
    3.3449    9.3965    4.6740 O   0  0  0  0  0  0  0  0  0  0  0  0
    5.4872   10.4363    4.7088 C   0  0  0  0  0  0  0  0  0  0  0  0
    6.7761    9.7284    4.6824 N   0  0  0  0  0  0  0  0  0  0  0  0
    7.4794    9.6399    3.4315 C   0  0  0  0  0  0  0  0  0  0  0  0
    6.9375   10.1039    2.3969 O   0  0  0  0  0  0  0  0  0  0  0  0
    8.8472    9.0578    3.2274 C   0  0  0  0  0  0  0  0  0  0  0  0
    8.8892    7.8007    2.3545 C   0  0  0  0  0  0  0  0  0  0  0  0
   10.2672    7.1096    2.2988 C   0  0  0  0  0  0  0  0  0  0  0  0
   11.4007    8.1079    2.5823 C   0  0  0  0  0  0  0  0  0  0  0  0
   12.8551    7.6826    2.2106 C   0  0  0  0  0  0  0  0  0  0  0  0
   13.7031    7.0852    3.3208 C   0  0  0  0  0  0  0  0  0  0  0  0
   13.5833    8.5313    1.2736 N   0  0  0  0  0  0  0  0  0  0  0  0
   11.2614    8.6553    4.0176 C   0  0  0  0  0  0  0  0  0  0  0  0
    9.8789    9.2711    4.3232 C   0  0  0  0  0  0  0  0  0  0  0  0
  1  2  1  0
  2  3  1  0
  3  4  2  0
  3  5  1  0
  5  6  1  0
  6  7  1  0
  7  8  2  0
  7  9  1  0
  9 10  1  0
 10 11  1  0
 11 12  1  0
 12 13  1  0
 13 14  1  0
 13 15  1  0
 12 16  1  0
 16 17  1  0
 17  9  1  0
M  CHG  1  15   1
M  END
>  <EmbedRMS>  (172) 
0.2569057114362328

>  <Gold.Version>  (172) 
2020.3.0

>  <Gold.Id.Protein>  (172) 
unknown|1q8t_protein|pdb

>  <Gold.PLP.Fitness>  (172) 
43.1745

>  <Gold.PLP.PLP>  (172) 
-36.2925

>  <Gold.PLP.part.hbond>  (172) 
-2.0000

>  <Gold.PLP.part.metal>  (172) 
0.0000

>  <Gold.PLP.part.buried>  (172) 
-3.4359

>  <Gold.PLP.part.nonpolar>  (172) 
-30.5759

>  <Gold.PLP.part.repulsive>  (172) 
0.1346

>  <Gold.PLP.ligand.clash>  (172) 
0.0000

>  <Gold.PLP.ligand.torsion>  (172) 
1.5584

>  <Gold.PLP.Chemscore.Hbond>  (172) 
3.0000

>  <Gold.PLP.Chemscore.CHOScore>  (172) 
0.0000

>  <Gold.PLP.Chemscore.Metal>  (172) 
0.0000

>  <Gold.Chemscore.Hbonds>  (172) 
donor molecule, donor type, donor heavy atom, donor atom, acceptor molecule, acceptor atom, score
      L1  H    15    35       P1  2902  2.00
      P1  H  1888  1903       L1     4  1.00

>  <Gold.PLP.Chemscore.Internal.Correction>  (172) 
0.9989

>  <Gold.PLP.Constraint>  (172) 
-0.0000

>  <Gold.Protein.RotatedTorsions>  (172) 
[  681  677  676  673 ] final  -77.72 input -179.99 | X-H torsion
[  702  698  697  694 ] final   18.28 input  179.99 | X-H torsion
[ 2577 2569 2568 2566 ] final   44.78 input   -0.13 | X-H torsion
[ 2891 2887 2886 2883 ] final   28.91 input  179.98 | X-H torsion
[ 3175 3171 3170 3167 ] final  150.38 input -179.99 | X-H torsion
[ 5278 5270 5269 5267 ] final  -98.66 input    0.55 | X-H torsion
[  641  637  636  633 ] final   82.51 input  179.99 | X-H torsion
[ 1886 1878 1877 1875 ] final  -78.08 input    1.60 | X-H torsion
[  965  957  956  954 ] final   44.00 input    0.45 | X-H torsion

>  <Gold.Protein.ActiveResidues>  (172) 
 LYS47   THR48   LEU49   GLY50   THR51   GLY52   SER53   PHE54   GLY55   ARG56  
 VAL57   MET58   LEU59   TYR69   ALA70   MET71   LYS72   ILE73   LEU74   GLU91  
 LEU95   VAL104  LYS105  MET118  VAL119  MET120  GLU121  TYR122  VAL123  PRO124 
 GLY125  GLY126  GLU127  MET128  PHE129  TYR164  ASP166  LEU167  LYS168  PRO169 
 GLU170  ASN171  LEU172  LEU173  ILE174  GLN181  VAL182  THR183  ASP184  PHE185 
 GLY186  PHE187  GLY200  THR201  ASN326  PHE327  TYR330  ARG18   ARG19   ASN20  
 ALA21   ILE22   HIS23  

>  <Gold.Protein.RotatedAtoms>  (172) 
   10.2095   19.7489    8.8234 H   0  0  0  0  0  0  0  0  0  0  0  0  # atno 641  bound_to 637 
   15.7300   13.3843    7.2825 H   0  0  0  0  0  0  0  0  0  0  0  0  # atno 681  bound_to 677 
   19.3805   11.8507   -0.8994 H   0  0  0  0  0  0  0  0  0  0  0  0  # atno 702  bound_to 698 
   -6.9931   15.4879   -0.3974 H   0  0  0  0  0  0  0  0  0  0  0  0  # atno 965  bound_to 957 
    1.4433   10.5454   10.5326 H   0  0  0  0  0  0  0  0  0  0  0  0  # atno 1886 bound_to 1878
    9.3249    2.8255   -3.0940 H   0  0  0  0  0  0  0  0  0  0  0  0  # atno 2577 bound_to 2569
    8.2789    5.8106    0.2219 H   0  0  0  0  0  0  0  0  0  0  0  0  # atno 2891 bound_to 2887
   17.9568    2.0189   -0.1783 H   0  0  0  0  0  0  0  0  0  0  0  0  # atno 3175 bound_to 3171
   13.8876    9.8323   10.4128 H   0  0  0  0  0  0  0  0  0  0  0  0  # atno 5278 bound_to 5270
   17.1943   13.8212    6.8342 LP  0  0  0  0  0  0  0  0  0  0  0  0  # atno 5914 bound_to 677 
   16.4236   12.5889    6.0899 LP  0  0  0  0  0  0  0  0  0  0  0  0  # atno 5915 bound_to 677 
   20.8869   11.5585   -0.4717 LP  0  0  0  0  0  0  0  0  0  0  0  0  # atno 5920 bound_to 698 
   20.4693   11.6630   -2.0469 LP  0  0  0  0  0  0  0  0  0  0  0  0  # atno 5921 bound_to 698 
   10.8693    3.1931   -3.2157 LP  0  0  0  0  0  0  0  0  0  0  0  0  # atno 5950 bound_to 2569
   10.3829    1.8962   -2.3508 LP  0  0  0  0  0  0  0  0  0  0  0  0  # atno 5951 bound_to 2569
    7.2365    5.4219    1.3616 LP  0  0  0  0  0  0  0  0  0  0  0  0  # atno 5982 bound_to 2887
    7.7252    6.9677    1.1659 LP  0  0  0  0  0  0  0  0  0  0  0  0  # atno 5983 bound_to 2887
   18.7934    2.4942   -1.4470 LP  0  0  0  0  0  0  0  0  0  0  0  0  # atno 6000 bound_to 3171
   19.1969    2.9899    0.0557 LP  0  0  0  0  0  0  0  0  0  0  0  0  # atno 6001 bound_to 3171
   14.0910   10.1964    8.8756 LP  0  0  0  0  0  0  0  0  0  0  0  0  # atno 6004 bound_to 5270
   12.5937   10.0257    9.5044 LP  0  0  0  0  0  0  0  0  0  0  0  0  # atno 6005 bound_to 5270
    9.8256   19.0782    7.4314 LP  0  0  0  0  0  0  0  0  0  0  0  0  # atno 6055 bound_to 637 
   11.3865   19.2243    7.8883 LP  0  0  0  0  0  0  0  0  0  0  0  0  # atno 6056 bound_to 637 
    0.6842   11.8231   11.1041 LP  0  0  0  0  0  0  0  0  0  0  0  0  # atno 6063 bound_to 1878
    2.1818   11.9544   10.4663 LP  0  0  0  0  0  0  0  0  0  0  0  0  # atno 6064 bound_to 1878
   -6.4297   16.2806   -1.6581 LP  0  0  0  0  0  0  0  0  0  0  0  0  # atno 6067 bound_to 957 
   -7.0133   17.0795   -0.3590 LP  0  0  0  0  0  0  0  0  0  0  0  0  # atno 6068 bound_to 957 

>  <STRIFE_LigEff_Score>  (172) 
2.5396764705882355

$$$$
unknown|pharmsElabsTestMulti|sdf|173|dock9
     RDKit          3D

 18 18  0  0  0  0  0  0  0  0999 V2000
    3.4888    8.4758    2.5013 C   0  0  0  0  0  0  0  0  0  0  0  0
    3.6046    9.8945    3.0541 C   0  0  0  0  0  0  0  0  0  0  0  0
    3.4242    9.9358    4.5735 C   0  0  0  0  0  0  0  0  0  0  0  0
    4.5561    9.2051    5.3025 C   0  0  0  0  0  0  0  0  0  0  0  0
    5.7918   10.0975    5.3910 C   0  0  0  0  0  0  0  0  0  0  0  0
    6.4175   10.3148    4.0080 C   0  0  0  0  0  0  0  0  0  0  0  0
    7.8078    9.8426    3.9928 N   0  0  0  0  0  0  0  0  0  0  0  0
    8.4230    9.4457    2.7563 C   0  0  0  0  0  0  0  0  0  0  0  0
    7.7386    9.4482    1.7031 O   0  0  0  0  0  0  0  0  0  0  0  0
    9.8550    9.0391    2.5868 C   0  0  0  0  0  0  0  0  0  0  0  0
   10.0740    7.5468    2.3280 C   0  0  0  0  0  0  0  0  0  0  0  0
   11.5539    7.1109    2.3377 C   0  0  0  0  0  0  0  0  0  0  0  0
   12.4815    8.2864    1.9909 C   0  0  0  0  0  0  0  0  0  0  0  0
   13.9546    7.9598    1.5961 C   0  0  0  0  0  0  0  0  0  0  0  0
   14.8645    9.1391    1.2968 C   0  0  0  0  0  0  0  0  0  0  0  0
   14.1803    6.7849    0.7611 N   0  0  0  0  0  0  0  0  0  0  0  0
   12.3564    9.3810    3.0704 C   0  0  0  0  0  0  0  0  0  0  0  0
   10.9091    9.8583    3.3136 C   0  0  0  0  0  0  0  0  0  0  0  0
  1  2  1  0
  2  3  1  0
  3  4  1  0
  4  5  1  0
  5  6  1  0
  6  7  1  0
  7  8  1  0
  8  9  2  0
  8 10  1  0
 10 11  1  0
 11 12  1  0
 12 13  1  0
 13 14  1  0
 14 15  1  0
 14 16  1  0
 13 17  1  0
 17 18  1  0
 18 10  1  0
M  CHG  1  16   1
M  END
>  <EmbedRMS>  (173) 
0.2517353053793523

>  <Gold.Version>  (173) 
2020.3.0

>  <Gold.Id.Protein>  (173) 
unknown|1q8t_protein|pdb

>  <Gold.PLP.Fitness>  (173) 
52.6960

>  <Gold.PLP.PLP>  (173) 
-45.0229

>  <Gold.PLP.part.hbond>  (173) 
-2.0000

>  <Gold.PLP.part.metal>  (173) 
0.0000

>  <Gold.PLP.part.buried>  (173) 
-1.8849

>  <Gold.PLP.part.nonpolar>  (173) 
-42.3431

>  <Gold.PLP.part.repulsive>  (173) 
0.1000

>  <Gold.PLP.ligand.clash>  (173) 
0.0055

>  <Gold.PLP.ligand.torsion>  (173) 
1.1949

>  <Gold.PLP.Chemscore.Hbond>  (173) 
2.9920

>  <Gold.PLP.Chemscore.CHOScore>  (173) 
0.0000

>  <Gold.PLP.Chemscore.Metal>  (173) 
0.0000

>  <Gold.Chemscore.Hbonds>  (173) 
donor molecule, donor type, donor heavy atom, donor atom, acceptor molecule, acceptor atom, score
      L1  H    16    44       P1  2691  0.99
      L1  H    16    45       P1  2902  2.00

>  <Gold.PLP.Chemscore.Internal.Correction>  (173) 
1.0923

>  <Gold.PLP.Constraint>  (173) 
-0.0000

>  <Gold.Protein.RotatedTorsions>  (173) 
[  681  677  676  673 ] final  131.40 input -179.99 | X-H torsion
[  702  698  697  694 ] final -119.89 input  179.99 | X-H torsion
[ 2577 2569 2568 2566 ] final  -99.05 input   -0.13 | X-H torsion
[ 2891 2887 2886 2883 ] final   -9.34 input  179.98 | X-H torsion
[ 3175 3171 3170 3167 ] final  154.86 input -179.99 | X-H torsion
[ 5278 5270 5269 5267 ] final  109.79 input    0.55 | X-H torsion
[  641  637  636  633 ] final  -50.08 input  179.99 | X-H torsion
[ 1886 1878 1877 1875 ] final  146.03 input    1.60 | X-H torsion
[  965  957  956  954 ] final   74.82 input    0.45 | X-H torsion

>  <Gold.Protein.ActiveResidues>  (173) 
 LYS47   THR48   LEU49   GLY50   THR51   GLY52   SER53   PHE54   GLY55   ARG56  
 VAL57   MET58   LEU59   TYR69   ALA70   MET71   LYS72   ILE73   LEU74   GLU91  
 LEU95   VAL104  LYS105  MET118  VAL119  MET120  GLU121  TYR122  VAL123  PRO124 
 GLY125  GLY126  GLU127  MET128  PHE129  TYR164  ASP166  LEU167  LYS168  PRO169 
 GLU170  ASN171  LEU172  LEU173  ILE174  GLN181  VAL182  THR183  ASP184  PHE185 
 GLY186  PHE187  GLY200  THR201  ASN326  PHE327  TYR330  ARG18   ARG19   ASN20  
 ALA21   ILE22   HIS23  

>  <Gold.Protein.RotatedAtoms>  (173) 
   10.0141   19.0173    7.3692 H   0  0  0  0  0  0  0  0  0  0  0  0  # atno 641  bound_to 637 
   17.2520   13.5064    6.4607 H   0  0  0  0  0  0  0  0  0  0  0  0  # atno 681  bound_to 677 
   21.0206   11.5567   -0.7340 H   0  0  0  0  0  0  0  0  0  0  0  0  # atno 702  bound_to 698 
   -7.1305   15.8226   -0.0884 H   0  0  0  0  0  0  0  0  0  0  0  0  # atno 965  bound_to 957 
    0.8525   12.0103   11.0429 H   0  0  0  0  0  0  0  0  0  0  0  0  # atno 1886 bound_to 1878
   11.0241    2.9015   -3.0222 H   0  0  0  0  0  0  0  0  0  0  0  0  # atno 2577 bound_to 2569
    7.9990    5.3400    0.4334 H   0  0  0  0  0  0  0  0  0  0  0  0  # atno 2891 bound_to 2887
   17.9761    2.0415   -0.1150 H   0  0  0  0  0  0  0  0  0  0  0  0  # atno 3175 bound_to 3171
   13.6073   10.2401    8.7476 H   0  0  0  0  0  0  0  0  0  0  0  0  # atno 5278 bound_to 5270
   15.9829   12.5536    6.3279 LP  0  0  0  0  0  0  0  0  0  0  0  0  # atno 5914 bound_to 677 
   16.0331   13.7281    7.4612 LP  0  0  0  0  0  0  0  0  0  0  0  0  # atno 5915 bound_to 677 
   20.1777   11.7152   -2.0763 LP  0  0  0  0  0  0  0  0  0  0  0  0  # atno 5920 bound_to 698 
   19.4532   11.8155   -0.6163 LP  0  0  0  0  0  0  0  0  0  0  0  0  # atno 5921 bound_to 698 
    9.9944    1.8788   -2.3672 LP  0  0  0  0  0  0  0  0  0  0  0  0  # atno 5950 bound_to 2569
    9.4687    3.1304   -3.2748 LP  0  0  0  0  0  0  0  0  0  0  0  0  # atno 5951 bound_to 2569
    7.1367    5.9784    1.6105 LP  0  0  0  0  0  0  0  0  0  0  0  0  # atno 5982 bound_to 2887
    8.1196    6.9065    0.6944 LP  0  0  0  0  0  0  0  0  0  0  0  0  # atno 5983 bound_to 2887
   18.7350    2.4500   -1.4540 LP  0  0  0  0  0  0  0  0  0  0  0  0  # atno 6000 bound_to 3171
   19.2350    3.0103   -0.0039 LP  0  0  0  0  0  0  0  0  0  0  0  0  # atno 6001 bound_to 3171
   12.6764    9.9053    9.9958 LP  0  0  0  0  0  0  0  0  0  0  0  0  # atno 6004 bound_to 5270
   14.3032    9.8877   10.1363 LP  0  0  0  0  0  0  0  0  0  0  0  0  # atno 6005 bound_to 5270
   11.4112   19.3166    8.0718 LP  0  0  0  0  0  0  0  0  0  0  0  0  # atno 6055 bound_to 637 
   10.0067   19.7564    8.7794 LP  0  0  0  0  0  0  0  0  0  0  0  0  # atno 6056 bound_to 637 
    2.2745   11.7244   10.3862 LP  0  0  0  0  0  0  0  0  0  0  0  0  # atno 6063 bound_to 1878
    1.2134   10.5109   10.6470 LP  0  0  0  0  0  0  0  0  0  0  0  0  # atno 6064 bound_to 1878
   -6.4862   15.7960   -1.5441 LP  0  0  0  0  0  0  0  0  0  0  0  0  # atno 6067 bound_to 957 
   -6.8121   17.2117   -0.7984 LP  0  0  0  0  0  0  0  0  0  0  0  0  # atno 6068 bound_to 957 

>  <STRIFE_LigEff_Score>  (173) 
2.9275555555555552

$$$$
unknown|pharmsElabsTestMulti|sdf|174|dock5
     RDKit          3D

 17 17  0  0  0  0  0  0  0  0999 V2000
   13.9524    7.4536    3.4174 C   0  0  0  0  0  0  0  0  0  0  0  0
   13.0796    7.9629    2.2605 C   0  0  0  0  0  0  0  0  0  0  0  0
   13.2470    7.1005    1.0852 N   0  0  0  0  0  0  0  0  0  0  0  0
   11.5688    8.2274    2.5951 C   0  0  0  0  0  0  0  0  0  0  0  0
   10.5595    7.2531    1.9587 C   0  0  0  0  0  0  0  0  0  0  0  0
    9.1754    7.8286    1.7195 C   0  0  0  0  0  0  0  0  0  0  0  0
    8.7106    8.7315    2.8569 C   0  0  0  0  0  0  0  0  0  0  0  0
    7.2909    9.1730    2.6003 C   0  0  0  0  0  0  0  0  0  0  0  0
    7.0266    9.9255    1.6195 O   0  0  0  0  0  0  0  0  0  0  0  0
    6.2512    8.7713    3.4974 N   0  0  0  0  0  0  0  0  0  0  0  0
    4.8419    9.0692    3.2557 C   0  0  0  0  0  0  0  0  0  0  0  0
    4.1599    9.5045    4.5611 C   0  0  0  0  0  0  0  0  0  0  0  0
    5.0522   10.2935    5.5297 C   0  0  0  0  0  0  0  0  0  0  0  0
    3.0533   10.1048    4.3833 O   0  0  0  0  0  0  0  0  0  0  0  0
    3.4706    8.5603    5.0908 O   0  0  0  0  0  0  0  0  0  0  0  0
    9.6197    9.9593    2.9826 C   0  0  0  0  0  0  0  0  0  0  0  0
   11.1317    9.6650    2.9451 C   0  0  0  0  0  0  0  0  0  0  0  0
  1  2  1  0
  2  3  1  0
  2  4  1  0
  4  5  1  0
  5  6  1  0
  6  7  1  0
  7  8  1  0
  8  9  2  0
  8 10  1  0
 10 11  1  0
 11 12  1  0
 12 13  1  0
 12 14  1  0
 12 15  1  0
  7 16  1  0
 16 17  1  0
 17  4  1  0
M  CHG  1   3   1
M  END
>  <EmbedRMS>  (174) 
0.7100198817626026

>  <Gold.Version>  (174) 
2020.3.0

>  <Gold.Id.Protein>  (174) 
unknown|1q8t_protein|pdb

>  <Gold.PLP.Fitness>  (174) 
43.8556

>  <Gold.PLP.PLP>  (174) 
-35.1945

>  <Gold.PLP.part.hbond>  (174) 
-4.5844

>  <Gold.PLP.part.metal>  (174) 
0.0000

>  <Gold.PLP.part.buried>  (174) 
-0.6647

>  <Gold.PLP.part.nonpolar>  (174) 
-31.2713

>  <Gold.PLP.part.repulsive>  (174) 
0.0436

>  <Gold.PLP.ligand.clash>  (174) 
0.0000

>  <Gold.PLP.ligand.torsion>  (174) 
1.8974

>  <Gold.PLP.Chemscore.Hbond>  (174) 
3.8800

>  <Gold.PLP.Chemscore.CHOScore>  (174) 
0.0000

>  <Gold.PLP.Chemscore.Metal>  (174) 
0.0000

>  <Gold.Chemscore.Hbonds>  (174) 
donor molecule, donor type, donor heavy atom, donor atom, acceptor molecule, acceptor atom, score
      L1  H     3    23       P1  2902  2.00
      L1  H     3    24       P1  2691  0.88
      P1  H  1888  1903       L1    14  1.00

>  <Gold.PLP.Chemscore.Internal.Correction>  (174) 
0.8159

>  <Gold.PLP.Constraint>  (174) 
-0.0000

>  <Gold.Protein.RotatedTorsions>  (174) 
[  681  677  676  673 ] final  114.89 input -179.99 | X-H torsion
[  702  698  697  694 ] final -106.64 input  179.99 | X-H torsion
[ 2577 2569 2568 2566 ] final   48.80 input   -0.13 | X-H torsion
[ 2891 2887 2886 2883 ] final  165.41 input  179.98 | X-H torsion
[ 3175 3171 3170 3167 ] final  143.09 input -179.99 | X-H torsion
[ 5278 5270 5269 5267 ] final  -25.72 input    0.55 | X-H torsion
[  641  637  636  633 ] final   44.30 input  179.99 | X-H torsion
[ 1886 1878 1877 1875 ] final   85.18 input    1.60 | X-H torsion
[  965  957  956  954 ] final   43.88 input    0.45 | X-H torsion

>  <Gold.Protein.ActiveResidues>  (174) 
 LYS47   THR48   LEU49   GLY50   THR51   GLY52   SER53   PHE54   GLY55   ARG56  
 VAL57   MET58   LEU59   TYR69   ALA70   MET71   LYS72   ILE73   LEU74   GLU91  
 LEU95   VAL104  LYS105  MET118  VAL119  MET120  GLU121  TYR122  VAL123  PRO124 
 GLY125  GLY126  GLU127  MET128  PHE129  TYR164  ASP166  LEU167  LYS168  PRO169 
 GLU170  ASN171  LEU172  LEU173  ILE174  GLN181  VAL182  THR183  ASP184  PHE185 
 GLY186  PHE187  GLY200  THR201  ASN326  PHE327  TYR330  ARG18   ARG19   ASN20  
 ALA21   ILE22   HIS23  

>  <Gold.Protein.RotatedAtoms>  (174) 
    9.7357   19.6134    8.5062 H   0  0  0  0  0  0  0  0  0  0  0  0  # atno 641  bound_to 637 
   17.2104   13.3137    6.2954 H   0  0  0  0  0  0  0  0  0  0  0  0  # atno 681  bound_to 677 
   20.9085   11.5733   -0.5611 H   0  0  0  0  0  0  0  0  0  0  0  0  # atno 702  bound_to 698 
   -6.9924   15.4870   -0.3988 H   0  0  0  0  0  0  0  0  0  0  0  0  # atno 965  bound_to 957 
    1.6579   12.2925   10.7360 H   0  0  0  0  0  0  0  0  0  0  0  0  # atno 1886 bound_to 1878
    9.3083    2.7751   -3.0602 H   0  0  0  0  0  0  0  0  0  0  0  0  # atno 2577 bound_to 2569
    7.5474    6.8316    1.3138 H   0  0  0  0  0  0  0  0  0  0  0  0  # atno 2891 bound_to 2887
   17.9342    1.9881   -0.2856 H   0  0  0  0  0  0  0  0  0  0  0  0  # atno 3175 bound_to 3171
   12.8497    9.8793   10.1784 H   0  0  0  0  0  0  0  0  0  0  0  0  # atno 5278 bound_to 5270
   15.7936   12.6190    6.5100 LP  0  0  0  0  0  0  0  0  0  0  0  0  # atno 5914 bound_to 677 
   16.2662   13.8655    7.4530 LP  0  0  0  0  0  0  0  0  0  0  0  0  # atno 5915 bound_to 677 
   20.3914   11.6771   -2.0641 LP  0  0  0  0  0  0  0  0  0  0  0  0  # atno 5920 bound_to 698 
   19.3573   11.8362   -0.8103 LP  0  0  0  0  0  0  0  0  0  0  0  0  # atno 5921 bound_to 698 
   10.8229    3.2302   -3.2448 LP  0  0  0  0  0  0  0  0  0  0  0  0  # atno 5950 bound_to 2569
   10.4468    1.9121   -2.3572 LP  0  0  0  0  0  0  0  0  0  0  0  0  # atno 5951 bound_to 2569
    8.3761    6.0592    0.1943 LP  0  0  0  0  0  0  0  0  0  0  0  0  # atno 5982 bound_to 2887
    7.3555    5.2559    1.1840 LP  0  0  0  0  0  0  0  0  0  0  0  0  # atno 5983 bound_to 2887
   18.8864    2.5662   -1.4235 LP  0  0  0  0  0  0  0  0  0  0  0  0  # atno 6000 bound_to 3171
   19.1277    2.9503    0.1452 LP  0  0  0  0  0  0  0  0  0  0  0  0  # atno 6001 bound_to 3171
   14.4195    9.9430    9.9168 LP  0  0  0  0  0  0  0  0  0  0  0  0  # atno 6004 bound_to 5270
   13.3574   10.2296    8.7099 LP  0  0  0  0  0  0  0  0  0  0  0  0  # atno 6005 bound_to 5270
   10.3885   18.9389    7.2202 LP  0  0  0  0  0  0  0  0  0  0  0  0  # atno 6055 bound_to 637 
   11.3226   19.5063    8.4336 LP  0  0  0  0  0  0  0  0  0  0  0  0  # atno 6056 bound_to 637 
    2.0400   10.8005   10.3320 LP  0  0  0  0  0  0  0  0  0  0  0  0  # atno 6063 bound_to 1878
    0.6001   11.1379   11.0243 LP  0  0  0  0  0  0  0  0  0  0  0  0  # atno 6064 bound_to 1878
   -6.4297   16.2825   -1.6580 LP  0  0  0  0  0  0  0  0  0  0  0  0  # atno 6067 bound_to 957 
   -7.0140   17.0785   -0.3575 LP  0  0  0  0  0  0  0  0  0  0  0  0  # atno 6068 bound_to 957 

>  <STRIFE_LigEff_Score>  (174) 
2.579741176470588

$$$$
unknown|pharmsElabsTestMulti|sdf|175|dock5
     RDKit          3D

 17 17  0  0  0  0  0  0  0  0999 V2000
    3.6901    9.3010    2.6523 C   0  0  0  0  0  0  0  0  0  0  0  0
    3.3026    8.9051    4.0754 C   0  0  0  0  0  0  0  0  0  0  0  0
    3.8954    9.8562    5.1172 C   0  0  0  0  0  0  0  0  0  0  0  0
    5.4003    9.6437    5.2883 C   0  0  0  0  0  0  0  0  0  0  0  0
    6.1567   10.2387    4.1045 C   0  0  0  0  0  0  0  0  0  0  0  0
    7.5382    9.7768    4.1108 N   0  0  0  0  0  0  0  0  0  0  0  0
    8.1001    9.0454    3.0175 C   0  0  0  0  0  0  0  0  0  0  0  0
    7.4176    8.8401    1.9730 O   0  0  0  0  0  0  0  0  0  0  0  0
    9.5215    8.5525    3.1033 C   0  0  0  0  0  0  0  0  0  0  0  0
    9.9473    7.9991    1.7484 C   0  0  0  0  0  0  0  0  0  0  0  0
   11.3314    7.3781    1.7821 C   0  0  0  0  0  0  0  0  0  0  0  0
   12.3647    8.1380    2.6351 C   0  0  0  0  0  0  0  0  0  0  0  0
   13.8635    7.9741    2.1995 C   0  0  0  0  0  0  0  0  0  0  0  0
   14.8646    7.6508    3.3189 C   0  0  0  0  0  0  0  0  0  0  0  0
   14.0210    7.0240    1.0924 N   0  0  0  0  0  0  0  0  0  0  0  0
   11.9495    9.4243    3.3795 C   0  0  0  0  0  0  0  0  0  0  0  0
   10.4418    9.6986    3.5371 C   0  0  0  0  0  0  0  0  0  0  0  0
  1  2  1  0
  2  3  1  0
  3  4  1  0
  4  5  1  0
  5  6  1  0
  6  7  1  0
  7  8  2  0
  7  9  1  0
  9 10  1  0
 10 11  1  0
 11 12  1  0
 12 13  1  0
 13 14  1  0
 13 15  1  0
 12 16  1  0
 16 17  1  0
 17  9  1  0
M  CHG  1  15   1
M  END
>  <EmbedRMS>  (175) 
0.16933320433084326

>  <Gold.Version>  (175) 
2020.3.0

>  <Gold.Id.Protein>  (175) 
unknown|1q8t_protein|pdb

>  <Gold.PLP.Fitness>  (175) 
54.3702

>  <Gold.PLP.PLP>  (175) 
-44.0500

>  <Gold.PLP.part.hbond>  (175) 
-3.0000

>  <Gold.PLP.part.metal>  (175) 
0.0000

>  <Gold.PLP.part.buried>  (175) 
-1.6608

>  <Gold.PLP.part.nonpolar>  (175) 
-39.1882

>  <Gold.PLP.part.repulsive>  (175) 
0.0673

>  <Gold.PLP.ligand.clash>  (175) 
0.0000

>  <Gold.PLP.ligand.torsion>  (175) 
1.1617

>  <Gold.PLP.Chemscore.Hbond>  (175) 
4.0000

>  <Gold.PLP.Chemscore.CHOScore>  (175) 
0.0000

>  <Gold.PLP.Chemscore.Metal>  (175) 
0.0000

>  <Gold.Chemscore.Hbonds>  (175) 
donor molecule, donor type, donor heavy atom, donor atom, acceptor molecule, acceptor atom, score
      L1  H    15    40       P1  2691  1.00
      L1  H    15    42       P1  2902  2.00
      P1  H  2887  2891       L1     8  1.00

>  <Gold.PLP.Chemscore.Internal.Correction>  (175) 
0.6436

>  <Gold.PLP.Constraint>  (175) 
-0.0000

>  <Gold.Protein.RotatedTorsions>  (175) 
[  681  677  676  673 ] final   91.85 input -179.99 | X-H torsion
[  702  698  697  694 ] final  116.58 input  179.99 | X-H torsion
[ 2577 2569 2568 2566 ] final  161.80 input   -0.13 | X-H torsion
[ 2891 2887 2886 2883 ] final  153.94 input  179.98 | X-H torsion
[ 3175 3171 3170 3167 ] final  177.19 input -179.99 | X-H torsion
[ 5278 5270 5269 5267 ] final  109.48 input    0.55 | X-H torsion
[  641  637  636  633 ] final  174.03 input  179.99 | X-H torsion
[ 1886 1878 1877 1875 ] final  154.14 input    1.60 | X-H torsion
[  965  957  956  954 ] final   44.66 input    0.45 | X-H torsion

>  <Gold.Protein.ActiveResidues>  (175) 
 LYS47   THR48   LEU49   GLY50   THR51   GLY52   SER53   PHE54   GLY55   ARG56  
 VAL57   MET58   LEU59   TYR69   ALA70   MET71   LYS72   ILE73   LEU74   GLU91  
 LEU95   VAL104  LYS105  MET118  VAL119  MET120  GLU121  TYR122  VAL123  PRO124 
 GLY125  GLY126  GLU127  MET128  PHE129  TYR164  ASP166  LEU167  LYS168  PRO169 
 GLU170  ASN171  LEU172  LEU173  ILE174  GLN181  VAL182  THR183  ASP184  PHE185 
 GLY186  PHE187  GLY200  THR201  ASN326  PHE327  TYR330  ARG18   ARG19   ASN20  
 ALA21   ILE22   HIS23  

>  <Gold.Protein.RotatedAtoms>  (175) 
   11.3311   19.4172    8.2965 H   0  0  0  0  0  0  0  0  0  0  0  0  # atno 641  bound_to 637 
   17.0470   13.0430    6.1283 H   0  0  0  0  0  0  0  0  0  0  0  0  # atno 681  bound_to 677 
   20.1290   11.7397   -2.0245 H   0  0  0  0  0  0  0  0  0  0  0  0  # atno 702  bound_to 698 
   -6.9967   15.4930   -0.3892 H   0  0  0  0  0  0  0  0  0  0  0  0  # atno 965  bound_to 957 
    0.7762   11.9106   11.0596 H   0  0  0  0  0  0  0  0  0  0  0  0  # atno 1886 bound_to 1878
   10.3279    1.9153   -2.3885 H   0  0  0  0  0  0  0  0  0  0  0  0  # atno 2577 bound_to 2569
    7.6627    6.9039    1.1975 H   0  0  0  0  0  0  0  0  0  0  0  0  # atno 2891 bound_to 2887
   18.1304    2.1914    0.1571 H   0  0  0  0  0  0  0  0  0  0  0  0  # atno 3175 bound_to 3171
   13.6025   10.2401    8.7472 H   0  0  0  0  0  0  0  0  0  0  0  0  # atno 5278 bound_to 5270
   15.6210   12.7969    6.7933 LP  0  0  0  0  0  0  0  0  0  0  0  0  # atno 5914 bound_to 677 
   16.6108   13.9725    7.3456 LP  0  0  0  0  0  0  0  0  0  0  0  0  # atno 5915 bound_to 677 
   19.4860   11.8087   -0.5688 LP  0  0  0  0  0  0  0  0  0  0  0  0  # atno 5920 bound_to 698 
   21.0828   11.5295   -0.7662 LP  0  0  0  0  0  0  0  0  0  0  0  0  # atno 5921 bound_to 698 
    9.2946    2.8837   -3.1163 LP  0  0  0  0  0  0  0  0  0  0  0  0  # atno 5950 bound_to 2569
   10.9015    3.1639   -3.1931 LP  0  0  0  0  0  0  0  0  0  0  0  0  # atno 5951 bound_to 2569
    8.3416    5.8741    0.1900 LP  0  0  0  0  0  0  0  0  0  0  0  0  # atno 5982 bound_to 2887
    7.2686    5.3649    1.3107 LP  0  0  0  0  0  0  0  0  0  0  0  0  # atno 5983 bound_to 2887
   18.4413    2.2390   -1.4039 LP  0  0  0  0  0  0  0  0  0  0  0  0  # atno 6000 bound_to 3171
   19.3664    3.0635   -0.3404 LP  0  0  0  0  0  0  0  0  0  0  0  0  # atno 6001 bound_to 3171
   12.6786    9.9042   10.0003 LP  0  0  0  0  0  0  0  0  0  0  0  0  # atno 6004 bound_to 5270
   14.3061    9.8887   10.1322 LP  0  0  0  0  0  0  0  0  0  0  0  0  # atno 6005 bound_to 5270
    9.7998   19.6935    8.6337 LP  0  0  0  0  0  0  0  0  0  0  0  0  # atno 6055 bound_to 637 
   10.2311   18.9582    7.2409 LP  0  0  0  0  0  0  0  0  0  0  0  0  # atno 6056 bound_to 637 
    2.2348   11.8459   10.4244 LP  0  0  0  0  0  0  0  0  0  0  0  0  # atno 6063 bound_to 1878
    1.3335   10.4945   10.5913 LP  0  0  0  0  0  0  0  0  0  0  0  0  # atno 6064 bound_to 1878
   -6.4297   16.2697   -1.6582 LP  0  0  0  0  0  0  0  0  0  0  0  0  # atno 6067 bound_to 957 
   -7.0094   17.0850   -0.3675 LP  0  0  0  0  0  0  0  0  0  0  0  0  # atno 6068 bound_to 957 

>  <STRIFE_LigEff_Score>  (175) 
3.1982470588235294

$$$$
unknown|pharmsElabsTestMulti|sdf|176|dock4
     RDKit          3D

 20 21  0  0  0  0  0  0  0  0999 V2000
    5.5423   10.1098    5.5917 C   0  0  0  0  0  0  0  0  0  0  0  0
    5.2275    9.7266    4.1771 C   0  0  0  0  0  0  0  0  0  0  0  0
    3.9567    9.2329    3.8493 C   0  0  0  0  0  0  0  0  0  0  0  0
    3.6526    8.8995    2.5279 C   0  0  0  0  0  0  0  0  0  0  0  0
    4.6058    9.0738    1.5223 C   0  0  0  0  0  0  0  0  0  0  0  0
    5.8777    9.5776    1.8298 C   0  0  0  0  0  0  0  0  0  0  0  0
    6.8767    9.7992    0.7206 C   0  0  0  0  0  0  0  0  0  0  0  0
    8.2412    9.9005    1.2608 N   0  0  0  0  0  0  0  0  0  0  0  0
    8.7768    8.8511    2.0855 C   0  0  0  0  0  0  0  0  0  0  0  0
    8.0415    7.8837    2.3959 O   0  0  0  0  0  0  0  0  0  0  0  0
   10.1704    8.7887    2.6385 C   0  0  0  0  0  0  0  0  0  0  0  0
   11.1543    8.0697    1.7289 C   0  0  0  0  0  0  0  0  0  0  0  0
   12.5011    7.7704    2.3779 C   0  0  0  0  0  0  0  0  0  0  0  0
   12.8756    8.7491    3.5063 C   0  0  0  0  0  0  0  0  0  0  0  0
   14.3159    8.4126    4.0175 C   0  0  0  0  0  0  0  0  0  0  0  0
   14.4059    6.9348    4.4394 C   0  0  0  0  0  0  0  0  0  0  0  0
   15.3496    8.6913    3.0110 N   0  0  0  0  0  0  0  0  0  0  0  0
   11.8043    8.6650    4.6233 C   0  0  0  0  0  0  0  0  0  0  0  0
   10.3395    8.7783    4.1460 C   0  0  0  0  0  0  0  0  0  0  0  0
    6.1835    9.9063    3.1635 C   0  0  0  0  0  0  0  0  0  0  0  0
  1  2  1  0
  2  3  2  0
  3  4  1  0
  4  5  2  0
  5  6  1  0
  6  7  1  0
  7  8  1  0
  8  9  1  0
  9 10  2  0
  9 11  1  0
 11 12  1  0
 12 13  1  0
 13 14  1  0
 14 15  1  0
 15 16  1  0
 15 17  1  0
 14 18  1  0
 18 19  1  0
  6 20  2  0
 20  2  1  0
 19 11  1  0
M  CHG  1  17   1
M  END
>  <EmbedRMS>  (176) 
0.16810927383701896

>  <Gold.Version>  (176) 
2020.3.0

>  <Gold.Id.Protein>  (176) 
unknown|1q8t_protein|pdb

>  <Gold.PLP.Fitness>  (176) 
48.7670

>  <Gold.PLP.PLP>  (176) 
-47.0448

>  <Gold.PLP.part.hbond>  (176) 
-1.7110

>  <Gold.PLP.part.metal>  (176) 
0.0000

>  <Gold.PLP.part.buried>  (176) 
-1.4070

>  <Gold.PLP.part.nonpolar>  (176) 
-45.0085

>  <Gold.PLP.part.repulsive>  (176) 
0.0208

>  <Gold.PLP.ligand.clash>  (176) 
0.0000

>  <Gold.PLP.ligand.torsion>  (176) 
0.7095

>  <Gold.PLP.Chemscore.Hbond>  (176) 
0.8000

>  <Gold.PLP.Chemscore.CHOScore>  (176) 
0.0000

>  <Gold.PLP.Chemscore.Metal>  (176) 
0.0000

>  <Gold.Chemscore.Hbonds>  (176) 
donor molecule, donor type, donor heavy atom, donor atom, acceptor molecule, acceptor atom, score
      L1  H    17    42       P1   675  0.80

>  <Gold.PLP.Chemscore.Internal.Correction>  (176) 
0.7412

>  <Gold.PLP.Constraint>  (176) 
-0.0000

>  <Gold.Protein.RotatedTorsions>  (176) 
[  681  677  676  673 ] final   13.47 input -179.99 | X-H torsion
[  702  698  697  694 ] final   38.26 input  179.99 | X-H torsion
[ 2577 2569 2568 2566 ] final  174.90 input   -0.13 | X-H torsion
[ 2891 2887 2886 2883 ] final   -9.21 input  179.98 | X-H torsion
[ 3175 3171 3170 3167 ] final  150.68 input -179.99 | X-H torsion
[ 5278 5270 5269 5267 ] final  -20.46 input    0.55 | X-H torsion
[  641  637  636  633 ] final -130.45 input  179.99 | X-H torsion
[ 1886 1878 1877 1875 ] final   42.62 input    1.60 | X-H torsion
[  965  957  956  954 ] final  -34.30 input    0.45 | X-H torsion

>  <Gold.Protein.ActiveResidues>  (176) 
 LYS47   THR48   LEU49   GLY50   THR51   GLY52   SER53   PHE54   GLY55   ARG56  
 VAL57   MET58   LEU59   TYR69   ALA70   MET71   LYS72   ILE73   LEU74   GLU91  
 LEU95   VAL104  LYS105  MET118  VAL119  MET120  GLU121  TYR122  VAL123  PRO124 
 GLY125  GLY126  GLU127  MET128  PHE129  TYR164  ASP166  LEU167  LYS168  PRO169 
 GLU170  ASN171  LEU172  LEU173  ILE174  GLN181  VAL182  THR183  ASP184  PHE185 
 GLY186  PHE187  GLY200  THR201  ASN326  PHE327  TYR330  ARG18   ARG19   ASN20  
 ALA21   ILE22   HIS23  

>  <Gold.Protein.RotatedAtoms>  (176) 
   11.1518   19.0547    7.5670 H   0  0  0  0  0  0  0  0  0  0  0  0  # atno 641  bound_to 637 
   16.0244   12.5958    6.3183 H   0  0  0  0  0  0  0  0  0  0  0  0  # atno 681  bound_to 677 
   19.3535   11.8614   -1.2089 H   0  0  0  0  0  0  0  0  0  0  0  0  # atno 702  bound_to 698 
   -6.5302   15.6814   -1.4104 H   0  0  0  0  0  0  0  0  0  0  0  0  # atno 965  bound_to 957 
    2.1325   11.9393   10.4665 H   0  0  0  0  0  0  0  0  0  0  0  0  # atno 1886 bound_to 1878
   10.5237    1.9689   -2.4113 H   0  0  0  0  0  0  0  0  0  0  0  0  # atno 2577 bound_to 2569
    8.0002    5.3411    0.4323 H   0  0  0  0  0  0  0  0  0  0  0  0  # atno 2891 bound_to 2887
   17.9579    2.0203   -0.1740 H   0  0  0  0  0  0  0  0  0  0  0  0  # atno 3175 bound_to 3171
   12.7991    9.8943   10.1152 H   0  0  0  0  0  0  0  0  0  0  0  0  # atno 5278 bound_to 5270
   16.0058   13.7079    7.4581 LP  0  0  0  0  0  0  0  0  0  0  0  0  # atno 5914 bound_to 677 
   17.3022   13.5322    6.4808 LP  0  0  0  0  0  0  0  0  0  0  0  0  # atno 5915 bound_to 677 
   20.6233   11.6016   -0.2829 LP  0  0  0  0  0  0  0  0  0  0  0  0  # atno 5920 bound_to 698 
   20.7613   11.6086   -1.9100 LP  0  0  0  0  0  0  0  0  0  0  0  0  # atno 5921 bound_to 698 
    9.2434    2.7104   -2.9997 LP  0  0  0  0  0  0  0  0  0  0  0  0  # atno 5950 bound_to 2569
   10.7465    3.2808   -3.2856 LP  0  0  0  0  0  0  0  0  0  0  0  0  # atno 5951 bound_to 2569
    7.1366    5.9763    1.6101 LP  0  0  0  0  0  0  0  0  0  0  0  0  # atno 5982 bound_to 2887
    8.1185    6.9073    0.6959 LP  0  0  0  0  0  0  0  0  0  0  0  0  # atno 5983 bound_to 2887
   18.7896    2.4913   -1.4476 LP  0  0  0  0  0  0  0  0  0  0  0  0  # atno 6000 bound_to 3171
   19.1996    2.9913    0.0518 LP  0  0  0  0  0  0  0  0  0  0  0  0  # atno 6001 bound_to 3171
   14.3869    9.9235    9.9946 LP  0  0  0  0  0  0  0  0  0  0  0  0  # atno 6004 bound_to 5270
   13.4431   10.2333    8.6985 LP  0  0  0  0  0  0  0  0  0  0  0  0  # atno 6005 bound_to 5270
   10.6361   19.7771    8.8888 LP  0  0  0  0  0  0  0  0  0  0  0  0  # atno 6055 bound_to 637 
    9.5836   19.2564    7.7540 LP  0  0  0  0  0  0  0  0  0  0  0  0  # atno 6056 bound_to 637 
    1.4612   10.4972   10.5354 LP  0  0  0  0  0  0  0  0  0  0  0  0  # atno 6063 bound_to 1878
    0.6792   11.8129   11.1046 LP  0  0  0  0  0  0  0  0  0  0  0  0  # atno 6064 bound_to 1878
   -6.7385   17.1944   -0.9604 LP  0  0  0  0  0  0  0  0  0  0  0  0  # atno 6067 bound_to 957 
   -7.1920   15.9620    0.0103 LP  0  0  0  0  0  0  0  0  0  0  0  0  # atno 6068 bound_to 957 

>  <STRIFE_LigEff_Score>  (176) 
2.4383500000000002

$$$$
unknown|pharmsElabsTestMulti|sdf|177|dock1
     RDKit          3D

 17 17  0  0  0  0  0  0  0  0999 V2000
    4.1440   10.1196    5.0524 C   0  0  0  0  0  0  0  0  0  0  0  0
    3.5985    8.9029    4.3229 C   0  0  0  0  0  0  0  0  0  0  0  0
    3.6246    9.1241    2.8729 N   0  0  0  0  0  0  0  0  0  0  0  0
    4.9881    8.9022    2.3836 C   0  0  0  0  0  0  0  0  0  0  0  0
    5.7194   10.2329    2.1783 C   0  0  0  0  0  0  0  0  0  0  0  0
    7.1408    9.9951    1.8874 N   0  0  0  0  0  0  0  0  0  0  0  0
    8.0205    9.5157    2.9189 C   0  0  0  0  0  0  0  0  0  0  0  0
    7.5705    9.3529    4.0802 O   0  0  0  0  0  0  0  0  0  0  0  0
    9.4634    9.1521    2.7374 C   0  0  0  0  0  0  0  0  0  0  0  0
    9.7559    7.6497    2.7436 C   0  0  0  0  0  0  0  0  0  0  0  0
   11.2573    7.2944    2.7379 C   0  0  0  0  0  0  0  0  0  0  0  0
   12.0938    8.4268    2.1210 C   0  0  0  0  0  0  0  0  0  0  0  0
   13.5601    8.1026    1.6991 C   0  0  0  0  0  0  0  0  0  0  0  0
   14.4520    9.2812    1.3479 C   0  0  0  0  0  0  0  0  0  0  0  0
   13.7765    6.9084    0.8893 N   0  0  0  0  0  0  0  0  0  0  0  0
   11.9633    9.6973    2.9857 C   0  0  0  0  0  0  0  0  0  0  0  0
   10.5059   10.1424    3.2297 C   0  0  0  0  0  0  0  0  0  0  0  0
  1  2  1  0
  2  3  1  0
  3  4  1  0
  4  5  1  0
  5  6  1  0
  6  7  1  0
  7  8  2  0
  7  9  1  0
  9 10  1  0
 10 11  1  0
 11 12  1  0
 12 13  1  0
 13 14  1  0
 13 15  1  0
 12 16  1  0
 16 17  1  0
 17  9  1  0
M  CHG  1  15   1
M  END
>  <EmbedRMS>  (177) 
0.25842907567579826

>  <Gold.Version>  (177) 
2020.3.0

>  <Gold.Id.Protein>  (177) 
unknown|1q8t_protein|pdb

>  <Gold.PLP.Fitness>  (177) 
47.8859

>  <Gold.PLP.PLP>  (177) 
-39.8177

>  <Gold.PLP.part.hbond>  (177) 
-1.8523

>  <Gold.PLP.part.metal>  (177) 
0.0000

>  <Gold.PLP.part.buried>  (177) 
-5.1302

>  <Gold.PLP.part.nonpolar>  (177) 
-33.5948

>  <Gold.PLP.part.repulsive>  (177) 
0.0929

>  <Gold.PLP.ligand.clash>  (177) 
0.0000

>  <Gold.PLP.ligand.torsion>  (177) 
1.0057

>  <Gold.PLP.Chemscore.Hbond>  (177) 
2.9760

>  <Gold.PLP.Chemscore.CHOScore>  (177) 
0.0000

>  <Gold.PLP.Chemscore.Metal>  (177) 
0.0000

>  <Gold.Chemscore.Hbonds>  (177) 
donor molecule, donor type, donor heavy atom, donor atom, acceptor molecule, acceptor atom, score
      L1  H    15    40       P1  2691  0.98
      L1  H    15    41       P1  2902  2.00

>  <Gold.PLP.Chemscore.Internal.Correction>  (177) 
1.1516

>  <Gold.PLP.Constraint>  (177) 
-0.0000

>  <Gold.Protein.RotatedTorsions>  (177) 
[  681  677  676  673 ] final  -64.83 input -179.99 | X-H torsion
[  702  698  697  694 ] final -134.15 input  179.99 | X-H torsion
[ 2577 2569 2568 2566 ] final  -25.25 input   -0.13 | X-H torsion
[ 2891 2887 2886 2883 ] final  -37.90 input  179.98 | X-H torsion
[ 3175 3171 3170 3167 ] final  -55.46 input -179.99 | X-H torsion
[ 5278 5270 5269 5267 ] final  -29.45 input    0.55 | X-H torsion
[  641  637  636  633 ] final   32.76 input  179.99 | X-H torsion
[ 1886 1878 1877 1875 ] final  -33.60 input    1.60 | X-H torsion
[  965  957  956  954 ] final  -46.62 input    0.45 | X-H torsion

>  <Gold.Protein.ActiveResidues>  (177) 
 LYS47   THR48   LEU49   GLY50   THR51   GLY52   SER53   PHE54   GLY55   ARG56  
 VAL57   MET58   LEU59   TYR69   ALA70   MET71   LYS72   ILE73   LEU74   GLU91  
 LEU95   VAL104  LYS105  MET118  VAL119  MET120  GLU121  TYR122  VAL123  PRO124 
 GLY125  GLY126  GLU127  MET128  PHE129  TYR164  ASP166  LEU167  LYS168  PRO169 
 GLU170  ASN171  LEU172  LEU173  ILE174  GLN181  VAL182  THR183  ASP184  PHE185 
 GLY186  PHE187  GLY200  THR201  ASN326  PHE327  TYR330  ARG18   ARG19   ASN20  
 ALA21   ILE22   HIS23  

>  <Gold.Protein.RotatedAtoms>  (177) 
    9.6481   19.5458    8.3642 H   0  0  0  0  0  0  0  0  0  0  0  0  # atno 641  bound_to 637 
   15.6534   13.2308    7.1778 H   0  0  0  0  0  0  0  0  0  0  0  0  # atno 681  bound_to 677 
   21.0942   11.5477   -0.9437 H   0  0  0  0  0  0  0  0  0  0  0  0  # atno 702  bound_to 698 
   -6.4834   15.8391   -1.5098 H   0  0  0  0  0  0  0  0  0  0  0  0  # atno 965  bound_to 957 
    2.0154   10.8485   10.3321 H   0  0  0  0  0  0  0  0  0  0  0  0  # atno 1886 bound_to 1878
   10.1373    3.3686   -3.4116 H   0  0  0  0  0  0  0  0  0  0  0  0  # atno 2577 bound_to 2569
    7.7106    5.1847    0.7302 H   0  0  0  0  0  0  0  0  0  0  0  0  # atno 2891 bound_to 2887
   19.3588    3.0203   -0.4608 H   0  0  0  0  0  0  0  0  0  0  0  0  # atno 3175 bound_to 3171
   12.8890    9.8694   10.2203 H   0  0  0  0  0  0  0  0  0  0  0  0  # atno 5278 bound_to 5270
   17.0821   13.9090    6.9907 LP  0  0  0  0  0  0  0  0  0  0  0  0  # atno 5914 bound_to 677 
   16.6164   12.6628    6.0437 LP  0  0  0  0  0  0  0  0  0  0  0  0  # atno 5915 bound_to 677 
   19.9510   11.7546   -2.0335 LP  0  0  0  0  0  0  0  0  0  0  0  0  # atno 5920 bound_to 698 
   19.6024   11.7856   -0.4384 LP  0  0  0  0  0  0  0  0  0  0  0  0  # atno 5921 bound_to 698 
   11.0126    2.3172   -2.5970 LP  0  0  0  0  0  0  0  0  0  0  0  0  # atno 5950 bound_to 2569
    9.3842    2.2002   -2.6351 LP  0  0  0  0  0  0  0  0  0  0  0  0  # atno 5951 bound_to 2569
    7.2389    6.4320    1.6008 LP  0  0  0  0  0  0  0  0  0  0  0  0  # atno 5982 bound_to 2887
    8.3209    6.6163    0.3917 LP  0  0  0  0  0  0  0  0  0  0  0  0  # atno 5983 bound_to 2887
   18.1659    2.2534    0.2634 LP  0  0  0  0  0  0  0  0  0  0  0  0  # atno 6000 bound_to 3171
   18.3489    2.1767   -1.3574 LP  0  0  0  0  0  0  0  0  0  0  0  0  # atno 6001 bound_to 3171
   14.4380    9.9572    9.8600 LP  0  0  0  0  0  0  0  0  0  0  0  0  # atno 6004 bound_to 5270
   13.2974   10.2258    8.7226 LP  0  0  0  0  0  0  0  0  0  0  0  0  # atno 6005 bound_to 5270
   10.5779   18.9317    7.2270 LP  0  0  0  0  0  0  0  0  0  0  0  0  # atno 6055 bound_to 637 
   11.2255   19.5846    8.5764 LP  0  0  0  0  0  0  0  0  0  0  0  0  # atno 6056 bound_to 637 
    0.6047   11.1190   11.0191 LP  0  0  0  0  0  0  0  0  0  0  0  0  # atno 6063 bound_to 1878
    1.6590   12.3394   10.7624 LP  0  0  0  0  0  0  0  0  0  0  0  0  # atno 6064 bound_to 1878
   -6.8219   17.2114   -0.7768 LP  0  0  0  0  0  0  0  0  0  0  0  0  # atno 6067 bound_to 957 
   -7.1578   15.7788   -0.0687 LP  0  0  0  0  0  0  0  0  0  0  0  0  # atno 6068 bound_to 957 

>  <STRIFE_LigEff_Score>  (177) 
2.8168176470588233

$$$$
unknown|pharmsElabsTestMulti|sdf|178|dock7
     RDKit          3D

 14 14  0  0  0  0  0  0  0  0999 V2000
    3.8985    9.8034    5.5992 C   0  0  0  0  0  0  0  0  0  0  0  0
    4.7480   10.0626    4.3611 C   0  0  0  0  0  0  0  0  0  0  0  0
    6.0800    9.4905    4.5272 N   0  0  0  0  0  0  0  0  0  0  0  0
    7.0614    9.5093    3.4835 C   0  0  0  0  0  0  0  0  0  0  0  0
    6.8190   10.0997    2.3934 O   0  0  0  0  0  0  0  0  0  0  0  0
    8.3943    8.8460    3.7043 C   0  0  0  0  0  0  0  0  0  0  0  0
    8.6964    7.8667    2.5716 C   0  0  0  0  0  0  0  0  0  0  0  0
    9.9678    7.0740    2.8410 C   0  0  0  0  0  0  0  0  0  0  0  0
   11.1748    7.8988    3.3627 C   0  0  0  0  0  0  0  0  0  0  0  0
   12.5060    7.8789    2.5853 C   0  0  0  0  0  0  0  0  0  0  0  0
   13.8010    8.0950    3.3680 C   0  0  0  0  0  0  0  0  0  0  0  0
   12.4651    8.7327    1.3901 N   0  0  0  0  0  0  0  0  0  0  0  0
   10.8687    9.2675    4.0446 C   0  0  0  0  0  0  0  0  0  0  0  0
    9.5025    9.8918    3.7664 C   0  0  0  0  0  0  0  0  0  0  0  0
  1  2  1  0
  2  3  1  0
  3  4  1  0
  4  5  2  0
  4  6  1  0
  6  7  1  0
  7  8  1  0
  8  9  1  0
  9 10  1  0
 10 11  1  0
 10 12  1  0
  9 13  1  0
 13 14  1  0
 14  6  1  0
M  CHG  1  12   1
M  END
>  <EmbedRMS>  (178) 
0.22880006867790334

>  <Gold.Version>  (178) 
2020.3.0

>  <Gold.Id.Protein>  (178) 
unknown|1q8t_protein|pdb

>  <Gold.PLP.Fitness>  (178) 
35.4134

>  <Gold.PLP.PLP>  (178) 
-29.7744

>  <Gold.PLP.part.hbond>  (178) 
-1.0000

>  <Gold.PLP.part.metal>  (178) 
0.0000

>  <Gold.PLP.part.buried>  (178) 
-0.5586

>  <Gold.PLP.part.nonpolar>  (178) 
-27.9337

>  <Gold.PLP.part.repulsive>  (178) 
0.0000

>  <Gold.PLP.ligand.clash>  (178) 
0.0000

>  <Gold.PLP.ligand.torsion>  (178) 
0.3731

>  <Gold.PLP.Chemscore.Hbond>  (178) 
2.0000

>  <Gold.PLP.Chemscore.CHOScore>  (178) 
0.0000

>  <Gold.PLP.Chemscore.Metal>  (178) 
0.0000

>  <Gold.Chemscore.Hbonds>  (178) 
donor molecule, donor type, donor heavy atom, donor atom, acceptor molecule, acceptor atom, score
      L1  H    12    33       P1  2902  2.00

>  <Gold.PLP.Chemscore.Internal.Correction>  (178) 
0.3853

>  <Gold.PLP.Constraint>  (178) 
-0.0000

>  <Gold.Protein.RotatedTorsions>  (178) 
[  681  677  676  673 ] final    0.59 input -179.99 | X-H torsion
[  702  698  697  694 ] final   66.46 input  179.99 | X-H torsion
[ 2577 2569 2568 2566 ] final  -99.30 input   -0.13 | X-H torsion
[ 2891 2887 2886 2883 ] final   31.85 input  179.98 | X-H torsion
[ 3175 3171 3170 3167 ] final   30.88 input -179.99 | X-H torsion
[ 5278 5270 5269 5267 ] final  -47.31 input    0.55 | X-H torsion
[  641  637  636  633 ] final   34.48 input  179.99 | X-H torsion
[ 1886 1878 1877 1875 ] final -115.18 input    1.60 | X-H torsion
[  965  957  956  954 ] final  145.34 input    0.45 | X-H torsion

>  <Gold.Protein.ActiveResidues>  (178) 
 LYS47   THR48   LEU49   GLY50   THR51   GLY52   SER53   PHE54   GLY55   ARG56  
 VAL57   MET58   LEU59   TYR69   ALA70   MET71   LYS72   ILE73   LEU74   GLU91  
 LEU95   VAL104  LYS105  MET118  VAL119  MET120  GLU121  TYR122  VAL123  PRO124 
 GLY125  GLY126  GLU127  MET128  PHE129  TYR164  ASP166  LEU167  LYS168  PRO169 
 GLU170  ASN171  LEU172  LEU173  ILE174  GLN181  VAL182  THR183  ASP184  PHE185 
 GLY186  PHE187  GLY200  THR201  ASN326  PHE327  TYR330  ARG18   ARG19   ASN20  
 ALA21   ILE22   HIS23  

>  <Gold.Protein.RotatedAtoms>  (178) 
    9.6590   19.5564    8.3862 H   0  0  0  0  0  0  0  0  0  0  0  0  # atno 641  bound_to 637 
   15.8762   12.6343    6.4483 H   0  0  0  0  0  0  0  0  0  0  0  0  # atno 681  bound_to 677 
   19.4937   11.8446   -1.6223 H   0  0  0  0  0  0  0  0  0  0  0  0  # atno 702  bound_to 698 
   -7.0823   16.8518   -0.1728 H   0  0  0  0  0  0  0  0  0  0  0  0  # atno 965  bound_to 957 
    0.9456   10.6804   10.7751 H   0  0  0  0  0  0  0  0  0  0  0  0  # atno 1886 bound_to 1878
   11.0253    2.8985   -3.0201 H   0  0  0  0  0  0  0  0  0  0  0  0  # atno 2577 bound_to 2569
    8.2919    5.8544    0.2173 H   0  0  0  0  0  0  0  0  0  0  0  0  # atno 2891 bound_to 2887
   18.7898    2.4759   -1.3998 H   0  0  0  0  0  0  0  0  0  0  0  0  # atno 3175 bound_to 3171
   13.1119    9.8317   10.3825 H   0  0  0  0  0  0  0  0  0  0  0  0  # atno 5278 bound_to 5270
   16.1830   13.8231    7.4626 LP  0  0  0  0  0  0  0  0  0  0  0  0  # atno 5914 bound_to 677 
   17.2810   13.3764    6.3395 LP  0  0  0  0  0  0  0  0  0  0  0  0  # atno 5915 bound_to 677 
   20.1791   11.6786   -0.1939 LP  0  0  0  0  0  0  0  0  0  0  0  0  # atno 5920 bound_to 698 
   21.0579   11.5493   -1.5642 LP  0  0  0  0  0  0  0  0  0  0  0  0  # atno 5921 bound_to 698 
    9.9903    1.8793   -2.3679 LP  0  0  0  0  0  0  0  0  0  0  0  0  # atno 5950 bound_to 2569
    9.4714    3.1331   -3.2764 LP  0  0  0  0  0  0  0  0  0  0  0  0  # atno 5951 bound_to 2569
    7.2548    5.3880    1.3323 LP  0  0  0  0  0  0  0  0  0  0  0  0  # atno 5982 bound_to 2887
    7.6932    6.9555    1.2000 LP  0  0  0  0  0  0  0  0  0  0  0  0  # atno 5983 bound_to 2887
   19.2014    2.9923    0.0492 LP  0  0  0  0  0  0  0  0  0  0  0  0  # atno 6000 bound_to 3171
   17.9123    2.0108   -0.1550 LP  0  0  0  0  0  0  0  0  0  0  0  0  # atno 6001 bound_to 3171
   14.4725   10.0271    9.5779 LP  0  0  0  0  0  0  0  0  0  0  0  0  # atno 6004 bound_to 5270
   13.0285   10.1955    8.8341 LP  0  0  0  0  0  0  0  0  0  0  0  0  # atno 6005 bound_to 5270
   10.5499   18.9317    7.2238 LP  0  0  0  0  0  0  0  0  0  0  0  0  # atno 6055 bound_to 637 
   11.2420   19.5735    8.5564 LP  0  0  0  0  0  0  0  0  0  0  0  0  # atno 6056 bound_to 637 
    1.0916   12.2503   10.9974 LP  0  0  0  0  0  0  0  0  0  0  0  0  # atno 6063 bound_to 1878
    2.2983   11.3850   10.3178 LP  0  0  0  0  0  0  0  0  0  0  0  0  # atno 6064 bound_to 1878
   -6.8997   15.3423   -0.6451 LP  0  0  0  0  0  0  0  0  0  0  0  0  # atno 6067 bound_to 957 
   -6.4494   16.5815   -1.6085 LP  0  0  0  0  0  0  0  0  0  0  0  0  # atno 6068 bound_to 957 

>  <STRIFE_LigEff_Score>  (178) 
2.5295285714285716

$$$$
unknown|pharmsElabsTestMulti|sdf|179|dock1
     RDKit          3D

 17 17  0  0  0  0  0  0  0  0999 V2000
   13.7628    7.5225    3.4526 C   0  0  0  0  0  0  0  0  0  0  0  0
   12.9017    8.0095    2.2776 C   0  0  0  0  0  0  0  0  0  0  0  0
   13.1061    7.1444    1.1102 N   0  0  0  0  0  0  0  0  0  0  0  0
   11.3813    8.2468    2.5839 C   0  0  0  0  0  0  0  0  0  0  0  0
   10.3905    7.5965    1.5999 C   0  0  0  0  0  0  0  0  0  0  0  0
    9.0563    8.3061    1.4732 C   0  0  0  0  0  0  0  0  0  0  0  0
    8.5403    8.8162    2.8123 C   0  0  0  0  0  0  0  0  0  0  0  0
    7.1661    9.3980    2.6261 C   0  0  0  0  0  0  0  0  0  0  0  0
    6.6190    9.3907    1.4858 O   0  0  0  0  0  0  0  0  0  0  0  0
    6.4964    9.9835    3.7431 N   0  0  0  0  0  0  0  0  0  0  0  0
    5.1564   10.5353    3.6321 C   0  0  0  0  0  0  0  0  0  0  0  0
    4.0151    9.5065    3.9095 C   0  0  0  0  0  0  0  0  0  0  0  0
    3.8947    8.5442    2.7474 C   0  0  0  0  0  0  0  0  0  0  0  0
    3.7085    9.4236    5.3908 C   0  0  0  0  0  0  0  0  0  0  0  0
    2.8114    9.7988    3.7137 O   0  0  0  0  0  0  0  0  0  0  0  0
    9.4783    9.8801    3.3916 C   0  0  0  0  0  0  0  0  0  0  0  0
   10.9751    9.5193    3.3563 C   0  0  0  0  0  0  0  0  0  0  0  0
  1  2  1  0
  2  3  1  0
  2  4  1  0
  4  5  1  0
  5  6  1  0
  6  7  1  0
  7  8  1  0
  8  9  2  0
  8 10  1  0
 10 11  1  0
 11 12  1  0
 12 13  1  0
 12 14  1  0
 12 15  1  0
  7 16  1  0
 16 17  1  0
 17  4  1  0
M  CHG  1   3   1
M  END
>  <EmbedRMS>  (179) 
0.6861464654853324

>  <Gold.Version>  (179) 
2020.3.0

>  <Gold.Id.Protein>  (179) 
unknown|1q8t_protein|pdb

>  <Gold.PLP.Fitness>  (179) 
51.2317

>  <Gold.PLP.PLP>  (179) 
-41.1217

>  <Gold.PLP.part.hbond>  (179) 
-3.5486

>  <Gold.PLP.part.metal>  (179) 
0.0000

>  <Gold.PLP.part.buried>  (179) 
-1.9085

>  <Gold.PLP.part.nonpolar>  (179) 
-37.1449

>  <Gold.PLP.part.repulsive>  (179) 
0.0415

>  <Gold.PLP.ligand.clash>  (179) 
0.0000

>  <Gold.PLP.ligand.torsion>  (179) 
1.3309

>  <Gold.PLP.Chemscore.Hbond>  (179) 
3.9282

>  <Gold.PLP.Chemscore.CHOScore>  (179) 
0.0000

>  <Gold.PLP.Chemscore.Metal>  (179) 
0.0000

>  <Gold.Chemscore.Hbonds>  (179) 
donor molecule, donor type, donor heavy atom, donor atom, acceptor molecule, acceptor atom, score
      L1  H     3    22       P1  2902  2.00
      L1  H     3    23       P1  2691  0.88
      L1  H    15    40       P1  1855  0.06
      P1  H  1888  1903       L1    15  0.99

>  <Gold.PLP.Chemscore.Internal.Correction>  (179) 
0.9872

>  <Gold.PLP.Constraint>  (179) 
-0.0000

>  <Gold.Protein.RotatedTorsions>  (179) 
[  681  677  676  673 ] final  137.49 input -179.99 | X-H torsion
[  702  698  697  694 ] final  -25.58 input  179.99 | X-H torsion
[ 2577 2569 2568 2566 ] final   41.05 input   -0.13 | X-H torsion
[ 2891 2887 2886 2883 ] final   -0.01 input  179.98 | X-H torsion
[ 3175 3171 3170 3167 ] final   94.30 input -179.99 | X-H torsion
[ 5278 5270 5269 5267 ] final  -96.29 input    0.55 | X-H torsion
[  641  637  636  633 ] final  -26.48 input  179.99 | X-H torsion
[ 1886 1878 1877 1875 ] final   41.50 input    1.60 | X-H torsion
[  965  957  956  954 ] final   44.43 input    0.45 | X-H torsion

>  <Gold.Protein.ActiveResidues>  (179) 
 LYS47   THR48   LEU49   GLY50   THR51   GLY52   SER53   PHE54   GLY55   ARG56  
 VAL57   MET58   LEU59   TYR69   ALA70   MET71   LYS72   ILE73   LEU74   GLU91  
 LEU95   VAL104  LYS105  MET118  VAL119  MET120  GLU121  TYR122  VAL123  PRO124 
 GLY125  GLY126  GLU127  MET128  PHE129  TYR164  ASP166  LEU167  LYS168  PRO169 
 GLU170  ASN171  LEU172  LEU173  ILE174  GLN181  VAL182  THR183  ASP184  PHE185 
 GLY186  PHE187  GLY200  THR201  ASN326  PHE327  TYR330  ARG18   ARG19   ASN20  
 ALA21   ILE22   HIS23  

>  <Gold.Protein.RotatedAtoms>  (179) 
    9.7439   19.1414    7.5828 H   0  0  0  0  0  0  0  0  0  0  0  0  # atno 641  bound_to 637 
   17.2503   13.5735    6.5283 H   0  0  0  0  0  0  0  0  0  0  0  0  # atno 681  bound_to 677 
   19.7771   11.7701   -0.3660 H   0  0  0  0  0  0  0  0  0  0  0  0  # atno 702  bound_to 698 
   -6.9955   15.4913   -0.3920 H   0  0  0  0  0  0  0  0  0  0  0  0  # atno 965  bound_to 957 
    2.1408   11.9251   10.4604 H   0  0  0  0  0  0  0  0  0  0  0  0  # atno 1886 bound_to 1878
    9.3440    2.8712   -3.1243 H   0  0  0  0  0  0  0  0  0  0  0  0  # atno 2577 bound_to 2569
    8.0830    5.4321    0.3581 H   0  0  0  0  0  0  0  0  0  0  0  0  # atno 2891 bound_to 2887
   18.0768    1.9987   -1.0116 H   0  0  0  0  0  0  0  0  0  0  0  0  # atno 3175 bound_to 3171
   13.8534    9.8286   10.4264 H   0  0  0  0  0  0  0  0  0  0  0  0  # atno 5278 bound_to 5270
   16.0633   12.5441    6.2686 LP  0  0  0  0  0  0  0  0  0  0  0  0  # atno 5914 bound_to 677 
   15.9545   13.6669    7.4493 LP  0  0  0  0  0  0  0  0  0  0  0  0  # atno 5915 bound_to 677 
   21.1580   11.5230   -1.1207 LP  0  0  0  0  0  0  0  0  0  0  0  0  # atno 5920 bound_to 698 
   19.7809   11.7833   -1.9589 LP  0  0  0  0  0  0  0  0  0  0  0  0  # atno 5921 bound_to 698 
   10.9092    3.1564   -3.1873 LP  0  0  0  0  0  0  0  0  0  0  0  0  # atno 5950 bound_to 2569
   10.3228    1.8847   -2.3472 LP  0  0  0  0  0  0  0  0  0  0  0  0  # atno 5951 bound_to 2569
    7.1361    5.8292    1.5755 LP  0  0  0  0  0  0  0  0  0  0  0  0  # atno 5982 bound_to 2887
    8.0318    6.9588    0.8086 LP  0  0  0  0  0  0  0  0  0  0  0  0  # atno 5983 bound_to 2887
   19.3392    2.9659   -0.9320 LP  0  0  0  0  0  0  0  0  0  0  0  0  # atno 6000 bound_to 3171
   18.5248    2.5394    0.4176 LP  0  0  0  0  0  0  0  0  0  0  0  0  # atno 6001 bound_to 3171
   14.1219   10.1910    8.8988 LP  0  0  0  0  0  0  0  0  0  0  0  0  # atno 6004 bound_to 5270
   12.5989   10.0350    9.4670 LP  0  0  0  0  0  0  0  0  0  0  0  0  # atno 6005 bound_to 5270
   11.3288   19.1490    7.7345 LP  0  0  0  0  0  0  0  0  0  0  0  0  # atno 6055 bound_to 637 
   10.3737   19.7932    8.8918 LP  0  0  0  0  0  0  0  0  0  0  0  0  # atno 6056 bound_to 637 
    1.4443   10.4956   10.5426 LP  0  0  0  0  0  0  0  0  0  0  0  0  # atno 6063 bound_to 1878
    0.6874   11.8294   11.1038 LP  0  0  0  0  0  0  0  0  0  0  0  0  # atno 6064 bound_to 1878
   -6.4297   16.2735   -1.6582 LP  0  0  0  0  0  0  0  0  0  0  0  0  # atno 6067 bound_to 957 
   -7.0107   17.0832   -0.3646 LP  0  0  0  0  0  0  0  0  0  0  0  0  # atno 6068 bound_to 957 

>  <STRIFE_LigEff_Score>  (179) 
3.013629411764706

$$$$
unknown|pharmsElabsTestMulti|sdf|180|dock5
     RDKit          3D

 17 17  0  0  0  0  0  0  0  0999 V2000
   14.3572    6.7708    2.5946 C   0  0  0  0  0  0  0  0  0  0  0  0
   13.7532    8.1750    2.4434 C   0  0  0  0  0  0  0  0  0  0  0  0
   14.0144    8.6938    1.0960 N   0  0  0  0  0  0  0  0  0  0  0  0
   12.2484    8.3317    2.8606 C   0  0  0  0  0  0  0  0  0  0  0  0
   11.2245    7.6162    1.9594 C   0  0  0  0  0  0  0  0  0  0  0  0
    9.8466    8.2507    1.9263 C   0  0  0  0  0  0  0  0  0  0  0  0
    9.4002    8.7492    3.2952 C   0  0  0  0  0  0  0  0  0  0  0  0
    7.9823    9.2548    3.2057 C   0  0  0  0  0  0  0  0  0  0  0  0
    7.6761   10.3858    3.6802 O   0  0  0  0  0  0  0  0  0  0  0  0
    6.9799    8.4359    2.6038 N   0  0  0  0  0  0  0  0  0  0  0  0
    5.6036    8.8958    2.4631 C   0  0  0  0  0  0  0  0  0  0  0  0
    5.0007    9.1018    3.8135 C   0  0  0  0  0  0  0  0  0  0  0  0
    5.7519    9.2476    4.8147 O   0  0  0  0  0  0  0  0  0  0  0  0
    3.5818    9.2108    3.9538 N   0  0  0  0  0  0  0  0  0  0  0  0
    3.0022    9.4463    5.2098 N   0  0  0  0  0  0  0  0  0  0  0  0
   10.3208    9.8678    3.7953 C   0  0  0  0  0  0  0  0  0  0  0  0
   11.8293    9.5885    3.6519 C   0  0  0  0  0  0  0  0  0  0  0  0
  1  2  1  0
  2  3  1  0
  2  4  1  0
  4  5  1  0
  5  6  1  0
  6  7  1  0
  7  8  1  0
  8  9  2  0
  8 10  1  0
 10 11  1  0
 11 12  1  0
 12 13  2  0
 12 14  1  0
 14 15  1  0
  7 16  1  0
 16 17  1  0
 17  4  1  0
M  CHG  1   3   1
M  END
>  <EmbedRMS>  (180) 
0.16865104847114704

>  <Gold.Version>  (180) 
2020.3.0

>  <Gold.Id.Protein>  (180) 
unknown|1q8t_protein|pdb

>  <Gold.PLP.Fitness>  (180) 
42.1952

>  <Gold.PLP.PLP>  (180) 
-29.6739

>  <Gold.PLP.part.hbond>  (180) 
-4.0000

>  <Gold.PLP.part.metal>  (180) 
0.0000

>  <Gold.PLP.part.buried>  (180) 
-5.1392

>  <Gold.PLP.part.nonpolar>  (180) 
-21.5013

>  <Gold.PLP.part.repulsive>  (180) 
0.0955

>  <Gold.PLP.ligand.clash>  (180) 
0.0000

>  <Gold.PLP.ligand.torsion>  (180) 
0.9546

>  <Gold.PLP.Chemscore.Hbond>  (180) 
4.6115

>  <Gold.PLP.Chemscore.CHOScore>  (180) 
0.0000

>  <Gold.PLP.Chemscore.Metal>  (180) 
0.0000

>  <Gold.Chemscore.Hbonds>  (180) 
donor molecule, donor type, donor heavy atom, donor atom, acceptor molecule, acceptor atom, score
      L1  H     3    24       P1  2902  2.00
      L1  H    10    31       P1  2887  1.00
      L1  H    15    35       P1  1891  0.61
      P1  H  1888  1903       L1    15  1.00

>  <Gold.PLP.Chemscore.Internal.Correction>  (180) 
0.5959

>  <Gold.PLP.Constraint>  (180) 
-0.0000

>  <Gold.Protein.RotatedTorsions>  (180) 
[  681  677  676  673 ] final   -5.06 input -179.99 | X-H torsion
[  702  698  697  694 ] final  155.95 input  179.99 | X-H torsion
[ 2577 2569 2568 2566 ] final  -95.32 input   -0.13 | X-H torsion
[ 2891 2887 2886 2883 ] final  -67.02 input  179.98 | X-H torsion
[ 3175 3171 3170 3167 ] final  -48.20 input -179.99 | X-H torsion
[ 5278 5270 5269 5267 ] final  149.39 input    0.55 | X-H torsion
[  641  637  636  633 ] final  -40.22 input  179.99 | X-H torsion
[ 1886 1878 1877 1875 ] final  -45.27 input    1.60 | X-H torsion
[  965  957  956  954 ] final  122.15 input    0.45 | X-H torsion

>  <Gold.Protein.ActiveResidues>  (180) 
 LYS47   THR48   LEU49   GLY50   THR51   GLY52   SER53   PHE54   GLY55   ARG56  
 VAL57   MET58   LEU59   TYR69   ALA70   MET71   LYS72   ILE73   LEU74   GLU91  
 LEU95   VAL104  LYS105  MET118  VAL119  MET120  GLU121  TYR122  VAL123  PRO124 
 GLY125  GLY126  GLU127  MET128  PHE129  TYR164  ASP166  LEU167  LYS168  PRO169 
 GLU170  ASN171  LEU172  LEU173  ILE174  GLN181  VAL182  THR183  ASP184  PHE185 
 GLY186  PHE187  GLY200  THR201  ASN326  PHE327  TYR330  ARG18   ARG19   ASN20  
 ALA21   ILE22   HIS23  

>  <Gold.Protein.RotatedAtoms>  (180) 
    9.8890   19.0635    7.4460 H   0  0  0  0  0  0  0  0  0  0  0  0  # atno 641  bound_to 637 
   15.8195   12.6616    6.5105 H   0  0  0  0  0  0  0  0  0  0  0  0  # atno 681  bound_to 677 
   20.7084   11.6344   -1.8914 H   0  0  0  0  0  0  0  0  0  0  0  0  # atno 702  bound_to 698 
   -7.1571   16.5372   -0.0149 H   0  0  0  0  0  0  0  0  0  0  0  0  # atno 965  bound_to 957 
    1.8864   10.7250   10.3679 H   0  0  0  0  0  0  0  0  0  0  0  0  # atno 1886 bound_to 1878
   11.0036    2.9455   -3.0543 H   0  0  0  0  0  0  0  0  0  0  0  0  # atno 2577 bound_to 2569
    7.4264    5.2467    1.0743 H   0  0  0  0  0  0  0  0  0  0  0  0  # atno 2891 bound_to 2887
   19.3658    3.0107   -0.5736 H   0  0  0  0  0  0  0  0  0  0  0  0  # atno 3175 bound_to 3171
   14.1586   10.1847    8.9956 H   0  0  0  0  0  0  0  0  0  0  0  0  # atno 5278 bound_to 5270
   16.2654   13.8652    7.4532 LP  0  0  0  0  0  0  0  0  0  0  0  0  # atno 5914 bound_to 677 
   17.2582   13.3057    6.2835 LP  0  0  0  0  0  0  0  0  0  0  0  0  # atno 5915 bound_to 677 
   19.3025   11.8530   -1.1752 LP  0  0  0  0  0  0  0  0  0  0  0  0  # atno 5920 bound_to 698 
   20.6568   11.5960   -0.2998 LP  0  0  0  0  0  0  0  0  0  0  0  0  # atno 5921 bound_to 698 
   10.0547    1.8727   -2.3586 LP  0  0  0  0  0  0  0  0  0  0  0  0  # atno 5950 bound_to 2569
    9.4300    3.0902   -3.2497 LP  0  0  0  0  0  0  0  0  0  0  0  0  # atno 5951 bound_to 2569
    7.4735    6.8012    1.4176 LP  0  0  0  0  0  0  0  0  0  0  0  0  # atno 5982 bound_to 2887
    8.3855    6.1819    0.2129 LP  0  0  0  0  0  0  0  0  0  0  0  0  # atno 5983 bound_to 2887
   18.2454    2.3201    0.3227 LP  0  0  0  0  0  0  0  0  0  0  0  0  # atno 6000 bound_to 3171
   18.2621    2.1202   -1.2979 LP  0  0  0  0  0  0  0  0  0  0  0  0  # atno 6001 bound_to 3171
   12.6178   10.0570    9.3782 LP  0  0  0  0  0  0  0  0  0  0  0  0  # atno 6004 bound_to 5270
   13.7817    9.7942   10.4930 LP  0  0  0  0  0  0  0  0  0  0  0  0  # atno 6005 bound_to 5270
   11.3957   19.2439    7.9277 LP  0  0  0  0  0  0  0  0  0  0  0  0  # atno 6055 bound_to 637 
   10.1540   19.7804    8.8426 LP  0  0  0  0  0  0  0  0  0  0  0  0  # atno 6056 bound_to 637 
    0.5759   11.3034   11.0632 LP  0  0  0  0  0  0  0  0  0  0  0  0  # atno 6063 bound_to 1878
    1.8236   12.2850   10.6806 LP  0  0  0  0  0  0  0  0  0  0  0  0  # atno 6064 bound_to 1878
   -6.7427   15.3486   -0.9899 LP  0  0  0  0  0  0  0  0  0  0  0  0  # atno 6067 bound_to 957 
   -6.5275   16.9064   -1.4300 LP  0  0  0  0  0  0  0  0  0  0  0  0  # atno 6068 bound_to 957 

>  <STRIFE_LigEff_Score>  (180) 
2.482070588235294

$$$$
unknown|pharmsElabsTestMulti|sdf|181|dock9
     RDKit          3D

 20 20  0  0  0  0  0  0  0  0999 V2000
    3.9536    9.8038    6.1965 C   0  0  0  0  0  0  0  0  0  0  0  0
    5.0431    9.7771    5.4254 C   0  0  0  0  0  0  0  0  0  0  0  0
    5.0577    9.8834    3.9406 C   0  0  0  0  0  0  0  0  0  0  0  0
    4.1614    9.2129    3.1769 C   0  0  0  0  0  0  0  0  0  0  0  0
    4.0604    9.2138    1.7056 C   0  0  0  0  0  0  0  0  0  0  0  0
    5.0731    9.2000    0.9597 O   0  0  0  0  0  0  0  0  0  0  0  0
    2.7943    9.2355    1.1313 O   0  0  0  0  0  0  0  0  0  0  0  0
    6.1568   10.7384    3.3530 C   0  0  0  0  0  0  0  0  0  0  0  0
    7.4562   10.1259    3.6041 N   0  0  0  0  0  0  0  0  0  0  0  0
    8.0919    9.2602    2.6551 C   0  0  0  0  0  0  0  0  0  0  0  0
    7.5146    8.9685    1.5696 O   0  0  0  0  0  0  0  0  0  0  0  0
    9.4591    8.7128    2.9599 C   0  0  0  0  0  0  0  0  0  0  0  0
    9.7936    7.5289    2.0312 C   0  0  0  0  0  0  0  0  0  0  0  0
   11.2182    7.0115    2.2942 C   0  0  0  0  0  0  0  0  0  0  0  0
   12.1986    8.1749    2.0598 C   0  0  0  0  0  0  0  0  0  0  0  0
   13.6999    7.8439    1.8134 C   0  0  0  0  0  0  0  0  0  0  0  0
   14.6678    9.0149    1.8190 C   0  0  0  0  0  0  0  0  0  0  0  0
   14.0024    6.7934    0.8494 N   0  0  0  0  0  0  0  0  0  0  0  0
   11.9350    9.2875    3.0897 C   0  0  0  0  0  0  0  0  0  0  0  0
   10.5132    9.8355    2.8984 C   0  0  0  0  0  0  0  0  0  0  0  0
  1  2  2  0
  2  3  1  0
  3  4  2  0
  4  5  1  0
  5  6  2  0
  5  7  1  0
  3  8  1  0
  8  9  1  0
  9 10  1  0
 10 11  2  0
 10 12  1  0
 12 13  1  0
 13 14  1  0
 14 15  1  0
 15 16  1  0
 16 17  1  0
 16 18  1  0
 15 19  1  0
 19 20  1  0
 20 12  1  0
M  CHG  1  18   1
M  END
>  <EmbedRMS>  (181) 
0.17442689725655267

>  <Gold.Version>  (181) 
2020.3.0

>  <Gold.Id.Protein>  (181) 
unknown|1q8t_protein|pdb

>  <Gold.PLP.Fitness>  (181) 
46.0457

>  <Gold.PLP.PLP>  (181) 
-33.1723

>  <Gold.PLP.part.hbond>  (181) 
-3.9256

>  <Gold.PLP.part.metal>  (181) 
0.0000

>  <Gold.PLP.part.buried>  (181) 
7.5687

>  <Gold.PLP.part.nonpolar>  (181) 
-36.6586

>  <Gold.PLP.part.repulsive>  (181) 
0.0997

>  <Gold.PLP.ligand.clash>  (181) 
0.0000

>  <Gold.PLP.ligand.torsion>  (181) 
1.3479

>  <Gold.PLP.Chemscore.Hbond>  (181) 
4.9913

>  <Gold.PLP.Chemscore.CHOScore>  (181) 
0.0000

>  <Gold.PLP.Chemscore.Metal>  (181) 
0.0000

>  <Gold.Chemscore.Hbonds>  (181) 
donor molecule, donor type, donor heavy atom, donor atom, acceptor molecule, acceptor atom, score
      L1  H     7    25       P1  1855  1.00
      L1  H    18    40       P1  2691  0.99
      L1  H    18    41       P1  2902  2.00
      P1  H  2887  2891       L1    11  1.00

>  <Gold.PLP.Chemscore.Internal.Correction>  (181) 
0.5954

>  <Gold.PLP.Constraint>  (181) 
-0.0000

>  <Gold.Protein.RotatedTorsions>  (181) 
[  681  677  676  673 ] final -164.82 input -179.99 | X-H torsion
[  702  698  697  694 ] final -141.43 input  179.99 | X-H torsion
[ 2577 2569 2568 2566 ] final  156.08 input   -0.13 | X-H torsion
[ 2891 2887 2886 2883 ] final  148.11 input  179.98 | X-H torsion
[ 3175 3171 3170 3167 ] final   84.67 input -179.99 | X-H torsion
[ 5278 5270 5269 5267 ] final  138.59 input    0.55 | X-H torsion
[  641  637  636  633 ] final  -72.13 input  179.99 | X-H torsion
[ 1886 1878 1877 1875 ] final   -7.23 input    1.60 | X-H torsion
[  965  957  956  954 ] final -171.95 input    0.45 | X-H torsion

>  <Gold.Protein.ActiveResidues>  (181) 
 LYS47   THR48   LEU49   GLY50   THR51   GLY52   SER53   PHE54   GLY55   ARG56  
 VAL57   MET58   LEU59   TYR69   ALA70   MET71   LYS72   ILE73   LEU74   GLU91  
 LEU95   VAL104  LYS105  MET118  VAL119  MET120  GLU121  TYR122  VAL123  PRO124 
 GLY125  GLY126  GLU127  MET128  PHE129  TYR164  ASP166  LEU167  LYS168  PRO169 
 GLU170  ASN171  LEU172  LEU173  ILE174  GLN181  VAL182  THR183  ASP184  PHE185 
 GLY186  PHE187  GLY200  THR201  ASN326  PHE327  TYR330  ARG18   ARG19   ASN20  
 ALA21   ILE22   HIS23  

>  <Gold.Protein.RotatedAtoms>  (181) 
   10.3364   18.9509    7.2745 H   0  0  0  0  0  0  0  0  0  0  0  0  # atno 641  bound_to 637 
   16.8192   13.9546    7.1732 H   0  0  0  0  0  0  0  0  0  0  0  0  # atno 681  bound_to 677 
   21.1115   11.5468   -1.0562 H   0  0  0  0  0  0  0  0  0  0  0  0  # atno 702  bound_to 698 
   -6.8414   17.1580   -0.6957 H   0  0  0  0  0  0  0  0  0  0  0  0  # atno 965  bound_to 957 
    2.2115   11.2059   10.3066 H   0  0  0  0  0  0  0  0  0  0  0  0  # atno 1886 bound_to 1878
   10.2394    1.9036   -2.3868 H   0  0  0  0  0  0  0  0  0  0  0  0  # atno 2577 bound_to 2569
    7.7230    6.9279    1.1335 H   0  0  0  0  0  0  0  0  0  0  0  0  # atno 2891 bound_to 2887
   18.1596    2.0447   -1.1285 H   0  0  0  0  0  0  0  0  0  0  0  0  # atno 3175 bound_to 3171
   14.0279   10.2089    8.8920 H   0  0  0  0  0  0  0  0  0  0  0  0  # atno 5278 bound_to 5270
   16.8948   12.8356    6.0426 LP  0  0  0  0  0  0  0  0  0  0  0  0  # atno 5914 bound_to 677 
   15.5767   12.9743    6.9966 LP  0  0  0  0  0  0  0  0  0  0  0  0  # atno 5915 bound_to 677 
   19.8410   11.7732   -1.9899 LP  0  0  0  0  0  0  0  0  0  0  0  0  # atno 5920 bound_to 698 
   19.6942   11.7679   -0.3636 LP  0  0  0  0  0  0  0  0  0  0  0  0  # atno 5921 bound_to 698 
    9.3315    2.9560   -3.1637 LP  0  0  0  0  0  0  0  0  0  0  0  0  # atno 5950 bound_to 2569
   10.9577    3.1040   -3.1473 LP  0  0  0  0  0  0  0  0  0  0  0  0  # atno 5951 bound_to 2569
    8.3150    5.7823    0.1988 LP  0  0  0  0  0  0  0  0  0  0  0  0  # atno 5982 bound_to 2887
    7.2318    5.4314    1.3694 LP  0  0  0  0  0  0  0  0  0  0  0  0  # atno 5983 bound_to 2887
   19.3765    3.0127   -0.7853 LP  0  0  0  0  0  0  0  0  0  0  0  0  # atno 6000 bound_to 3171
   18.4004    2.4442    0.3940 LP  0  0  0  0  0  0  0  0  0  0  0  0  # atno 6001 bound_to 3171
   12.5896   10.0148    9.5482 LP  0  0  0  0  0  0  0  0  0  0  0  0  # atno 6004 bound_to 5270
   13.9475    9.8110   10.4321 LP  0  0  0  0  0  0  0  0  0  0  0  0  # atno 6005 bound_to 5270
   11.3457   19.4807    8.3861 LP  0  0  0  0  0  0  0  0  0  0  0  0  # atno 6055 bound_to 637 
    9.7327   19.6621    8.5648 LP  0  0  0  0  0  0  0  0  0  0  0  0  # atno 6056 bound_to 637 
    0.7925   10.7600   10.8750 LP  0  0  0  0  0  0  0  0  0  0  0  0  # atno 6063 bound_to 1878
    1.2647   12.3222   10.9333 LP  0  0  0  0  0  0  0  0  0  0  0  0  # atno 6064 bound_to 1878
   -7.1381   15.7060   -0.1136 LP  0  0  0  0  0  0  0  0  0  0  0  0  # atno 6067 bound_to 957 
   -6.4647   15.8952   -1.5892 LP  0  0  0  0  0  0  0  0  0  0  0  0  # atno 6068 bound_to 957 

>  <STRIFE_LigEff_Score>  (181) 
2.302285

$$$$
unknown|pharmsElabsTestMulti|sdf|182|dock9
     RDKit          3D

 17 17  0  0  0  0  0  0  0  0999 V2000
    3.5998    8.4560    2.8629 C   0  0  0  0  0  0  0  0  0  0  0  0
    3.4624    9.8295    3.5163 C   0  0  0  0  0  0  0  0  0  0  0  0
    3.7715    9.7857    5.0143 C   0  0  0  0  0  0  0  0  0  0  0  0
    5.2112    9.3455    5.2840 C   0  0  0  0  0  0  0  0  0  0  0  0
    6.1791   10.4834    4.9743 C   0  0  0  0  0  0  0  0  0  0  0  0
    7.5277    9.9598    4.8035 N   0  0  0  0  0  0  0  0  0  0  0  0
    7.9644    9.3704    3.5755 C   0  0  0  0  0  0  0  0  0  0  0  0
    7.1966    9.3532    2.5709 O   0  0  0  0  0  0  0  0  0  0  0  0
    9.3566    8.8026    3.4755 C   0  0  0  0  0  0  0  0  0  0  0  0
    9.5842    8.2671    2.0667 C   0  0  0  0  0  0  0  0  0  0  0  0
   10.9261    7.5749    1.9167 C   0  0  0  0  0  0  0  0  0  0  0  0
   12.0951    8.2558    2.6532 C   0  0  0  0  0  0  0  0  0  0  0  0
   13.5189    8.0275    2.0337 C   0  0  0  0  0  0  0  0  0  0  0  0
   14.6375    7.6588    3.0198 C   0  0  0  0  0  0  0  0  0  0  0  0
   13.4947    7.0734    0.9191 N   0  0  0  0  0  0  0  0  0  0  0  0
   11.8442    9.5399    3.4712 C   0  0  0  0  0  0  0  0  0  0  0  0
   10.3840    9.8869    3.8185 C   0  0  0  0  0  0  0  0  0  0  0  0
  1  2  1  0
  2  3  1  0
  3  4  1  0
  4  5  1  0
  5  6  1  0
  6  7  1  0
  7  8  2  0
  7  9  1  0
  9 10  1  0
 10 11  1  0
 11 12  1  0
 12 13  1  0
 13 14  1  0
 13 15  1  0
 12 16  1  0
 16 17  1  0
 17  9  1  0
M  CHG  1  15   1
M  END
>  <EmbedRMS>  (182) 
0.16933320433084326

>  <Gold.Version>  (182) 
2020.3.0

>  <Gold.Id.Protein>  (182) 
unknown|1q8t_protein|pdb

>  <Gold.PLP.Fitness>  (182) 
53.5509

>  <Gold.PLP.PLP>  (182) 
-46.3845

>  <Gold.PLP.part.hbond>  (182) 
-1.9445

>  <Gold.PLP.part.metal>  (182) 
0.0000

>  <Gold.PLP.part.buried>  (182) 
-5.9562

>  <Gold.PLP.part.nonpolar>  (182) 
-39.2984

>  <Gold.PLP.part.repulsive>  (182) 
0.0535

>  <Gold.PLP.ligand.clash>  (182) 
0.0000

>  <Gold.PLP.ligand.torsion>  (182) 
1.1308

>  <Gold.PLP.Chemscore.Hbond>  (182) 
2.9280

>  <Gold.PLP.Chemscore.CHOScore>  (182) 
0.0000

>  <Gold.PLP.Chemscore.Metal>  (182) 
0.0000

>  <Gold.Chemscore.Hbonds>  (182) 
donor molecule, donor type, donor heavy atom, donor atom, acceptor molecule, acceptor atom, score
      L1  H    15    40       P1  2691  0.93
      L1  H    15    42       P1  2902  2.00

>  <Gold.PLP.Chemscore.Internal.Correction>  (182) 
0.6441

>  <Gold.PLP.Constraint>  (182) 
-0.0000

>  <Gold.Protein.RotatedTorsions>  (182) 
[  681  677  676  673 ] final  134.03 input -179.99 | X-H torsion
[  702  698  697  694 ] final -167.88 input  179.99 | X-H torsion
[ 2577 2569 2568 2566 ] final  158.00 input   -0.13 | X-H torsion
[ 2891 2887 2886 2883 ] final  -47.89 input  179.98 | X-H torsion
[ 3175 3171 3170 3167 ] final   15.48 input -179.99 | X-H torsion
[ 5278 5270 5269 5267 ] final -157.63 input    0.55 | X-H torsion
[  641  637  636  633 ] final  101.44 input  179.99 | X-H torsion
[ 1886 1878 1877 1875 ] final  -94.29 input    1.60 | X-H torsion
[  965  957  956  954 ] final  -83.97 input    0.45 | X-H torsion

>  <Gold.Protein.ActiveResidues>  (182) 
 LYS47   THR48   LEU49   GLY50   THR51   GLY52   SER53   PHE54   GLY55   ARG56  
 VAL57   MET58   LEU59   TYR69   ALA70   MET71   LYS72   ILE73   LEU74   GLU91  
 LEU95   VAL104  LYS105  MET118  VAL119  MET120  GLU121  TYR122  VAL123  PRO124 
 GLY125  GLY126  GLU127  MET128  PHE129  TYR164  ASP166  LEU167  LYS168  PRO169 
 GLU170  ASN171  LEU172  LEU173  ILE174  GLN181  VAL182  THR183  ASP184  PHE185 
 GLY186  PHE187  GLY200  THR201  ASN326  PHE327  TYR330  ARG18   ARG19   ASN20  
 ALA21   ILE22   HIS23  

>  <Gold.Protein.RotatedAtoms>  (182) 
   10.5012   19.7532    8.8637 H   0  0  0  0  0  0  0  0  0  0  0  0  # atno 641  bound_to 637 
   17.2524   13.5357    6.4895 H   0  0  0  0  0  0  0  0  0  0  0  0  # atno 681  bound_to 677 
   21.0554   11.5646   -1.4620 H   0  0  0  0  0  0  0  0  0  0  0  0  # atno 702  bound_to 698 
   -6.4377   16.4038   -1.5984 H   0  0  0  0  0  0  0  0  0  0  0  0  # atno 965  bound_to 957 
    1.2135   10.5603   10.6365 H   0  0  0  0  0  0  0  0  0  0  0  0  # atno 1886 bound_to 1878
   10.2693    1.9067   -2.3868 H   0  0  0  0  0  0  0  0  0  0  0  0  # atno 2577 bound_to 2569
    7.6082    5.1805    0.8479 H   0  0  0  0  0  0  0  0  0  0  0  0  # atno 2891 bound_to 2887
   18.9723    2.6191   -1.3383 H   0  0  0  0  0  0  0  0  0  0  0  0  # atno 3175 bound_to 3171
   14.4185   10.0062    9.7301 H   0  0  0  0  0  0  0  0  0  0  0  0  # atno 5278 bound_to 5270
   16.0170   12.5485    6.3017 LP  0  0  0  0  0  0  0  0  0  0  0  0  # atno 5914 bound_to 677 
   15.9986   13.7023    7.4571 LP  0  0  0  0  0  0  0  0  0  0  0  0  # atno 5915 bound_to 677 
   19.5062   11.8274   -1.7234 LP  0  0  0  0  0  0  0  0  0  0  0  0  # atno 5920 bound_to 698 
   20.0880   11.6950   -0.2033 LP  0  0  0  0  0  0  0  0  0  0  0  0  # atno 5921 bound_to 698 
    9.3181    2.9320   -3.1481 LP  0  0  0  0  0  0  0  0  0  0  0  0  # atno 5950 bound_to 2569
   10.9396    3.1247   -3.1630 LP  0  0  0  0  0  0  0  0  0  0  0  0  # atno 5951 bound_to 2569
    7.3070    6.5748    1.5562 LP  0  0  0  0  0  0  0  0  0  0  0  0  # atno 5982 bound_to 2887
    8.3607    6.4780    0.3125 LP  0  0  0  0  0  0  0  0  0  0  0  0  # atno 5983 bound_to 2887
   19.0469    2.9012    0.2271 LP  0  0  0  0  0  0  0  0  0  0  0  0  # atno 6000 bound_to 3171
   17.8747    1.9512   -0.3976 LP  0  0  0  0  0  0  0  0  0  0  0  0  # atno 6001 bound_to 3171
   13.1699   10.2144    8.7635 LP  0  0  0  0  0  0  0  0  0  0  0  0  # atno 6004 bound_to 5270
   12.9563    9.8246   10.3348 LP  0  0  0  0  0  0  0  0  0  0  0  0  # atno 6005 bound_to 5270
    9.6375   19.1985    7.6466 LP  0  0  0  0  0  0  0  0  0  0  0  0  # atno 6055 bound_to 637 
   11.2674   19.0994    7.6307 LP  0  0  0  0  0  0  0  0  0  0  0  0  # atno 6056 bound_to 637 
    0.8321   12.0424   11.0763 LP  0  0  0  0  0  0  0  0  0  0  0  0  # atno 6063 bound_to 1878
    2.2758   11.7194   10.3848 LP  0  0  0  0  0  0  0  0  0  0  0  0  # atno 6064 bound_to 1878
   -7.0586   17.0049   -0.2611 LP  0  0  0  0  0  0  0  0  0  0  0  0  # atno 6067 bound_to 957 
   -6.9693   15.3907   -0.4910 LP  0  0  0  0  0  0  0  0  0  0  0  0  # atno 6068 bound_to 957 

>  <STRIFE_LigEff_Score>  (182) 
3.1500529411764706

$$$$
unknown|pharmsElabsTestMulti|sdf|183|dock7
     RDKit          3D

 18 18  0  0  0  0  0  0  0  0999 V2000
    3.9072    9.9556    5.8898 C   0  0  0  0  0  0  0  0  0  0  0  0
    3.9078    9.6257    4.4336 C   0  0  0  0  0  0  0  0  0  0  0  0
    2.8309    9.6863    3.7803 O   0  0  0  0  0  0  0  0  0  0  0  0
    5.1351    9.2664    3.7840 N   0  0  0  0  0  0  0  0  0  0  0  0
    5.2081    8.9441    2.3604 C   0  0  0  0  0  0  0  0  0  0  0  0
    5.8359   10.0997    1.5656 C   0  0  0  0  0  0  0  0  0  0  0  0
    7.2750    9.8689    1.3708 N   0  0  0  0  0  0  0  0  0  0  0  0
    8.1147    9.5551    2.4944 C   0  0  0  0  0  0  0  0  0  0  0  0
    7.6261    9.5945    3.6508 O   0  0  0  0  0  0  0  0  0  0  0  0
    9.5546    9.1432    2.4219 C   0  0  0  0  0  0  0  0  0  0  0  0
    9.7900    7.6309    2.4002 C   0  0  0  0  0  0  0  0  0  0  0  0
   11.2713    7.2153    2.5117 C   0  0  0  0  0  0  0  0  0  0  0  0
   12.2002    8.3306    2.0066 C   0  0  0  0  0  0  0  0  0  0  0  0
   13.6838    7.9588    1.6999 C   0  0  0  0  0  0  0  0  0  0  0  0
   14.6618    9.1095    1.5334 C   0  0  0  0  0  0  0  0  0  0  0  0
   13.9216    6.8211    0.8181 N   0  0  0  0  0  0  0  0  0  0  0  0
   12.0440    9.5783    2.9000 C   0  0  0  0  0  0  0  0  0  0  0  0
   10.5884   10.0750    3.0341 C   0  0  0  0  0  0  0  0  0  0  0  0
  1  2  1  0
  2  3  2  0
  2  4  1  0
  4  5  1  0
  5  6  1  0
  6  7  1  0
  7  8  1  0
  8  9  2  0
  8 10  1  0
 10 11  1  0
 11 12  1  0
 12 13  1  0
 13 14  1  0
 14 15  1  0
 14 16  1  0
 13 17  1  0
 17 18  1  0
 18 10  1  0
M  CHG  1  16   1
M  END
>  <EmbedRMS>  (183) 
0.2509587523478319

>  <Gold.Version>  (183) 
2020.3.0

>  <Gold.Id.Protein>  (183) 
unknown|1q8t_protein|pdb

>  <Gold.PLP.Fitness>  (183) 
49.9414

>  <Gold.PLP.PLP>  (183) 
-38.8927

>  <Gold.PLP.part.hbond>  (183) 
-2.8521

>  <Gold.PLP.part.metal>  (183) 
0.0000

>  <Gold.PLP.part.buried>  (183) 
-4.8398

>  <Gold.PLP.part.nonpolar>  (183) 
-32.9117

>  <Gold.PLP.part.repulsive>  (183) 
0.2432

>  <Gold.PLP.ligand.clash>  (183) 
0.0000

>  <Gold.PLP.ligand.torsion>  (183) 
0.9631

>  <Gold.PLP.Chemscore.Hbond>  (183) 
3.9840

>  <Gold.PLP.Chemscore.CHOScore>  (183) 
0.0000

>  <Gold.PLP.Chemscore.Metal>  (183) 
0.0000

>  <Gold.Chemscore.Hbonds>  (183) 
donor molecule, donor type, donor heavy atom, donor atom, acceptor molecule, acceptor atom, score
      L1  H    16    39       P1  2691  0.99
      L1  H    16    40       P1  2902  2.00
      P1  H  1888  1903       L1     3  0.99

>  <Gold.PLP.Chemscore.Internal.Correction>  (183) 
1.0229

>  <Gold.PLP.Constraint>  (183) 
-0.0000

>  <Gold.Protein.RotatedTorsions>  (183) 
[  681  677  676  673 ] final    9.73 input -179.99 | X-H torsion
[  702  698  697  694 ] final  -22.26 input  179.99 | X-H torsion
[ 2577 2569 2568 2566 ] final   64.38 input   -0.13 | X-H torsion
[ 2891 2887 2886 2883 ] final -120.13 input  179.98 | X-H torsion
[ 3175 3171 3170 3167 ] final  -82.58 input -179.99 | X-H torsion
[ 5278 5270 5269 5267 ] final  -41.95 input    0.55 | X-H torsion
[  641  637  636  633 ] final  -71.76 input  179.99 | X-H torsion
[ 1886 1878 1877 1875 ] final  125.10 input    1.60 | X-H torsion
[  965  957  956  954 ] final  -70.94 input    0.45 | X-H torsion

>  <Gold.Protein.ActiveResidues>  (183) 
 LYS47   THR48   LEU49   GLY50   THR51   GLY52   SER53   PHE54   GLY55   ARG56  
 VAL57   MET58   LEU59   TYR69   ALA70   MET71   LYS72   ILE73   LEU74   GLU91  
 LEU95   VAL104  LYS105  MET118  VAL119  MET120  GLU121  TYR122  VAL123  PRO124 
 GLY125  GLY126  GLU127  MET128  PHE129  TYR164  ASP166  LEU167  LYS168  PRO169 
 GLU170  ASN171  LEU172  LEU173  ILE174  GLN181  VAL182  THR183  ASP184  PHE185 
 GLY186  PHE187  GLY200  THR201  ASN326  PHE327  TYR330  ARG18   ARG19   ASN20  
 ALA21   ILE22   HIS23  

>  <Gold.Protein.RotatedAtoms>  (183) 
   10.3307   18.9516    7.2752 H   0  0  0  0  0  0  0  0  0  0  0  0  # atno 641  bound_to 637 
   15.9789   12.6035    6.3542 H   0  0  0  0  0  0  0  0  0  0  0  0  # atno 681  bound_to 677 
   19.7340   11.7783   -0.3940 H   0  0  0  0  0  0  0  0  0  0  0  0  # atno 702  bound_to 698 
   -6.4362   16.2008   -1.6061 H   0  0  0  0  0  0  0  0  0  0  0  0  # atno 965  bound_to 957 
    1.0985   12.2096   10.9684 H   0  0  0  0  0  0  0  0  0  0  0  0  # atno 1886 bound_to 1878
    9.2848    2.5759   -2.9236 H   0  0  0  0  0  0  0  0  0  0  0  0  # atno 2577 bound_to 2569
    7.1548    5.8451    1.5323 H   0  0  0  0  0  0  0  0  0  0  0  0  # atno 2891 bound_to 2887
   19.2345    2.9805   -0.0616 H   0  0  0  0  0  0  0  0  0  0  0  0  # atno 3175 bound_to 3171
   13.0396    9.8412   10.3409 H   0  0  0  0  0  0  0  0  0  0  0  0  # atno 5278 bound_to 5270
   16.0554   13.7440    7.4631 LP  0  0  0  0  0  0  0  0  0  0  0  0  # atno 5914 bound_to 677 
   17.3005   13.4880    6.4380 LP  0  0  0  0  0  0  0  0  0  0  0  0  # atno 5915 bound_to 677 
   21.1554   11.5224   -1.0660 LP  0  0  0  0  0  0  0  0  0  0  0  0  # atno 5920 bound_to 698 
   19.8289   11.7753   -1.9841 LP  0  0  0  0  0  0  0  0  0  0  0  0  # atno 5921 bound_to 698 
   10.6153    3.3451   -3.3399 LP  0  0  0  0  0  0  0  0  0  0  0  0  # atno 5950 bound_to 2569
   10.6790    2.0070   -2.4061 LP  0  0  0  0  0  0  0  0  0  0  0  0  # atno 5951 bound_to 2569
    8.0331    6.9582    0.8070 LP  0  0  0  0  0  0  0  0  0  0  0  0  # atno 5982 bound_to 2887
    8.1118    5.3950    0.3414 LP  0  0  0  0  0  0  0  0  0  0  0  0  # atno 5983 bound_to 2887
   17.9443    2.0471   -0.0587 LP  0  0  0  0  0  0  0  0  0  0  0  0  # atno 6000 bound_to 3171
   18.7014    2.4249   -1.4554 LP  0  0  0  0  0  0  0  0  0  0  0  0  # atno 6001 bound_to 3171
   14.4717   10.0060    9.6636 LP  0  0  0  0  0  0  0  0  0  0  0  0  # atno 6004 bound_to 5270
   13.1053   10.2067    8.7921 LP  0  0  0  0  0  0  0  0  0  0  0  0  # atno 6005 bound_to 5270
   11.3479   19.4781    8.3811 LP  0  0  0  0  0  0  0  0  0  0  0  0  # atno 6055 bound_to 637 
    9.7365   19.6641    8.5691 LP  0  0  0  0  0  0  0  0  0  0  0  0  # atno 6056 bound_to 637 
    2.2988   11.3897   10.3184 LP  0  0  0  0  0  0  0  0  0  0  0  0  # atno 6063 bound_to 1878
    0.9302   10.6359   10.7932 LP  0  0  0  0  0  0  0  0  0  0  0  0  # atno 6064 bound_to 1878
   -6.9826   17.1188   -0.4255 LP  0  0  0  0  0  0  0  0  0  0  0  0  # atno 6067 bound_to 957 
   -7.0469   15.4906   -0.3185 LP  0  0  0  0  0  0  0  0  0  0  0  0  # atno 6068 bound_to 957 

>  <STRIFE_LigEff_Score>  (183) 
2.774522222222222

$$$$
unknown|pharmsElabsTestMulti|sdf|184|dock9
     RDKit          3D

 17 17  0  0  0  0  0  0  0  0999 V2000
   13.8135    7.1558    3.7655 C   0  0  0  0  0  0  0  0  0  0  0  0
   13.0735    7.8166    2.5928 C   0  0  0  0  0  0  0  0  0  0  0  0
   13.3835    7.1155    1.3417 N   0  0  0  0  0  0  0  0  0  0  0  0
   11.5324    8.0408    2.7835 C   0  0  0  0  0  0  0  0  0  0  0  0
   10.6269    7.4243    1.7006 C   0  0  0  0  0  0  0  0  0  0  0  0
    9.3043    8.1361    1.4917 C   0  0  0  0  0  0  0  0  0  0  0  0
    8.6799    8.5978    2.8018 C   0  0  0  0  0  0  0  0  0  0  0  0
    7.3227    9.1840    2.5258 C   0  0  0  0  0  0  0  0  0  0  0  0
    6.8426    9.1592    1.3560 O   0  0  0  0  0  0  0  0  0  0  0  0
    6.5933    9.7933    3.5916 N   0  0  0  0  0  0  0  0  0  0  0  0
    5.2657   10.3506    3.3932 C   0  0  0  0  0  0  0  0  0  0  0  0
    4.1167    9.5135    4.0390 C   0  0  0  0  0  0  0  0  0  0  0  0
    3.7960    8.3189    3.1667 C   0  0  0  0  0  0  0  0  0  0  0  0
    4.0002    9.8059    5.5209 C   0  0  0  0  0  0  0  0  0  0  0  0
    2.9151    9.8503    3.9150 O   0  0  0  0  0  0  0  0  0  0  0  0
    9.5636    9.6419    3.4919 C   0  0  0  0  0  0  0  0  0  0  0  0
   11.0599    9.2847    3.5649 C   0  0  0  0  0  0  0  0  0  0  0  0
  1  2  1  0
  2  3  1  0
  2  4  1  0
  4  5  1  0
  5  6  1  0
  6  7  1  0
  7  8  1  0
  8  9  2  0
  8 10  1  0
 10 11  1  0
 11 12  1  0
 12 13  1  0
 12 14  1  0
 12 15  1  0
  7 16  1  0
 16 17  1  0
 17  4  1  0
M  CHG  1   3   1
M  END
>  <EmbedRMS>  (184) 
0.6861464654853324

>  <Gold.Version>  (184) 
2020.3.0

>  <Gold.Id.Protein>  (184) 
unknown|1q8t_protein|pdb

>  <Gold.PLP.Fitness>  (184) 
53.1644

>  <Gold.PLP.PLP>  (184) 
-42.9564

>  <Gold.PLP.part.hbond>  (184) 
-3.7663

>  <Gold.PLP.part.metal>  (184) 
0.0000

>  <Gold.PLP.part.buried>  (184) 
-3.1593

>  <Gold.PLP.part.nonpolar>  (184) 
-36.6761

>  <Gold.PLP.part.repulsive>  (184) 
0.0343

>  <Gold.PLP.ligand.clash>  (184) 
0.0000

>  <Gold.PLP.ligand.torsion>  (184) 
1.3671

>  <Gold.PLP.Chemscore.Hbond>  (184) 
4.0000

>  <Gold.PLP.Chemscore.CHOScore>  (184) 
0.0000

>  <Gold.PLP.Chemscore.Metal>  (184) 
0.0000

>  <Gold.Chemscore.Hbonds>  (184) 
donor molecule, donor type, donor heavy atom, donor atom, acceptor molecule, acceptor atom, score
      L1  H     3    23       P1  2902  2.00
      L1  H     3    24       P1  2691  1.00
      P1  H  1888  1903       L1    15  1.00

>  <Gold.PLP.Chemscore.Internal.Correction>  (184) 
0.9422

>  <Gold.PLP.Constraint>  (184) 
-0.0000

>  <Gold.Protein.RotatedTorsions>  (184) 
[  681  677  676  673 ] final   -1.54 input -179.99 | X-H torsion
[  702  698  697  694 ] final  139.91 input  179.99 | X-H torsion
[ 2577 2569 2568 2566 ] final -160.87 input   -0.13 | X-H torsion
[ 2891 2887 2886 2883 ] final   14.64 input  179.98 | X-H torsion
[ 3175 3171 3170 3167 ] final  167.75 input -179.99 | X-H torsion
[ 5278 5270 5269 5267 ] final  145.04 input    0.55 | X-H torsion
[  641  637  636  633 ] final  -94.36 input  179.99 | X-H torsion
[ 1886 1878 1877 1875 ] final  170.83 input    1.60 | X-H torsion
[  965  957  956  954 ] final  127.96 input    0.45 | X-H torsion

>  <Gold.Protein.ActiveResidues>  (184) 
 LYS47   THR48   LEU49   GLY50   THR51   GLY52   SER53   PHE54   GLY55   ARG56  
 VAL57   MET58   LEU59   TYR69   ALA70   MET71   LYS72   ILE73   LEU74   GLU91  
 LEU95   VAL104  LYS105  MET118  VAL119  MET120  GLU121  TYR122  VAL123  PRO124 
 GLY125  GLY126  GLU127  MET128  PHE129  TYR164  ASP166  LEU167  LYS168  PRO169 
 GLU170  ASN171  LEU172  LEU173  ILE174  GLN181  VAL182  THR183  ASP184  PHE185 
 GLY186  PHE187  GLY200  THR201  ASN326  PHE327  TYR330  ARG18   ARG19   ASN20  
 ALA21   ILE22   HIS23  

>  <Gold.Protein.RotatedAtoms>  (184) 
   10.6809   18.9428    7.2963 H   0  0  0  0  0  0  0  0  0  0  0  0  # atno 641  bound_to 637 
   15.8542   12.6438    6.4714 H   0  0  0  0  0  0  0  0  0  0  0  0  # atno 681  bound_to 677 
   20.4845   11.6761   -1.9947 H   0  0  0  0  0  0  0  0  0  0  0  0  # atno 702  bound_to 698 
   -7.1434   16.6223   -0.0433 H   0  0  0  0  0  0  0  0  0  0  0  0  # atno 965  bound_to 957 
    0.6619   11.6775   11.0702 H   0  0  0  0  0  0  0  0  0  0  0  0  # atno 1886 bound_to 1878
   10.8315    2.1560   -2.5187 H   0  0  0  0  0  0  0  0  0  0  0  0  # atno 2577 bound_to 2569
    8.1964    5.6094    0.2692 H   0  0  0  0  0  0  0  0  0  0  0  0  # atno 2891 bound_to 2887
   18.0542    2.1212    0.0524 H   0  0  0  0  0  0  0  0  0  0  0  0  # atno 3175 bound_to 3171
   14.1084   10.1952    8.9510 H   0  0  0  0  0  0  0  0  0  0  0  0  # atno 5278 bound_to 5270
   16.2138   13.8396    7.4599 LP  0  0  0  0  0  0  0  0  0  0  0  0  # atno 5914 bound_to 677 
   17.2734   13.3499    6.3179 LP  0  0  0  0  0  0  0  0  0  0  0  0  # atno 5915 bound_to 677 
   19.3269   11.8436   -0.9134 LP  0  0  0  0  0  0  0  0  0  0  0  0  # atno 5920 bound_to 698 
   20.8680   11.5615   -0.4529 LP  0  0  0  0  0  0  0  0  0  0  0  0  # atno 5921 bound_to 698 
    9.2769    2.3876   -2.7731 LP  0  0  0  0  0  0  0  0  0  0  0  0  # atno 5950 bound_to 2569
   10.3889    3.4066   -3.3992 LP  0  0  0  0  0  0  0  0  0  0  0  0  # atno 5951 bound_to 2569
    7.1682    5.6086    1.4855 LP  0  0  0  0  0  0  0  0  0  0  0  0  # atno 5982 bound_to 2887
    7.8804    6.9928    0.9922 LP  0  0  0  0  0  0  0  0  0  0  0  0  # atno 5983 bound_to 2887
   18.5644    2.3252   -1.4422 LP  0  0  0  0  0  0  0  0  0  0  0  0  # atno 6000 bound_to 3171
   19.3235    3.0512   -0.1918 LP  0  0  0  0  0  0  0  0  0  0  0  0  # atno 6001 bound_to 3171
   12.6025   10.0402    9.4460 LP  0  0  0  0  0  0  0  0  0  0  0  0  # atno 6004 bound_to 5270
   13.8499    9.8001   10.4721 LP  0  0  0  0  0  0  0  0  0  0  0  0  # atno 6005 bound_to 5270
   11.1501   19.6287    8.6544 LP  0  0  0  0  0  0  0  0  0  0  0  0  # atno 6055 bound_to 637 
    9.5657   19.5227    8.2736 LP  0  0  0  0  0  0  0  0  0  0  0  0  # atno 6056 bound_to 637 
    2.1043   12.0667   10.5196 LP  0  0  0  0  0  0  0  0  0  0  0  0  # atno 6063 bound_to 1878
    1.5843   10.5191   10.4849 LP  0  0  0  0  0  0  0  0  0  0  0  0  # atno 6064 bound_to 1878
   -6.7818   15.3326   -0.9042 LP  0  0  0  0  0  0  0  0  0  0  0  0  # atno 6067 bound_to 957 
   -6.5029   16.8328   -1.4857 LP  0  0  0  0  0  0  0  0  0  0  0  0  # atno 6068 bound_to 957 

>  <STRIFE_LigEff_Score>  (184) 
3.1273176470588235

$$$$
unknown|pharmsElabsTestMulti|sdf|185|dock2
     RDKit          3D

 15 15  0  0  0  0  0  0  0  0999 V2000
   13.9963    9.2175    2.1451 C   0  0  0  0  0  0  0  0  0  0  0  0
   13.0059    8.0747    2.0008 C   0  0  0  0  0  0  0  0  0  0  0  0
   13.3140    7.1155    0.9478 N   0  0  0  0  0  0  0  0  0  0  0  0
   11.5057    8.4146    2.2389 C   0  0  0  0  0  0  0  0  0  0  0  0
   10.5032    7.2556    2.3847 C   0  0  0  0  0  0  0  0  0  0  0  0
    9.0927    7.8110    2.1237 C   0  0  0  0  0  0  0  0  0  0  0  0
    8.7597    8.9432    3.1131 C   0  0  0  0  0  0  0  0  0  0  0  0
    7.4065    9.5301    2.8205 C   0  0  0  0  0  0  0  0  0  0  0  0
    7.1553   10.0458    1.6945 O   0  0  0  0  0  0  0  0  0  0  0  0
    6.4143    9.5203    3.8481 N   0  0  0  0  0  0  0  0  0  0  0  0
    5.0666   10.0303    3.6251 C   0  0  0  0  0  0  0  0  0  0  0  0
    4.0667    9.3133    4.5312 C   0  0  0  0  0  0  0  0  0  0  0  0
    2.7009    9.5729    4.0856 N   0  0  0  0  0  0  0  0  0  0  0  0
    9.8309   10.0504    3.1421 C   0  0  0  0  0  0  0  0  0  0  0  0
   11.2394    9.4684    3.3283 C   0  0  0  0  0  0  0  0  0  0  0  0
  1  2  1  0
  2  3  1  0
  2  4  1  0
  4  5  1  0
  5  6  1  0
  6  7  1  0
  7  8  1  0
  8  9  2  0
  8 10  1  0
 10 11  1  0
 11 12  1  0
 12 13  1  0
  7 14  1  0
 14 15  1  0
 15  4  1  0
M  CHG  1   3   1
M  END
>  <EmbedRMS>  (185) 
0.19998376465474313

>  <Gold.Version>  (185) 
2020.3.0

>  <Gold.Id.Protein>  (185) 
unknown|1q8t_protein|pdb

>  <Gold.PLP.Fitness>  (185) 
39.3636

>  <Gold.PLP.PLP>  (185) 
-27.9451

>  <Gold.PLP.part.hbond>  (185) 
-2.9090

>  <Gold.PLP.part.metal>  (185) 
0.0000

>  <Gold.PLP.part.buried>  (185) 
-0.7466

>  <Gold.PLP.part.nonpolar>  (185) 
-25.2048

>  <Gold.PLP.part.repulsive>  (185) 
0.0462

>  <Gold.PLP.ligand.clash>  (185) 
0.0000

>  <Gold.PLP.ligand.torsion>  (185) 
0.4945

>  <Gold.PLP.Chemscore.Hbond>  (185) 
4.0000

>  <Gold.PLP.Chemscore.CHOScore>  (185) 
0.0000

>  <Gold.PLP.Chemscore.Metal>  (185) 
0.0000

>  <Gold.Chemscore.Hbonds>  (185) 
donor molecule, donor type, donor heavy atom, donor atom, acceptor molecule, acceptor atom, score
      L1  H     3    21       P1  2691  1.00
      L1  H     3    22       P1  2902  2.00
      P1  H  1888  1903       L1    13  1.00

>  <Gold.PLP.Chemscore.Internal.Correction>  (185) 
0.4074

>  <Gold.PLP.Constraint>  (185) 
-0.0000

>  <Gold.Protein.RotatedTorsions>  (185) 
[  681  677  676  673 ] final  -72.91 input -179.99 | X-H torsion
[  702  698  697  694 ] final   80.82 input  179.99 | X-H torsion
[ 2577 2569 2568 2566 ] final -141.19 input   -0.13 | X-H torsion
[ 2891 2887 2886 2883 ] final  -92.69 input  179.98 | X-H torsion
[ 3175 3171 3170 3167 ] final  177.18 input -179.99 | X-H torsion
[ 5278 5270 5269 5267 ] final -163.48 input    0.55 | X-H torsion
[  641  637  636  633 ] final -113.30 input  179.99 | X-H torsion
[ 1886 1878 1877 1875 ] final   83.51 input    1.60 | X-H torsion
[  965  957  956  954 ] final -125.64 input    0.45 | X-H torsion

>  <Gold.Protein.ActiveResidues>  (185) 
 LYS47   THR48   LEU49   GLY50   THR51   GLY52   SER53   PHE54   GLY55   ARG56  
 VAL57   MET58   LEU59   TYR69   ALA70   MET71   LYS72   ILE73   LEU74   GLU91  
 LEU95   VAL104  LYS105  MET118  VAL119  MET120  GLU121  TYR122  VAL123  PRO124 
 GLY125  GLY126  GLU127  MET128  PHE129  TYR164  ASP166  LEU167  LYS168  PRO169 
 GLU170  ASN171  LEU172  LEU173  ILE174  GLN181  VAL182  THR183  ASP184  PHE185 
 GLY186  PHE187  GLY200  THR201  ASN326  PHE327  TYR330  ARG18   ARG19   ASN20  
 ALA21   ILE22   HIS23  

>  <Gold.Protein.RotatedAtoms>  (185) 
   10.9513   18.9836    7.4058 H   0  0  0  0  0  0  0  0  0  0  0  0  # atno 641  bound_to 637 
   15.6970   13.3272    7.2464 H   0  0  0  0  0  0  0  0  0  0  0  0  # atno 681  bound_to 677 
   19.6364   11.8226   -1.7935 H   0  0  0  0  0  0  0  0  0  0  0  0  # atno 702  bound_to 698 
   -6.5633   16.9580   -1.3108 H   0  0  0  0  0  0  0  0  0  0  0  0  # atno 965  bound_to 957 
    1.6809   12.2867   10.7248 H   0  0  0  0  0  0  0  0  0  0  0  0  # atno 1886 bound_to 1878
   10.9987    2.3721   -2.6565 H   0  0  0  0  0  0  0  0  0  0  0  0  # atno 2577 bound_to 2569
    7.2414    5.4745    1.3431 H   0  0  0  0  0  0  0  0  0  0  0  0  # atno 2891 bound_to 2887
   18.1303    2.1913    0.1570 H   0  0  0  0  0  0  0  0  0  0  0  0  # atno 3175 bound_to 3171
   14.4258   10.0281    9.6416 H   0  0  0  0  0  0  0  0  0  0  0  0  # atno 5278 bound_to 5270
   17.1566   13.8575    6.8935 LP  0  0  0  0  0  0  0  0  0  0  0  0  # atno 5914 bound_to 677 
   16.4960   12.6127    6.0686 LP  0  0  0  0  0  0  0  0  0  0  0  0  # atno 5915 bound_to 677 
   19.9508   11.7199   -0.2353 LP  0  0  0  0  0  0  0  0  0  0  0  0  # atno 5920 bound_to 698 
   21.1361   11.5312   -1.3426 LP  0  0  0  0  0  0  0  0  0  0  0  0  # atno 5921 bound_to 698 
    9.4221    2.1564   -2.6019 LP  0  0  0  0  0  0  0  0  0  0  0  0  # atno 5950 bound_to 2569
   10.0677    3.4102   -3.4252 LP  0  0  0  0  0  0  0  0  0  0  0  0  # atno 5951 bound_to 2569
    7.7428    6.9734    1.1469 LP  0  0  0  0  0  0  0  0  0  0  0  0  # atno 5982 bound_to 2887
    8.3109    5.7699    0.2006 LP  0  0  0  0  0  0  0  0  0  0  0  0  # atno 5983 bound_to 2887
   18.4414    2.2391   -1.4040 LP  0  0  0  0  0  0  0  0  0  0  0  0  # atno 6000 bound_to 3171
   19.3663    3.0635   -0.3402 LP  0  0  0  0  0  0  0  0  0  0  0  0  # atno 6001 bound_to 3171
   13.0829   10.2037    8.8034 LP  0  0  0  0  0  0  0  0  0  0  0  0  # atno 6004 bound_to 5270
   13.0355    9.8123   10.3881 LP  0  0  0  0  0  0  0  0  0  0  0  0  # atno 6005 bound_to 5270
   10.9020   19.7242    8.8143 LP  0  0  0  0  0  0  0  0  0  0  0  0  # atno 6055 bound_to 637 
    9.5289   19.3843    7.9984 LP  0  0  0  0  0  0  0  0  0  0  0  0  # atno 6056 bound_to 637 
    2.0215   10.7805   10.3367 LP  0  0  0  0  0  0  0  0  0  0  0  0  # atno 6063 bound_to 1878
    0.5943   11.1639   11.0313 LP  0  0  0  0  0  0  0  0  0  0  0  0  # atno 6064 bound_to 1878
   -7.2041   16.4269    0.0465 LP  0  0  0  0  0  0  0  0  0  0  0  0  # atno 6067 bound_to 957 
   -6.6915   15.3849   -1.1015 LP  0  0  0  0  0  0  0  0  0  0  0  0  # atno 6068 bound_to 957 

>  <STRIFE_LigEff_Score>  (185) 
2.62424

$$$$
unknown|pharmsElabsTestMulti|sdf|186|dock1
     RDKit          3D

 17 17  0  0  0  0  0  0  0  0999 V2000
    3.6663    9.2894    2.4453 C   0  0  0  0  0  0  0  0  0  0  0  0
    5.1183    8.8848    2.6870 C   0  0  0  0  0  0  0  0  0  0  0  0
    5.7555    9.6946    3.8372 C   0  0  0  0  0  0  0  0  0  0  0  0
    5.0417    9.4890    5.1901 C   0  0  0  0  0  0  0  0  0  0  0  0
    3.6921   10.2097    5.3008 C   0  0  0  0  0  0  0  0  0  0  0  0
    7.1750    9.3678    3.9706 N   0  0  0  0  0  0  0  0  0  0  0  0
    8.0818    9.3697    2.8681 C   0  0  0  0  0  0  0  0  0  0  0  0
    7.7030    9.7502    1.7246 O   0  0  0  0  0  0  0  0  0  0  0  0
    9.5040    8.9534    3.1105 C   0  0  0  0  0  0  0  0  0  0  0  0
    9.8082    7.6140    2.4167 C   0  0  0  0  0  0  0  0  0  0  0  0
   11.2823    7.2231    2.6130 C   0  0  0  0  0  0  0  0  0  0  0  0
   12.1543    8.3487    2.0280 C   0  0  0  0  0  0  0  0  0  0  0  0
   13.6369    8.0331    1.6758 C   0  0  0  0  0  0  0  0  0  0  0  0
   14.5451    9.2229    1.4168 C   0  0  0  0  0  0  0  0  0  0  0  0
   13.8906    6.8650    0.8421 N   0  0  0  0  0  0  0  0  0  0  0  0
   11.9348    9.6433    2.8303 C   0  0  0  0  0  0  0  0  0  0  0  0
   10.4696   10.0811    2.6996 C   0  0  0  0  0  0  0  0  0  0  0  0
  1  2  1  0
  2  3  1  0
  3  4  1  0
  4  5  1  0
  3  6  1  0
  6  7  1  0
  7  8  2  0
  7  9  1  0
  9 10  1  0
 10 11  1  0
 11 12  1  0
 12 13  1  0
 13 14  1  0
 13 15  1  0
 12 16  1  0
 16 17  1  0
 17  9  1  0
M  CHG  1  15   1
M  END
>  <EmbedRMS>  (186) 
0.18933276762833356

>  <Gold.Version>  (186) 
2020.3.0

>  <Gold.Id.Protein>  (186) 
unknown|1q8t_protein|pdb

>  <Gold.PLP.Fitness>  (186) 
50.7075

>  <Gold.PLP.PLP>  (186) 
-41.7926

>  <Gold.PLP.part.hbond>  (186) 
-1.9198

>  <Gold.PLP.part.metal>  (186) 
0.0000

>  <Gold.PLP.part.buried>  (186) 
-2.8674

>  <Gold.PLP.part.nonpolar>  (186) 
-37.9957

>  <Gold.PLP.part.repulsive>  (186) 
0.0845

>  <Gold.PLP.ligand.clash>  (186) 
0.0000

>  <Gold.PLP.ligand.torsion>  (186) 
0.5187

>  <Gold.PLP.Chemscore.Hbond>  (186) 
3.0000

>  <Gold.PLP.Chemscore.CHOScore>  (186) 
0.0000

>  <Gold.PLP.Chemscore.Metal>  (186) 
0.0000

>  <Gold.Chemscore.Hbonds>  (186) 
donor molecule, donor type, donor heavy atom, donor atom, acceptor molecule, acceptor atom, score
      L1  H    15    41       P1  2902  2.00
      L1  H    15    42       P1  2691  1.00

>  <Gold.PLP.Chemscore.Internal.Correction>  (186) 
0.9522

>  <Gold.PLP.Constraint>  (186) 
-0.0000

>  <Gold.Protein.RotatedTorsions>  (186) 
[  681  677  676  673 ] final   73.22 input -179.99 | X-H torsion
[  702  698  697  694 ] final -125.29 input  179.99 | X-H torsion
[ 2577 2569 2568 2566 ] final  127.28 input   -0.13 | X-H torsion
[ 2891 2887 2886 2883 ] final   10.20 input  179.98 | X-H torsion
[ 3175 3171 3170 3167 ] final  -92.61 input -179.99 | X-H torsion
[ 5278 5270 5269 5267 ] final  -94.49 input    0.55 | X-H torsion
[  641  637  636  633 ] final  -36.66 input  179.99 | X-H torsion
[ 1886 1878 1877 1875 ] final  -55.11 input    1.60 | X-H torsion
[  965  957  956  954 ] final   80.34 input    0.45 | X-H torsion

>  <Gold.Protein.ActiveResidues>  (186) 
 LYS47   THR48   LEU49   GLY50   THR51   GLY52   SER53   PHE54   GLY55   ARG56  
 VAL57   MET58   LEU59   TYR69   ALA70   MET71   LYS72   ILE73   LEU74   GLU91  
 LEU95   VAL104  LYS105  MET118  VAL119  MET120  GLU121  TYR122  VAL123  PRO124 
 GLY125  GLY126  GLU127  MET128  PHE129  TYR164  ASP166  LEU167  LYS168  PRO169 
 GLU170  ASN171  LEU172  LEU173  ILE174  GLN181  VAL182  THR183  ASP184  PHE185 
 GLY186  PHE187  GLY200  THR201  ASN326  PHE327  TYR330  ARG18   ARG19   ASN20  
 ALA21   ILE22   HIS23  

>  <Gold.Protein.RotatedAtoms>  (186) 
    9.8479   19.0822    7.4782 H   0  0  0  0  0  0  0  0  0  0  0  0  # atno 641  bound_to 637 
   16.8412   12.8490    6.0634 H   0  0  0  0  0  0  0  0  0  0  0  0  # atno 681  bound_to 677 
   21.0545   11.5522   -0.8112 H   0  0  0  0  0  0  0  0  0  0  0  0  # atno 702  bound_to 698 
   -7.1462   15.8993   -0.0523 H   0  0  0  0  0  0  0  0  0  0  0  0  # atno 965  bound_to 957 
    1.7628   10.6434   10.4084 H   0  0  0  0  0  0  0  0  0  0  0  0  # atno 1886 bound_to 1878
    9.8022    1.9550   -2.4546 H   0  0  0  0  0  0  0  0  0  0  0  0  # atno 2577 bound_to 2569
    8.1648    5.5519    0.2921 H   0  0  0  0  0  0  0  0  0  0  0  0  # atno 2891 bound_to 2887
   19.1531    2.9368    0.0649 H   0  0  0  0  0  0  0  0  0  0  0  0  # atno 3175 bound_to 3171
   13.8270    9.8260   10.4357 H   0  0  0  0  0  0  0  0  0  0  0  0  # atno 5278 bound_to 5270
   15.5763   12.9971    7.0195 LP  0  0  0  0  0  0  0  0  0  0  0  0  # atno 5914 bound_to 677 
   16.8720   13.9765    7.1877 LP  0  0  0  0  0  0  0  0  0  0  0  0  # atno 5915 bound_to 677 
   20.0907   11.7305   -2.0668 LP  0  0  0  0  0  0  0  0  0  0  0  0  # atno 5920 bound_to 698 
   19.5045   11.8050   -0.5445 LP  0  0  0  0  0  0  0  0  0  0  0  0  # atno 5921 bound_to 698 
    9.6353    3.2595   -3.3522 LP  0  0  0  0  0  0  0  0  0  0  0  0  # atno 5950 bound_to 2569
   11.1143    2.7463   -2.8875 LP  0  0  0  0  0  0  0  0  0  0  0  0  # atno 5951 bound_to 2569
    7.1542    5.6730    1.5171 LP  0  0  0  0  0  0  0  0  0  0  0  0  # atno 5982 bound_to 2887
    7.9276    6.9889    0.9365 LP  0  0  0  0  0  0  0  0  0  0  0  0  # atno 5983 bound_to 2887
   17.8992    1.9941   -0.2081 LP  0  0  0  0  0  0  0  0  0  0  0  0  # atno 6000 bound_to 3171
   18.8321    2.5239   -1.4391 LP  0  0  0  0  0  0  0  0  0  0  0  0  # atno 6001 bound_to 3171
   14.1446   10.1867    8.9172 LP  0  0  0  0  0  0  0  0  0  0  0  0  # atno 6004 bound_to 5270
   12.6039   10.0420    9.4387 LP  0  0  0  0  0  0  0  0  0  0  0  0  # atno 6005 bound_to 5270
   11.3834   19.2185    7.8766 LP  0  0  0  0  0  0  0  0  0  0  0  0  # atno 6055 bound_to 637 
   10.2096   19.7861    8.8598 LP  0  0  0  0  0  0  0  0  0  0  0  0  # atno 6056 bound_to 637 
    0.5794   11.4630   11.0889 LP  0  0  0  0  0  0  0  0  0  0  0  0  # atno 6063 bound_to 1878
    1.9502   12.2114   10.6122 LP  0  0  0  0  0  0  0  0  0  0  0  0  # atno 6064 bound_to 1878
   -6.5072   15.7197   -1.4995 LP  0  0  0  0  0  0  0  0  0  0  0  0  # atno 6067 bound_to 957 
   -6.7746   17.2071   -0.8809 LP  0  0  0  0  0  0  0  0  0  0  0  0  # atno 6068 bound_to 957 

>  <STRIFE_LigEff_Score>  (186) 
2.982794117647059

$$$$
unknown|pharmsElabsTestMulti|sdf|187|dock9
     RDKit          3D

 17 17  0  0  0  0  0  0  0  0999 V2000
   15.2142    7.7359    2.9017 C   0  0  0  0  0  0  0  0  0  0  0  0
   14.0721    7.9332    1.8935 C   0  0  0  0  0  0  0  0  0  0  0  0
   14.0956    6.8635    0.8893 N   0  0  0  0  0  0  0  0  0  0  0  0
   12.6408    8.1493    2.4999 C   0  0  0  0  0  0  0  0  0  0  0  0
   11.5089    7.3258    1.8570 C   0  0  0  0  0  0  0  0  0  0  0  0
   10.1315    7.9560    1.9404 C   0  0  0  0  0  0  0  0  0  0  0  0
    9.8788    8.6310    3.2826 C   0  0  0  0  0  0  0  0  0  0  0  0
    8.4555    9.1254    3.3327 C   0  0  0  0  0  0  0  0  0  0  0  0
    8.1006    9.9643    4.2092 O   0  0  0  0  0  0  0  0  0  0  0  0
    7.5029    8.6236    2.3962 N   0  0  0  0  0  0  0  0  0  0  0  0
    6.1143    9.0716    2.4088 C   0  0  0  0  0  0  0  0  0  0  0  0
    5.5501    9.0092    3.8241 C   0  0  0  0  0  0  0  0  0  0  0  0
    4.3188    9.8207    3.9166 N   0  0  0  0  0  0  0  0  0  0  0  0
    3.8001    9.7953    5.2929 C   0  0  0  0  0  0  0  0  0  0  0  0
    3.2963    9.2869    3.0070 C   0  0  0  0  0  0  0  0  0  0  0  0
   10.8446    9.8021    3.4949 C   0  0  0  0  0  0  0  0  0  0  0  0
   12.3209    9.5006    3.1730 C   0  0  0  0  0  0  0  0  0  0  0  0
  1  2  1  0
  2  3  1  0
  2  4  1  0
  4  5  1  0
  5  6  1  0
  6  7  1  0
  7  8  1  0
  8  9  2  0
  8 10  1  0
 10 11  1  0
 11 12  1  0
 12 13  1  0
 13 14  1  0
 13 15  1  0
  7 16  1  0
 16 17  1  0
 17  4  1  0
M  CHG  1   3   1
M  END
>  <EmbedRMS>  (187) 
0.1707968305671159

>  <Gold.Version>  (187) 
2020.3.0

>  <Gold.Id.Protein>  (187) 
unknown|1q8t_protein|pdb

>  <Gold.PLP.Fitness>  (187) 
48.4410

>  <Gold.PLP.PLP>  (187) 
-38.6154

>  <Gold.PLP.part.hbond>  (187) 
-3.0000

>  <Gold.PLP.part.metal>  (187) 
0.0000

>  <Gold.PLP.part.buried>  (187) 
-4.1433

>  <Gold.PLP.part.nonpolar>  (187) 
-31.6795

>  <Gold.PLP.part.repulsive>  (187) 
0.1701

>  <Gold.PLP.ligand.clash>  (187) 
0.0000

>  <Gold.PLP.ligand.torsion>  (187) 
1.4215

>  <Gold.PLP.Chemscore.Hbond>  (187) 
3.9920

>  <Gold.PLP.Chemscore.CHOScore>  (187) 
0.0000

>  <Gold.PLP.Chemscore.Metal>  (187) 
0.0000

>  <Gold.Chemscore.Hbonds>  (187) 
donor molecule, donor type, donor heavy atom, donor atom, acceptor molecule, acceptor atom, score
      L1  H     3    23       P1  2691  1.00
      L1  H     3    24       P1  2902  2.00
      L1  H    10    31       P1  2887  0.99

>  <Gold.PLP.Chemscore.Internal.Correction>  (187) 
0.6927

>  <Gold.PLP.Constraint>  (187) 
-0.0000

>  <Gold.Protein.RotatedTorsions>  (187) 
[  681  677  676  673 ] final   26.34 input -179.99 | X-H torsion
[  702  698  697  694 ] final   45.47 input  179.99 | X-H torsion
[ 2577 2569 2568 2566 ] final   50.23 input   -0.13 | X-H torsion
[ 2891 2887 2886 2883 ] final   10.26 input  179.98 | X-H torsion
[ 3175 3171 3170 3167 ] final   42.82 input -179.99 | X-H torsion
[ 5278 5270 5269 5267 ] final  134.85 input    0.55 | X-H torsion
[  641  637  636  633 ] final   88.25 input  179.99 | X-H torsion
[ 1886 1878 1877 1875 ] final   51.42 input    1.60 | X-H torsion
[  965  957  956  954 ] final   -3.27 input    0.45 | X-H torsion

>  <Gold.Protein.ActiveResidues>  (187) 
 LYS47   THR48   LEU49   GLY50   THR51   GLY52   SER53   PHE54   GLY55   ARG56  
 VAL57   MET58   LEU59   TYR69   ALA70   MET71   LYS72   ILE73   LEU74   GLU91  
 LEU95   VAL104  LYS105  MET118  VAL119  MET120  GLU121  TYR122  VAL123  PRO124 
 GLY125  GLY126  GLU127  MET128  PHE129  TYR164  ASP166  LEU167  LYS168  PRO169 
 GLU170  ASN171  LEU172  LEU173  ILE174  GLN181  VAL182  THR183  ASP184  PHE185 
 GLY186  PHE187  GLY200  THR201  ASN326  PHE327  TYR330  ARG18   ARG19   ASN20  
 ALA21   ILE22   HIS23  

>  <Gold.Protein.RotatedAtoms>  (187) 
   10.2964   19.7549    8.8446 H   0  0  0  0  0  0  0  0  0  0  0  0  # atno 641  bound_to 637 
   16.1931   12.5913    6.2095 H   0  0  0  0  0  0  0  0  0  0  0  0  # atno 681  bound_to 677 
   19.3700   11.8607   -1.3205 H   0  0  0  0  0  0  0  0  0  0  0  0  # atno 702  bound_to 698 
   -6.6977   15.4172   -1.0479 H   0  0  0  0  0  0  0  0  0  0  0  0  # atno 965  bound_to 957 
    2.0587   12.0437   10.5168 H   0  0  0  0  0  0  0  0  0  0  0  0  # atno 1886 bound_to 1878
    9.3034    2.7570   -3.0480 H   0  0  0  0  0  0  0  0  0  0  0  0  # atno 2577 bound_to 2569
    8.1653    5.5527    0.2917 H   0  0  0  0  0  0  0  0  0  0  0  0  # atno 2891 bound_to 2887
   18.6403    2.3646   -1.4038 H   0  0  0  0  0  0  0  0  0  0  0  0  # atno 3175 bound_to 3171
   13.9782   10.2158    8.8619 H   0  0  0  0  0  0  0  0  0  0  0  0  # atno 5278 bound_to 5270
   15.8505   13.5703    7.4179 LP  0  0  0  0  0  0  0  0  0  0  0  0  # atno 5914 bound_to 677 
   17.2800   13.6745    6.6356 LP  0  0  0  0  0  0  0  0  0  0  0  0  # atno 5915 bound_to 677 
   20.5146   11.6200   -0.2391 LP  0  0  0  0  0  0  0  0  0  0  0  0  # atno 5920 bound_to 698 
   20.8527   11.5909   -1.8364 LP  0  0  0  0  0  0  0  0  0  0  0  0  # atno 5921 bound_to 698 
   10.8056    3.2427   -3.2548 LP  0  0  0  0  0  0  0  0  0  0  0  0  # atno 5950 bound_to 2569
   10.4692    1.9187   -2.3601 LP  0  0  0  0  0  0  0  0  0  0  0  0  # atno 5951 bound_to 2569
    7.1544    5.6721    1.5167 LP  0  0  0  0  0  0  0  0  0  0  0  0  # atno 5982 bound_to 2887
    7.9269    6.9890    0.9373 LP  0  0  0  0  0  0  0  0  0  0  0  0  # atno 5983 bound_to 2887
   19.2936    3.0388   -0.1176 LP  0  0  0  0  0  0  0  0  0  0  0  0  # atno 6000 bound_to 3171
   17.9774    2.0814    0.0161 LP  0  0  0  0  0  0  0  0  0  0  0  0  # atno 6001 bound_to 3171
   12.5876   10.0001    9.6079 LP  0  0  0  0  0  0  0  0  0  0  0  0  # atno 6004 bound_to 5270
   14.0018    9.8185   10.4040 LP  0  0  0  0  0  0  0  0  0  0  0  0  # atno 6005 bound_to 5270
    9.7601   19.1119    7.4904 LP  0  0  0  0  0  0  0  0  0  0  0  0  # atno 6055 bound_to 637 
   11.3605   19.1842    7.8070 LP  0  0  0  0  0  0  0  0  0  0  0  0  # atno 6056 bound_to 637 
    1.5931   10.5214   10.4814 LP  0  0  0  0  0  0  0  0  0  0  0  0  # atno 6063 bound_to 1878
    0.6250   11.6789   11.1056 LP  0  0  0  0  0  0  0  0  0  0  0  0  # atno 6064 bound_to 1878
   -6.5533   16.9693   -1.3719 LP  0  0  0  0  0  0  0  0  0  0  0  0  # atno 6067 bound_to 957 
   -7.2007   16.4653    0.0400 LP  0  0  0  0  0  0  0  0  0  0  0  0  # atno 6068 bound_to 957 

>  <STRIFE_LigEff_Score>  (187) 
2.8494705882352944

$$$$
unknown|pharmsElabsTestMulti|sdf|188|dock9
     RDKit          3D

 17 17  0  0  0  0  0  0  0  0999 V2000
   14.7250    6.9005    3.3974 C   0  0  0  0  0  0  0  0  0  0  0  0
   13.8589    7.6273    2.3576 C   0  0  0  0  0  0  0  0  0  0  0  0
   13.8482    6.8766    1.0969 N   0  0  0  0  0  0  0  0  0  0  0  0
   12.4158    8.0357    2.8200 C   0  0  0  0  0  0  0  0  0  0  0  0
   11.2741    7.1180    2.3435 C   0  0  0  0  0  0  0  0  0  0  0  0
    9.9243    7.7962    2.2012 C   0  0  0  0  0  0  0  0  0  0  0  0
    9.6495    8.7912    3.3220 C   0  0  0  0  0  0  0  0  0  0  0  0
    8.2492    9.3321    3.1789 C   0  0  0  0  0  0  0  0  0  0  0  0
    7.8922   10.3595    3.8231 O   0  0  0  0  0  0  0  0  0  0  0  0
    7.3188    8.6607    2.3296 N   0  0  0  0  0  0  0  0  0  0  0  0
    5.9655    9.1656    2.1322 C   0  0  0  0  0  0  0  0  0  0  0  0
    5.2512    9.2176    3.4424 C   0  0  0  0  0  0  0  0  0  0  0  0
    5.8682    8.9194    4.5000 O   0  0  0  0  0  0  0  0  0  0  0  0
    3.8987    9.6784    3.5014 N   0  0  0  0  0  0  0  0  0  0  0  0
    3.2272    9.7729    4.7298 N   0  0  0  0  0  0  0  0  0  0  0  0
   10.6586    9.9442    3.2875 C   0  0  0  0  0  0  0  0  0  0  0  0
   12.1313    9.5217    3.1234 C   0  0  0  0  0  0  0  0  0  0  0  0
  1  2  1  0
  2  3  1  0
  2  4  1  0
  4  5  1  0
  5  6  1  0
  6  7  1  0
  7  8  1  0
  8  9  2  0
  8 10  1  0
 10 11  1  0
 11 12  1  0
 12 13  2  0
 12 14  1  0
 14 15  1  0
  7 16  1  0
 16 17  1  0
 17  4  1  0
M  CHG  1   3   1
M  END
>  <EmbedRMS>  (188) 
0.16865104847114704

>  <Gold.Version>  (188) 
2020.3.0

>  <Gold.Id.Protein>  (188) 
unknown|1q8t_protein|pdb

>  <Gold.PLP.Fitness>  (188) 
42.6012

>  <Gold.PLP.PLP>  (188) 
-30.3272

>  <Gold.PLP.part.hbond>  (188) 
-3.9216

>  <Gold.PLP.part.metal>  (188) 
0.0000

>  <Gold.PLP.part.buried>  (188) 
-4.0545

>  <Gold.PLP.part.nonpolar>  (188) 
-22.3872

>  <Gold.PLP.part.repulsive>  (188) 
0.1344

>  <Gold.PLP.ligand.clash>  (188) 
0.0681

>  <Gold.PLP.ligand.torsion>  (188) 
1.6084

>  <Gold.PLP.Chemscore.Hbond>  (188) 
4.9913

>  <Gold.PLP.Chemscore.CHOScore>  (188) 
0.0000

>  <Gold.PLP.Chemscore.Metal>  (188) 
0.0000

>  <Gold.Chemscore.Hbonds>  (188) 
donor molecule, donor type, donor heavy atom, donor atom, acceptor molecule, acceptor atom, score
      L1  H     3    23       P1  2691  0.99
      L1  H     3    24       P1  2902  2.00
      L1  H    10    31       P1  2887  1.00
      P1  H  1888  1903       L1    15  1.00

>  <Gold.PLP.Chemscore.Internal.Correction>  (188) 
0.5853

>  <Gold.PLP.Constraint>  (188) 
-0.0000

>  <Gold.Protein.RotatedTorsions>  (188) 
[  681  677  676  673 ] final  151.17 input -179.99 | X-H torsion
[  702  698  697  694 ] final  -81.04 input  179.99 | X-H torsion
[ 2577 2569 2568 2566 ] final   12.48 input   -0.13 | X-H torsion
[ 2891 2887 2886 2883 ] final  -77.15 input  179.98 | X-H torsion
[ 3175 3171 3170 3167 ] final -129.01 input -179.99 | X-H torsion
[ 5278 5270 5269 5267 ] final -134.55 input    0.55 | X-H torsion
[  641  637  636  633 ] final  102.62 input  179.99 | X-H torsion
[ 1886 1878 1877 1875 ] final  130.93 input    1.60 | X-H torsion
[  965  957  956  954 ] final -137.02 input    0.45 | X-H torsion

>  <Gold.Protein.ActiveResidues>  (188) 
 LYS47   THR48   LEU49   GLY50   THR51   GLY52   SER53   PHE54   GLY55   ARG56  
 VAL57   MET58   LEU59   TYR69   ALA70   MET71   LYS72   ILE73   LEU74   GLU91  
 LEU95   VAL104  LYS105  MET118  VAL119  MET120  GLU121  TYR122  VAL123  PRO124 
 GLY125  GLY126  GLU127  MET128  PHE129  TYR164  ASP166  LEU167  LYS168  PRO169 
 GLU170  ASN171  LEU172  LEU173  ILE174  GLN181  VAL182  THR183  ASP184  PHE185 
 GLY186  PHE187  GLY200  THR201  ASN326  PHE327  TYR330  ARG18   ARG19   ASN20  
 ALA21   ILE22   HIS23  

>  <Gold.Protein.RotatedAtoms>  (188) 
   10.5194   19.7520    8.8634 H   0  0  0  0  0  0  0  0  0  0  0  0  # atno 641  bound_to 637 
   17.2130   13.7106    6.6873 H   0  0  0  0  0  0  0  0  0  0  0  0  # atno 681  bound_to 677 
   20.5968   11.6239   -0.3200 H   0  0  0  0  0  0  0  0  0  0  0  0  # atno 702  bound_to 698 
   -6.6235   17.0572   -1.1765 H   0  0  0  0  0  0  0  0  0  0  0  0  # atno 965  bound_to 957 
    1.0241   12.1636   10.9934 H   0  0  0  0  0  0  0  0  0  0  0  0  # atno 1886 bound_to 1878
    9.5993    3.1760   -3.3172 H   0  0  0  0  0  0  0  0  0  0  0  0  # atno 2577 bound_to 2569
    7.3435    5.3191    1.1877 H   0  0  0  0  0  0  0  0  0  0  0  0  # atno 2891 bound_to 2887
   18.7502    2.6760    0.3522 H   0  0  0  0  0  0  0  0  0  0  0  0  # atno 3175 bound_to 3171
   14.3014    9.9239   10.0589 H   0  0  0  0  0  0  0  0  0  0  0  0  # atno 5278 bound_to 5270
   16.2576   12.5524    6.1565 LP  0  0  0  0  0  0  0  0  0  0  0  0  # atno 5914 bound_to 677 
   15.7995   13.5143    7.3940 LP  0  0  0  0  0  0  0  0  0  0  0  0  # atno 5915 bound_to 677 
   20.7707   11.6068   -1.9033 LP  0  0  0  0  0  0  0  0  0  0  0  0  # atno 5920 bound_to 698 
   19.3060   11.8533   -1.2247 LP  0  0  0  0  0  0  0  0  0  0  0  0  # atno 5921 bound_to 698 
   11.1028    2.8156   -2.9365 LP  0  0  0  0  0  0  0  0  0  0  0  0  # atno 5950 bound_to 2569
    9.8604    1.9046   -2.3949 LP  0  0  0  0  0  0  0  0  0  0  0  0  # atno 5951 bound_to 2569
    7.5757    6.8891    1.3202 LP  0  0  0  0  0  0  0  0  0  0  0  0  # atno 5982 bound_to 2887
    8.3705    6.0177    0.1909 LP  0  0  0  0  0  0  0  0  0  0  0  0  # atno 5983 bound_to 2887
   17.9268    1.9379   -0.7936 LP  0  0  0  0  0  0  0  0  0  0  0  0  # atno 6000 bound_to 3171
   19.2286    2.8547   -1.1560 LP  0  0  0  0  0  0  0  0  0  0  0  0  # atno 6001 bound_to 3171
   13.5402   10.2352    8.6949 LP  0  0  0  0  0  0  0  0  0  0  0  0  # atno 6004 bound_to 5270
   12.7091    9.8904   10.0576 LP  0  0  0  0  0  0  0  0  0  0  0  0  # atno 6005 bound_to 5270
    9.6287   19.2067    7.6616 LP  0  0  0  0  0  0  0  0  0  0  0  0  # atno 6055 bound_to 637 
   11.2570   19.0925    7.6160 LP  0  0  0  0  0  0  0  0  0  0  0  0  # atno 6056 bound_to 637 
    2.3035   11.4843   10.3324 LP  0  0  0  0  0  0  0  0  0  0  0  0  # atno 6063 bound_to 1878
    1.0037   10.5897   10.7529 LP  0  0  0  0  0  0  0  0  0  0  0  0  # atno 6064 bound_to 1878
   -7.2109   16.2405    0.0576 LP  0  0  0  0  0  0  0  0  0  0  0  0  # atno 6067 bound_to 957 
   -6.6213   15.4669   -1.2541 LP  0  0  0  0  0  0  0  0  0  0  0  0  # atno 6068 bound_to 957 

>  <STRIFE_LigEff_Score>  (188) 
2.5059529411764707

$$$$
unknown|pharmsElabsTestMulti|sdf|189|dock5
     RDKit          3D

 17 17  0  0  0  0  0  0  0  0999 V2000
   14.7064    7.7188    3.3964 C   0  0  0  0  0  0  0  0  0  0  0  0
   13.4317    7.6466    2.5573 C   0  0  0  0  0  0  0  0  0  0  0  0
   13.5007    8.5033    1.3718 N   0  0  0  0  0  0  0  0  0  0  0  0
   12.0662    7.7453    3.2810 C   0  0  0  0  0  0  0  0  0  0  0  0
   10.9093    7.0997    2.5045 C   0  0  0  0  0  0  0  0  0  0  0  0
    9.5072    7.5352    2.8946 C   0  0  0  0  0  0  0  0  0  0  0  0
    9.4114    9.0164    3.1565 C   0  0  0  0  0  0  0  0  0  0  0  0
    8.0052    9.5278    3.2333 C   0  0  0  0  0  0  0  0  0  0  0  0
    7.4888    9.8267    2.1295 O   0  0  0  0  0  0  0  0  0  0  0  0
    7.2417    9.7086    4.4370 N   0  0  0  0  0  0  0  0  0  0  0  0
    5.9267   10.3611    4.3922 C   0  0  0  0  0  0  0  0  0  0  0  0
    4.8794    9.5162    5.1398 C   0  0  0  0  0  0  0  0  0  0  0  0
    3.4805    9.6329    4.5195 C   0  0  0  0  0  0  0  0  0  0  0  0
    3.3580    8.8841    3.1918 C   0  0  0  0  0  0  0  0  0  0  0  0
    3.3051    9.7966    2.1309 O   0  0  0  0  0  0  0  0  0  0  0  0
   10.4012    9.5884    4.1330 C   0  0  0  0  0  0  0  0  0  0  0  0
   11.8366    9.1898    3.7994 C   0  0  0  0  0  0  0  0  0  0  0  0
  1  2  1  0
  2  3  1  0
  2  4  1  0
  4  5  1  0
  5  6  1  0
  6  7  1  0
  7  8  1  0
  8  9  2  0
  8 10  1  0
 10 11  1  0
 11 12  1  0
 12 13  1  0
 13 14  1  0
 14 15  1  0
  7 16  1  0
 16 17  1  0
 17  4  1  0
M  CHG  1   3   1
M  END
>  <EmbedRMS>  (189) 
0.3028787039700591

>  <Gold.Version>  (189) 
2020.3.0

>  <Gold.Id.Protein>  (189) 
unknown|1q8t_protein|pdb

>  <Gold.PLP.Fitness>  (189) 
49.3910

>  <Gold.PLP.PLP>  (189) 
-42.4287

>  <Gold.PLP.part.hbond>  (189) 
-2.0000

>  <Gold.PLP.part.metal>  (189) 
0.0000

>  <Gold.PLP.part.buried>  (189) 
-4.1721

>  <Gold.PLP.part.nonpolar>  (189) 
-36.4696

>  <Gold.PLP.part.repulsive>  (189) 
0.0000

>  <Gold.PLP.ligand.clash>  (189) 
0.0000

>  <Gold.PLP.ligand.torsion>  (189) 
1.3564

>  <Gold.PLP.Chemscore.Hbond>  (189) 
3.0000

>  <Gold.PLP.Chemscore.CHOScore>  (189) 
0.0000

>  <Gold.PLP.Chemscore.Metal>  (189) 
0.0000

>  <Gold.Chemscore.Hbonds>  (189) 
donor molecule, donor type, donor heavy atom, donor atom, acceptor molecule, acceptor atom, score
      L1  H     3    24       P1  2902  2.00
      L1  H    15    40       P1  1855  1.00

>  <Gold.PLP.Chemscore.Internal.Correction>  (189) 
0.6752

>  <Gold.PLP.Constraint>  (189) 
-0.0000

>  <Gold.Protein.RotatedTorsions>  (189) 
[  681  677  676  673 ] final  117.90 input -179.99 | X-H torsion
[  702  698  697  694 ] final  125.26 input  179.99 | X-H torsion
[ 2577 2569 2568 2566 ] final  107.99 input   -0.13 | X-H torsion
[ 2891 2887 2886 2883 ] final  103.05 input  179.98 | X-H torsion
[ 3175 3171 3170 3167 ] final  153.80 input -179.99 | X-H torsion
[ 5278 5270 5269 5267 ] final  125.56 input    0.55 | X-H torsion
[  641  637  636  633 ] final  -76.02 input  179.99 | X-H torsion
[ 1886 1878 1877 1875 ] final  177.83 input    1.60 | X-H torsion
[  965  957  956  954 ] final -159.56 input    0.45 | X-H torsion

>  <Gold.Protein.ActiveResidues>  (189) 
 LYS47   THR48   LEU49   GLY50   THR51   GLY52   SER53   PHE54   GLY55   ARG56  
 VAL57   MET58   LEU59   TYR69   ALA70   MET71   LYS72   ILE73   LEU74   GLU91  
 LEU95   VAL104  LYS105  MET118  VAL119  MET120  GLU121  TYR122  VAL123  PRO124 
 GLY125  GLY126  GLU127  MET128  PHE129  TYR164  ASP166  LEU167  LYS168  PRO169 
 GLU170  ASN171  LEU172  LEU173  ILE174  GLN181  VAL182  THR183  ASP184  PHE185 
 GLY186  PHE187  GLY200  THR201  ASN326  PHE327  TYR330  ARG18   ARG19   ASN20  
 ALA21   ILE22   HIS23  

>  <Gold.Protein.RotatedAtoms>  (189) 
   10.3968   18.9451    7.2697 H   0  0  0  0  0  0  0  0  0  0  0  0  # atno 641  bound_to 637 
   17.2229   13.3496    6.3232 H   0  0  0  0  0  0  0  0  0  0  0  0  # atno 681  bound_to 677 
   20.2624   11.7162   -2.0307 H   0  0  0  0  0  0  0  0  0  0  0  0  # atno 702  bound_to 698 
   -6.7613   17.1596   -0.8716 H   0  0  0  0  0  0  0  0  0  0  0  0  # atno 965  bound_to 957 
    0.6328   11.5721   11.0650 H   0  0  0  0  0  0  0  0  0  0  0  0  # atno 1886 bound_to 1878
    9.5554    2.0861   -2.5637 H   0  0  0  0  0  0  0  0  0  0  0  0  # atno 2577 bound_to 2569
    8.1510    6.8105    0.6097 H   0  0  0  0  0  0  0  0  0  0  0  0  # atno 2891 bound_to 2887
   17.9712    2.0359   -0.1298 H   0  0  0  0  0  0  0  0  0  0  0  0  # atno 3175 bound_to 3171
   13.8469   10.2294    8.8012 H   0  0  0  0  0  0  0  0  0  0  0  0  # atno 5278 bound_to 5270
   15.8245   12.6029    6.4748 LP  0  0  0  0  0  0  0  0  0  0  0  0  # atno 5914 bound_to 677 
   16.2220   13.8439    7.4590 LP  0  0  0  0  0  0  0  0  0  0  0  0  # atno 5915 bound_to 677 
   19.4107   11.8244   -0.6890 LP  0  0  0  0  0  0  0  0  0  0  0  0  # atno 5920 bound_to 698 
   21.0177   11.5386   -0.6395 LP  0  0  0  0  0  0  0  0  0  0  0  0  # atno 5921 bound_to 698 
    9.9199    3.3809   -3.4157 LP  0  0  0  0  0  0  0  0  0  0  0  0  # atno 5950 bound_to 2569
   11.0895    2.4868   -2.7091 LP  0  0  0  0  0  0  0  0  0  0  0  0  # atno 5951 bound_to 2569
    7.9469    5.2352    0.4941 LP  0  0  0  0  0  0  0  0  0  0  0  0  # atno 5982 bound_to 2887
    7.1495    6.1020    1.6253 LP  0  0  0  0  0  0  0  0  0  0  0  0  # atno 5983 bound_to 2887
   18.7489    2.4605   -1.4528 LP  0  0  0  0  0  0  0  0  0  0  0  0  # atno 6000 bound_to 3171
   19.2263    3.0057    0.0105 LP  0  0  0  0  0  0  0  0  0  0  0  0  # atno 6001 bound_to 3171
   12.6000    9.9637    9.7558 LP  0  0  0  0  0  0  0  0  0  0  0  0  # atno 6004 bound_to 5270
   14.1275    9.8405   10.3200 LP  0  0  0  0  0  0  0  0  0  0  0  0  # atno 6005 bound_to 5270
   11.3203   19.5086    8.4378 LP  0  0  0  0  0  0  0  0  0  0  0  0  # atno 6055 bound_to 637 
    9.6946   19.6404    8.5181 LP  0  0  0  0  0  0  0  0  0  0  0  0  # atno 6056 bound_to 637 
    2.0320   12.1442   10.5647 LP  0  0  0  0  0  0  0  0  0  0  0  0  # atno 6063 bound_to 1878
    1.6871   10.5525   10.4453 LP  0  0  0  0  0  0  0  0  0  0  0  0  # atno 6064 bound_to 1878
   -7.1794   15.8814   -0.0191 LP  0  0  0  0  0  0  0  0  0  0  0  0  # atno 6067 bound_to 957 
   -6.5077   15.7182   -1.4985 LP  0  0  0  0  0  0  0  0  0  0  0  0  # atno 6068 bound_to 957 

>  <STRIFE_LigEff_Score>  (189) 
2.9053529411764707

$$$$
unknown|pharmsElabsTestMulti|sdf|190|dock3
     RDKit          3D

 17 17  0  0  0  0  0  0  0  0999 V2000
   14.6126    7.8281    3.1657 C   0  0  0  0  0  0  0  0  0  0  0  0
   13.3052    7.7197    2.3828 C   0  0  0  0  0  0  0  0  0  0  0  0
   13.2993    8.5756    1.1947 N   0  0  0  0  0  0  0  0  0  0  0  0
   11.9702    7.7826    3.1650 C   0  0  0  0  0  0  0  0  0  0  0  0
   10.7751    7.2070    2.3914 C   0  0  0  0  0  0  0  0  0  0  0  0
    9.3955    7.6299    2.8663 C   0  0  0  0  0  0  0  0  0  0  0  0
    9.3310    9.0898    3.2353 C   0  0  0  0  0  0  0  0  0  0  0  0
    7.9363    9.6107    3.4033 C   0  0  0  0  0  0  0  0  0  0  0  0
    7.3736    9.9716    2.3415 O   0  0  0  0  0  0  0  0  0  0  0  0
    7.2310    9.7365    4.6489 N   0  0  0  0  0  0  0  0  0  0  0  0
    5.9236   10.4037    4.6987 C   0  0  0  0  0  0  0  0  0  0  0  0
    4.8620    9.4662    5.3018 C   0  0  0  0  0  0  0  0  0  0  0  0
    3.5379    9.5039    4.5269 C   0  0  0  0  0  0  0  0  0  0  0  0
    3.5954    8.7136    3.2190 C   0  0  0  0  0  0  0  0  0  0  0  0
    3.3049    9.5553    2.1382 O   0  0  0  0  0  0  0  0  0  0  0  0
   10.3658    9.5799    4.2098 C   0  0  0  0  0  0  0  0  0  0  0  0
   11.7814    9.1893    3.7924 C   0  0  0  0  0  0  0  0  0  0  0  0
  1  2  1  0
  2  3  1  0
  2  4  1  0
  4  5  1  0
  5  6  1  0
  6  7  1  0
  7  8  1  0
  8  9  2  0
  8 10  1  0
 10 11  1  0
 11 12  1  0
 12 13  1  0
 13 14  1  0
 14 15  1  0
  7 16  1  0
 16 17  1  0
 17  4  1  0
M  CHG  1   3   1
M  END
>  <EmbedRMS>  (190) 
0.3028787039700591

>  <Gold.Version>  (190) 
2020.3.0

>  <Gold.Id.Protein>  (190) 
unknown|1q8t_protein|pdb

>  <Gold.PLP.Fitness>  (190) 
50.3763

>  <Gold.PLP.PLP>  (190) 
-43.5404

>  <Gold.PLP.part.hbond>  (190) 
-2.0000

>  <Gold.PLP.part.metal>  (190) 
0.0000

>  <Gold.PLP.part.buried>  (190) 
-5.4136

>  <Gold.PLP.part.nonpolar>  (190) 
-36.2640

>  <Gold.PLP.part.repulsive>  (190) 
0.0000

>  <Gold.PLP.ligand.clash>  (190) 
0.0000

>  <Gold.PLP.ligand.torsion>  (190) 
1.4145

>  <Gold.PLP.Chemscore.Hbond>  (190) 
2.9840

>  <Gold.PLP.Chemscore.CHOScore>  (190) 
0.0000

>  <Gold.PLP.Chemscore.Metal>  (190) 
0.0000

>  <Gold.Chemscore.Hbonds>  (190) 
donor molecule, donor type, donor heavy atom, donor atom, acceptor molecule, acceptor atom, score
      L1  H     3    23       P1  2902  1.98
      L1  H    15    40       P1  1855  1.00

>  <Gold.PLP.Chemscore.Internal.Correction>  (190) 
0.7129

>  <Gold.PLP.Constraint>  (190) 
-0.0000

>  <Gold.Protein.RotatedTorsions>  (190) 
[  681  677  676  673 ] final  107.31 input -179.99 | X-H torsion
[  702  698  697  694 ] final  102.20 input  179.99 | X-H torsion
[ 2577 2569 2568 2566 ] final   51.47 input   -0.13 | X-H torsion
[ 2891 2887 2886 2883 ] final -174.54 input  179.98 | X-H torsion
[ 3175 3171 3170 3167 ] final  -40.03 input -179.99 | X-H torsion
[ 5278 5270 5269 5267 ] final   32.80 input    0.55 | X-H torsion
[  641  637  636  633 ] final   38.64 input  179.99 | X-H torsion
[ 1886 1878 1877 1875 ] final    9.92 input    1.60 | X-H torsion
[  965  957  956  954 ] final  -40.83 input    0.45 | X-H torsion

>  <Gold.Protein.ActiveResidues>  (190) 
 LYS47   THR48   LEU49   GLY50   THR51   GLY52   SER53   PHE54   GLY55   ARG56  
 VAL57   MET58   LEU59   TYR69   ALA70   MET71   LYS72   ILE73   LEU74   GLU91  
 LEU95   VAL104  LYS105  MET118  VAL119  MET120  GLU121  TYR122  VAL123  PRO124 
 GLY125  GLY126  GLU127  MET128  PHE129  TYR164  ASP166  LEU167  LYS168  PRO169 
 GLU170  ASN171  LEU172  LEU173  ILE174  GLN181  VAL182  THR183  ASP184  PHE185 
 GLY186  PHE187  GLY200  THR201  ASN326  PHE327  TYR330  ARG18   ARG19   ASN20  
 ALA21   ILE22   HIS23  

>  <Gold.Protein.RotatedAtoms>  (190) 
    9.6887   19.5814    8.4384 H   0  0  0  0  0  0  0  0  0  0  0  0  # atno 641  bound_to 637 
   17.1694   13.2232    6.2310 H   0  0  0  0  0  0  0  0  0  0  0  0  # atno 681  bound_to 677 
   19.9146   11.7767   -1.9698 H   0  0  0  0  0  0  0  0  0  0  0  0  # atno 702  bound_to 698 
   -6.5037   15.7621   -1.4670 H   0  0  0  0  0  0  0  0  0  0  0  0  # atno 965  bound_to 957 
    2.2532   11.4683   10.3330 H   0  0  0  0  0  0  0  0  0  0  0  0  # atno 1886 bound_to 1878
    9.2996    2.7413   -3.0374 H   0  0  0  0  0  0  0  0  0  0  0  0  # atno 2577 bound_to 2569
    7.3676    6.6339    1.4747 H   0  0  0  0  0  0  0  0  0  0  0  0  # atno 2891 bound_to 2887
   19.3598    2.9898   -0.6993 H   0  0  0  0  0  0  0  0  0  0  0  0  # atno 3175 bound_to 3171
   12.6778   10.0833    9.3440 H   0  0  0  0  0  0  0  0  0  0  0  0  # atno 5278 bound_to 5270
   15.7237   12.6673    6.6012 LP  0  0  0  0  0  0  0  0  0  0  0  0  # atno 5914 bound_to 677 
   16.3792   13.9125    7.4296 LP  0  0  0  0  0  0  0  0  0  0  0  0  # atno 5915 bound_to 677 
   19.6473   11.7769   -0.3994 LP  0  0  0  0  0  0  0  0  0  0  0  0  # atno 5920 bound_to 698 
   21.1471   11.5225   -0.9932 LP  0  0  0  0  0  0  0  0  0  0  0  0  # atno 5921 bound_to 698 
   10.7903    3.2532   -3.2632 LP  0  0  0  0  0  0  0  0  0  0  0  0  # atno 5950 bound_to 2569
   10.4885    1.9247   -2.3629 LP  0  0  0  0  0  0  0  0  0  0  0  0  # atno 5951 bound_to 2569
    8.3771    6.3787    0.2697 LP  0  0  0  0  0  0  0  0  0  0  0  0  # atno 5982 bound_to 2887
    7.5437    5.1444    0.9393 LP  0  0  0  0  0  0  0  0  0  0  0  0  # atno 5983 bound_to 2887
   18.3421    2.3983    0.3732 LP  0  0  0  0  0  0  0  0  0  0  0  0  # atno 6000 bound_to 3171
   18.1717    2.0640   -1.2161 LP  0  0  0  0  0  0  0  0  0  0  0  0  # atno 6001 bound_to 3171
   13.7272    9.7905   10.5058 LP  0  0  0  0  0  0  0  0  0  0  0  0  # atno 6004 bound_to 5270
   14.2304   10.1675    8.9987 LP  0  0  0  0  0  0  0  0  0  0  0  0  # atno 6005 bound_to 5270
   10.4815   18.9332    7.2193 LP  0  0  0  0  0  0  0  0  0  0  0  0  # atno 6055 bound_to 637 
   11.2791   19.5457    8.5059 LP  0  0  0  0  0  0  0  0  0  0  0  0  # atno 6056 bound_to 637 
    0.9907   10.5971   10.7599 LP  0  0  0  0  0  0  0  0  0  0  0  0  # atno 6063 bound_to 1878
    1.0227   12.2088   11.0207 LP  0  0  0  0  0  0  0  0  0  0  0  0  # atno 6064 bound_to 1878
   -6.7825   17.2088   -0.8633 LP  0  0  0  0  0  0  0  0  0  0  0  0  # atno 6067 bound_to 957 
   -7.1759   15.8625   -0.0272 LP  0  0  0  0  0  0  0  0  0  0  0  0  # atno 6068 bound_to 957 

>  <STRIFE_LigEff_Score>  (190) 
2.963311764705882

$$$$
unknown|pharmsElabsTestMulti|sdf|191|dock4
     RDKit          3D

 17 17  0  0  0  0  0  0  0  0999 V2000
   14.5459    7.0144    3.3335 C   0  0  0  0  0  0  0  0  0  0  0  0
   13.6598    7.7530    2.3192 C   0  0  0  0  0  0  0  0  0  0  0  0
   13.6252    7.0173    1.0501 N   0  0  0  0  0  0  0  0  0  0  0  0
   12.2257    8.1550    2.8140 C   0  0  0  0  0  0  0  0  0  0  0  0
   11.0969    7.1629    2.4757 C   0  0  0  0  0  0  0  0  0  0  0  0
    9.7186    7.7828    2.3407 C   0  0  0  0  0  0  0  0  0  0  0  0
    9.4600    8.8642    3.3825 C   0  0  0  0  0  0  0  0  0  0  0  0
    8.0361    9.3457    3.2612 C   0  0  0  0  0  0  0  0  0  0  0  0
    7.6762   10.4225    3.8169 O   0  0  0  0  0  0  0  0  0  0  0  0
    7.0882    8.5634    2.5351 N   0  0  0  0  0  0  0  0  0  0  0  0
    5.7097    9.0049    2.3610 C   0  0  0  0  0  0  0  0  0  0  0  0
    5.0437    9.1141    3.6929 C   0  0  0  0  0  0  0  0  0  0  0  0
    5.7390    9.0618    4.7426 O   0  0  0  0  0  0  0  0  0  0  0  0
    3.6363    9.3550    3.7708 N   0  0  0  0  0  0  0  0  0  0  0  0
    3.0024    9.5019    5.0140 N   0  0  0  0  0  0  0  0  0  0  0  0
   10.4245   10.0409    3.1983 C   0  0  0  0  0  0  0  0  0  0  0  0
   11.9023    9.6524    3.0000 C   0  0  0  0  0  0  0  0  0  0  0  0
  1  2  1  0
  2  3  1  0
  2  4  1  0
  4  5  1  0
  5  6  1  0
  6  7  1  0
  7  8  1  0
  8  9  2  0
  8 10  1  0
 10 11  1  0
 11 12  1  0
 12 13  2  0
 12 14  1  0
 14 15  1  0
  7 16  1  0
 16 17  1  0
 17  4  1  0
M  CHG  1   3   1
M  END
>  <EmbedRMS>  (191) 
0.16865104847114704

>  <Gold.Version>  (191) 
2020.3.0

>  <Gold.Id.Protein>  (191) 
unknown|1q8t_protein|pdb

>  <Gold.PLP.Fitness>  (191) 
43.1433

>  <Gold.PLP.PLP>  (191) 
-30.4882

>  <Gold.PLP.part.hbond>  (191) 
-4.8780

>  <Gold.PLP.part.metal>  (191) 
0.0000

>  <Gold.PLP.part.buried>  (191) 
-3.8464

>  <Gold.PLP.part.nonpolar>  (191) 
-22.2704

>  <Gold.PLP.part.repulsive>  (191) 
0.1488

>  <Gold.PLP.ligand.clash>  (191) 
0.0724

>  <Gold.PLP.ligand.torsion>  (191) 
1.6590

>  <Gold.PLP.Chemscore.Hbond>  (191) 
5.1504

>  <Gold.PLP.Chemscore.CHOScore>  (191) 
0.0000

>  <Gold.PLP.Chemscore.Metal>  (191) 
0.0000

>  <Gold.Chemscore.Hbonds>  (191) 
donor molecule, donor type, donor heavy atom, donor atom, acceptor molecule, acceptor atom, score
      L1  H     3    22       P1  2902  2.00
      L1  H     3    24       P1  2691  1.00
      L1  H    10    31       P1  2887  0.99
      L1  H    15    35       P1  1891  0.16
      P1  H  1888  1903       L1    15  1.00

>  <Gold.PLP.Chemscore.Internal.Correction>  (191) 
0.5943

>  <Gold.PLP.Constraint>  (191) 
-0.0000

>  <Gold.Protein.RotatedTorsions>  (191) 
[  681  677  676  673 ] final   -9.10 input -179.99 | X-H torsion
[  702  698  697  694 ] final -103.05 input  179.99 | X-H torsion
[ 2577 2569 2568 2566 ] final   57.85 input   -0.13 | X-H torsion
[ 2891 2887 2886 2883 ] final   -7.92 input  179.98 | X-H torsion
[ 3175 3171 3170 3167 ] final   52.15 input -179.99 | X-H torsion
[ 5278 5270 5269 5267 ] final  -55.22 input    0.55 | X-H torsion
[  641  637  636  633 ] final  115.30 input  179.99 | X-H torsion
[ 1886 1878 1877 1875 ] final   22.15 input    1.60 | X-H torsion
[  965  957  956  954 ] final  -30.65 input    0.45 | X-H torsion

>  <Gold.Protein.ActiveResidues>  (191) 
 LYS47   THR48   LEU49   GLY50   THR51   GLY52   SER53   PHE54   GLY55   ARG56  
 VAL57   MET58   LEU59   TYR69   ALA70   MET71   LYS72   ILE73   LEU74   GLU91  
 LEU95   VAL104  LYS105  MET118  VAL119  MET120  GLU121  TYR122  VAL123  PRO124 
 GLY125  GLY126  GLU127  MET128  PHE129  TYR164  ASP166  LEU167  LYS168  PRO169 
 GLU170  ASN171  LEU172  LEU173  ILE174  GLN181  VAL182  THR183  ASP184  PHE185 
 GLY186  PHE187  GLY200  THR201  ASN326  PHE327  TYR330  ARG18   ARG19   ASN20  
 ALA21   ILE22   HIS23  

>  <Gold.Protein.RotatedAtoms>  (191) 
   10.7142   19.7284    8.8384 H   0  0  0  0  0  0  0  0  0  0  0  0  # atno 641  bound_to 637 
   15.7827   12.6847    6.5562 H   0  0  0  0  0  0  0  0  0  0  0  0  # atno 681  bound_to 677 
   20.8716   11.5790   -0.5190 H   0  0  0  0  0  0  0  0  0  0  0  0  # atno 702  bound_to 698 
   -6.5465   15.6397   -1.3754 H   0  0  0  0  0  0  0  0  0  0  0  0  # atno 965  bound_to 957 
    2.2383   11.6546   10.3713 H   0  0  0  0  0  0  0  0  0  0  0  0  # atno 1886 bound_to 1878
    9.2866    2.6597   -2.9817 H   0  0  0  0  0  0  0  0  0  0  0  0  # atno 2577 bound_to 2569
    8.0122    5.3528    0.4211 H   0  0  0  0  0  0  0  0  0  0  0  0  # atno 2891 bound_to 2887
   18.5233    2.2811   -1.3802 H   0  0  0  0  0  0  0  0  0  0  0  0  # atno 3175 bound_to 3171
   13.2248    9.8208   10.4313 H   0  0  0  0  0  0  0  0  0  0  0  0  # atno 5278 bound_to 5270
   16.3254   13.8916    7.4422 LP  0  0  0  0  0  0  0  0  0  0  0  0  # atno 5914 bound_to 677 
   17.2370   13.2549    6.2463 LP  0  0  0  0  0  0  0  0  0  0  0  0  # atno 5915 bound_to 677 
   20.4485   11.6667   -2.0522 LP  0  0  0  0  0  0  0  0  0  0  0  0  # atno 5920 bound_to 698 
   19.3392   11.8405   -0.8665 LP  0  0  0  0  0  0  0  0  0  0  0  0  # atno 5921 bound_to 698 
   10.7072    3.3028   -3.3038 LP  0  0  0  0  0  0  0  0  0  0  0  0  # atno 5950 bound_to 2569
   10.5853    1.9610   -2.3810 LP  0  0  0  0  0  0  0  0  0  0  0  0  # atno 5951 bound_to 2569
    7.1356    5.9555    1.6064 LP  0  0  0  0  0  0  0  0  0  0  0  0  # atno 5982 bound_to 2887
    8.1068    6.9159    0.7114 LP  0  0  0  0  0  0  0  0  0  0  0  0  # atno 5983 bound_to 2887
   19.3459    3.0588   -0.2603 LP  0  0  0  0  0  0  0  0  0  0  0  0  # atno 6000 bound_to 3171
   18.0482    2.1493    0.1339 LP  0  0  0  0  0  0  0  0  0  0  0  0  # atno 6001 bound_to 3171
   14.4586   10.0580    9.4524 LP  0  0  0  0  0  0  0  0  0  0  0  0  # atno 6004 bound_to 5270
   12.9235   10.1762    8.9082 LP  0  0  0  0  0  0  0  0  0  0  0  0  # atno 6005 bound_to 5270
    9.5561   19.2987    7.8338 LP  0  0  0  0  0  0  0  0  0  0  0  0  # atno 6055 bound_to 637 
   11.1244   19.0254    7.4701 LP  0  0  0  0  0  0  0  0  0  0  0  0  # atno 6056 bound_to 637 
    1.1575   10.5253   10.6741 LP  0  0  0  0  0  0  0  0  0  0  0  0  # atno 6063 bound_to 1878
    0.8716   12.0845   11.0661 LP  0  0  0  0  0  0  0  0  0  0  0  0  # atno 6064 bound_to 1878
   -6.7144   17.1811   -1.0136 LP  0  0  0  0  0  0  0  0  0  0  0  0  # atno 6067 bound_to 957 
   -7.1989   16.0192    0.0266 LP  0  0  0  0  0  0  0  0  0  0  0  0  # atno 6068 bound_to 957 

>  <STRIFE_LigEff_Score>  (191) 
2.5378411764705886

$$$$
unknown|pharmsElabsTestMulti|sdf|192|dock3
     RDKit          3D

 15 15  0  0  0  0  0  0  0  0999 V2000
    3.6197   10.0784    5.1729 C   0  0  0  0  0  0  0  0  0  0  0  0
    5.1192    9.8233    5.3105 C   0  0  0  0  0  0  0  0  0  0  0  0
    5.8230    9.8695    3.9527 C   0  0  0  0  0  0  0  0  0  0  0  0
    7.2305    9.5147    4.0911 N   0  0  0  0  0  0  0  0  0  0  0  0
    8.0914    9.3794    2.9603 C   0  0  0  0  0  0  0  0  0  0  0  0
    7.6596    9.6147    1.7963 O   0  0  0  0  0  0  0  0  0  0  0  0
    9.5243    8.9843    3.1849 C   0  0  0  0  0  0  0  0  0  0  0  0
    9.8215    7.6125    2.5517 C   0  0  0  0  0  0  0  0  0  0  0  0
   11.3038    7.2408    2.7272 C   0  0  0  0  0  0  0  0  0  0  0  0
   12.1519    8.3401    2.0622 C   0  0  0  0  0  0  0  0  0  0  0  0
   13.6277    8.0162    1.6881 C   0  0  0  0  0  0  0  0  0  0  0  0
   14.5445    9.2013    1.4371 C   0  0  0  0  0  0  0  0  0  0  0  0
   13.8610    6.8588    0.8338 N   0  0  0  0  0  0  0  0  0  0  0  0
   11.9428    9.6728    2.8024 C   0  0  0  0  0  0  0  0  0  0  0  0
   10.4709   10.0940    2.6888 C   0  0  0  0  0  0  0  0  0  0  0  0
  1  2  1  0
  2  3  1  0
  3  4  1  0
  4  5  1  0
  5  6  2  0
  5  7  1  0
  7  8  1  0
  8  9  1  0
  9 10  1  0
 10 11  1  0
 11 12  1  0
 11 13  1  0
 10 14  1  0
 14 15  1  0
 15  7  1  0
M  CHG  1  13   1
M  END
>  <EmbedRMS>  (192) 
0.2000484947854372

>  <Gold.Version>  (192) 
2020.3.0

>  <Gold.Id.Protein>  (192) 
unknown|1q8t_protein|pdb

>  <Gold.PLP.Fitness>  (192) 
42.6719

>  <Gold.PLP.PLP>  (192) 
-33.9489

>  <Gold.PLP.part.hbond>  (192) 
-1.8503

>  <Gold.PLP.part.metal>  (192) 
0.0000

>  <Gold.PLP.part.buried>  (192) 
-3.1340

>  <Gold.PLP.part.nonpolar>  (192) 
-29.6781

>  <Gold.PLP.part.repulsive>  (192) 
0.0845

>  <Gold.PLP.ligand.clash>  (192) 
0.0000

>  <Gold.PLP.ligand.torsion>  (192) 
0.3370

>  <Gold.PLP.Chemscore.Hbond>  (192) 
2.9920

>  <Gold.PLP.Chemscore.CHOScore>  (192) 
0.0000

>  <Gold.PLP.Chemscore.Metal>  (192) 
0.0000

>  <Gold.Chemscore.Hbonds>  (192) 
donor molecule, donor type, donor heavy atom, donor atom, acceptor molecule, acceptor atom, score
      L1  H    13    35       P1  2691  0.99
      L1  H    13    36       P1  2902  2.00

>  <Gold.PLP.Chemscore.Internal.Correction>  (192) 
0.4211

>  <Gold.PLP.Constraint>  (192) 
-0.0000

>  <Gold.Protein.RotatedTorsions>  (192) 
[  681  677  676  673 ] final  -83.34 input -179.99 | X-H torsion
[  702  698  697  694 ] final  -31.24 input  179.99 | X-H torsion
[ 2577 2569 2568 2566 ] final  174.75 input   -0.13 | X-H torsion
[ 2891 2887 2886 2883 ] final   -7.02 input  179.98 | X-H torsion
[ 3175 3171 3170 3167 ] final  -13.89 input -179.99 | X-H torsion
[ 5278 5270 5269 5267 ] final  -44.54 input    0.55 | X-H torsion
[  641  637  636  633 ] final   68.20 input  179.99 | X-H torsion
[ 1886 1878 1877 1875 ] final   48.55 input    1.60 | X-H torsion
[  965  957  956  954 ] final  128.68 input    0.45 | X-H torsion

>  <Gold.Protein.ActiveResidues>  (192) 
 LYS47   THR48   LEU49   GLY50   THR51   GLY52   SER53   PHE54   GLY55   ARG56  
 VAL57   MET58   LEU59   TYR69   ALA70   MET71   LYS72   ILE73   LEU74   GLU91  
 LEU95   VAL104  LYS105  MET118  VAL119  MET120  GLU121  TYR122  VAL123  PRO124 
 GLY125  GLY126  GLU127  MET128  PHE129  TYR164  ASP166  LEU167  LYS168  PRO169 
 GLU170  ASN171  LEU172  LEU173  ILE174  GLN181  VAL182  THR183  ASP184  PHE185 
 GLY186  PHE187  GLY200  THR201  ASN326  PHE327  TYR330  ARG18   ARG19   ASN20  
 ALA21   ILE22   HIS23  

>  <Gold.Protein.RotatedAtoms>  (192) 
   10.0060   19.7167    8.7380 H   0  0  0  0  0  0  0  0  0  0  0  0  # atno 641  bound_to 637 
   15.7748   13.4500    7.3199 H   0  0  0  0  0  0  0  0  0  0  0  0  # atno 681  bound_to 677 
   19.8537   11.7557   -0.3245 H   0  0  0  0  0  0  0  0  0  0  0  0  # atno 702  bound_to 698 
   -7.1415   16.6326   -0.0474 H   0  0  0  0  0  0  0  0  0  0  0  0  # atno 965  bound_to 957 
    2.0845   12.0111   10.4999 H   0  0  0  0  0  0  0  0  0  0  0  0  # atno 1886 bound_to 1878
   10.5216    1.9681   -2.4109 H   0  0  0  0  0  0  0  0  0  0  0  0  # atno 2577 bound_to 2569
    8.0206    5.3612    0.4135 H   0  0  0  0  0  0  0  0  0  0  0  0  # atno 2891 bound_to 2887
   19.2453    2.8572   -1.0647 H   0  0  0  0  0  0  0  0  0  0  0  0  # atno 3175 bound_to 3171
   13.0741    9.8364   10.3618 H   0  0  0  0  0  0  0  0  0  0  0  0  # atno 5278 bound_to 5270
   17.2316   13.7739    6.7641 LP  0  0  0  0  0  0  0  0  0  0  0  0  # atno 5914 bound_to 677 
   16.3391   12.5672    6.1206 LP  0  0  0  0  0  0  0  0  0  0  0  0  # atno 5915 bound_to 677 
   21.1552   11.5253   -1.2136 LP  0  0  0  0  0  0  0  0  0  0  0  0  # atno 5920 bound_to 698 
   19.7031   11.7961   -1.9097 LP  0  0  0  0  0  0  0  0  0  0  0  0  # atno 5921 bound_to 698 
    9.2437    2.7124   -3.0010 LP  0  0  0  0  0  0  0  0  0  0  0  0  # atno 5950 bound_to 2569
   10.7485    3.2797   -3.2847 LP  0  0  0  0  0  0  0  0  0  0  0  0  # atno 5951 bound_to 2569
    7.1350    5.9409    1.6035 LP  0  0  0  0  0  0  0  0  0  0  0  0  # atno 5982 bound_to 2887
    8.0986    6.9216    0.7224 LP  0  0  0  0  0  0  0  0  0  0  0  0  # atno 5983 bound_to 2887
   18.6812    2.6543    0.4105 LP  0  0  0  0  0  0  0  0  0  0  0  0  # atno 6000 bound_to 3171
   17.9531    1.9475   -0.8690 LP  0  0  0  0  0  0  0  0  0  0  0  0  # atno 6001 bound_to 3171
   14.4731   10.0162    9.6221 LP  0  0  0  0  0  0  0  0  0  0  0  0  # atno 6004 bound_to 5270
   13.0676   10.2015    8.8116 LP  0  0  0  0  0  0  0  0  0  0  0  0  # atno 6005 bound_to 5270
   10.0154   19.0070    7.3128 LP  0  0  0  0  0  0  0  0  0  0  0  0  # atno 6055 bound_to 637 
   11.4110   19.3294    8.0969 LP  0  0  0  0  0  0  0  0  0  0  0  0  # atno 6056 bound_to 637 
    1.5503   10.5111   10.4985 LP  0  0  0  0  0  0  0  0  0  0  0  0  # atno 6063 bound_to 1878
    0.6406   11.7234   11.1063 LP  0  0  0  0  0  0  0  0  0  0  0  0  # atno 6064 bound_to 1878
   -6.7867   15.3313   -0.8935 LP  0  0  0  0  0  0  0  0  0  0  0  0  # atno 6067 bound_to 957 
   -6.5000   16.8233   -1.4921 LP  0  0  0  0  0  0  0  0  0  0  0  0  # atno 6068 bound_to 957 

>  <STRIFE_LigEff_Score>  (192) 
2.8447933333333335

$$$$
unknown|pharmsElabsTestMulti|sdf|193|dock2
     RDKit          3D

 18 19  0  0  0  0  0  0  0  0999 V2000
   14.1781    7.5103    3.1447 C   0  0  0  0  0  0  0  0  0  0  0  0
   13.6873    8.1788    1.8454 C   0  0  0  0  0  0  0  0  0  0  0  0
   13.8421    7.2354    0.7305 N   0  0  0  0  0  0  0  0  0  0  0  0
   12.2142    8.6555    2.0119 C   0  0  0  0  0  0  0  0  0  0  0  0
   11.2781    7.4367    2.1510 C   0  0  0  0  0  0  0  0  0  0  0  0
    9.8243    7.8882    2.1558 C   0  0  0  0  0  0  0  0  0  0  0  0
    9.5719    8.8429    3.3274 C   0  0  0  0  0  0  0  0  0  0  0  0
    8.1405    9.2842    3.3365 C   0  0  0  0  0  0  0  0  0  0  0  0
    7.7620   10.1977    4.1223 O   0  0  0  0  0  0  0  0  0  0  0  0
    7.2076    8.6417    2.4632 N   0  0  0  0  0  0  0  0  0  0  0  0
    5.8240    9.0734    2.3288 C   0  0  0  0  0  0  0  0  0  0  0  0
    4.9917    8.5817    3.5233 C   0  0  0  0  0  0  0  0  0  0  0  0
    5.1643    9.4983    4.7167 C   0  0  0  0  0  0  0  0  0  0  0  0
    3.7727   10.0481    4.9673 C   0  0  0  0  0  0  0  0  0  0  0  0
    2.9931    9.8243    3.8215 O   0  0  0  0  0  0  0  0  0  0  0  0
    3.4877    8.6366    3.2643 C   0  0  0  0  0  0  0  0  0  0  0  0
   10.5165   10.0550    3.2813 C   0  0  0  0  0  0  0  0  0  0  0  0
   11.9852    9.6082    3.2112 C   0  0  0  0  0  0  0  0  0  0  0  0
  1  2  1  0
  2  3  1  0
  2  4  1  0
  4  5  1  0
  5  6  1  0
  6  7  1  0
  7  8  1  0
  8  9  2  0
  8 10  1  0
 10 11  1  0
 11 12  1  0
 12 13  1  0
 13 14  1  0
 14 15  1  0
 15 16  1  0
  7 17  1  0
 17 18  1  0
 18  4  1  0
 16 12  1  0
M  CHG  1   3   1
M  END
>  <EmbedRMS>  (193) 
0.04148526611260124

>  <Gold.Version>  (193) 
2020.3.0

>  <Gold.Id.Protein>  (193) 
unknown|1q8t_protein|pdb

>  <Gold.PLP.Fitness>  (193) 
56.7517

>  <Gold.PLP.PLP>  (193) 
-44.0114

>  <Gold.PLP.part.hbond>  (193) 
-3.9376

>  <Gold.PLP.part.metal>  (193) 
0.0000

>  <Gold.PLP.part.buried>  (193) 
-5.6445

>  <Gold.PLP.part.nonpolar>  (193) 
-34.4142

>  <Gold.PLP.part.repulsive>  (193) 
0.1982

>  <Gold.PLP.ligand.clash>  (193) 
0.3510

>  <Gold.PLP.ligand.torsion>  (193) 
0.5496

>  <Gold.PLP.Chemscore.Hbond>  (193) 
4.7000

>  <Gold.PLP.Chemscore.CHOScore>  (193) 
0.0000

>  <Gold.PLP.Chemscore.Metal>  (193) 
0.0000

>  <Gold.Chemscore.Hbonds>  (193) 
donor molecule, donor type, donor heavy atom, donor atom, acceptor molecule, acceptor atom, score
      L1  H     3    24       P1  2902  2.00
      L1  H     3    25       P1  2691  1.00
      L1  H    10    32       P1  2887  1.00
      P1  H  1888  1903       L1    15  0.70

>  <Gold.PLP.Chemscore.Internal.Correction>  (193) 
0.0906

>  <Gold.PLP.Constraint>  (193) 
-0.0000

>  <Gold.Protein.RotatedTorsions>  (193) 
[  681  677  676  673 ] final   65.87 input -179.99 | X-H torsion
[  702  698  697  694 ] final    7.69 input  179.99 | X-H torsion
[ 2577 2569 2568 2566 ] final -176.19 input   -0.13 | X-H torsion
[ 2891 2887 2886 2883 ] final    9.65 input  179.98 | X-H torsion
[ 3175 3171 3170 3167 ] final   51.84 input -179.99 | X-H torsion
[ 5278 5270 5269 5267 ] final   41.78 input    0.55 | X-H torsion
[  641  637  636  633 ] final -177.35 input  179.99 | X-H torsion
[ 1886 1878 1877 1875 ] final -165.11 input    1.60 | X-H torsion
[  965  957  956  954 ] final  -55.86 input    0.45 | X-H torsion

>  <Gold.Protein.ActiveResidues>  (193) 
 LYS47   THR48   LEU49   GLY50   THR51   GLY52   SER53   PHE54   GLY55   ARG56  
 VAL57   MET58   LEU59   TYR69   ALA70   MET71   LYS72   ILE73   LEU74   GLU91  
 LEU95   VAL104  LYS105  MET118  VAL119  MET120  GLU121  TYR122  VAL123  PRO124 
 GLY125  GLY126  GLU127  MET128  PHE129  TYR164  ASP166  LEU167  LYS168  PRO169 
 GLU170  ASN171  LEU172  LEU173  ILE174  GLN181  VAL182  THR183  ASP184  PHE185 
 GLY186  PHE187  GLY200  THR201  ASN326  PHE327  TYR330  ARG18   ARG19   ASN20  
 ALA21   ILE22   HIS23  

>  <Gold.Protein.RotatedAtoms>  (193) 
   11.3568   19.3560    8.1794 H   0  0  0  0  0  0  0  0  0  0  0  0  # atno 641  bound_to 637 
   16.7469   12.7838    6.0571 H   0  0  0  0  0  0  0  0  0  0  0  0  # atno 681  bound_to 677 
   19.4371   11.8376   -0.7446 H   0  0  0  0  0  0  0  0  0  0  0  0  # atno 702  bound_to 698 
   -6.4581   15.9708   -1.5628 H   0  0  0  0  0  0  0  0  0  0  0  0  # atno 965  bound_to 957 
    0.6125   11.3097   11.0292 H   0  0  0  0  0  0  0  0  0  0  0  0  # atno 1886 bound_to 1878
   10.6473    2.0254   -2.4415 H   0  0  0  0  0  0  0  0  0  0  0  0  # atno 2577 bound_to 2569
    8.1608    5.5451    0.2952 H   0  0  0  0  0  0  0  0  0  0  0  0  # atno 2891 bound_to 2887
   18.5272    2.2838   -1.3814 H   0  0  0  0  0  0  0  0  0  0  0  0  # atno 3175 bound_to 3171
   12.7314   10.1149    9.2183 H   0  0  0  0  0  0  0  0  0  0  0  0  # atno 5278 bound_to 5270
   15.5835   13.0850    7.1021 LP  0  0  0  0  0  0  0  0  0  0  0  0  # atno 5914 bound_to 677 
   16.9640   13.9572    7.1117 LP  0  0  0  0  0  0  0  0  0  0  0  0  # atno 5915 bound_to 677 
   20.9961   11.5418   -0.6059 LP  0  0  0  0  0  0  0  0  0  0  0  0  # atno 5920 bound_to 698 
   20.3004   11.6934   -2.0755 LP  0  0  0  0  0  0  0  0  0  0  0  0  # atno 5921 bound_to 698 
    9.2363    2.5899   -2.9165 LP  0  0  0  0  0  0  0  0  0  0  0  0  # atno 5950 bound_to 2569
   10.6235    3.3418   -3.3370 LP  0  0  0  0  0  0  0  0  0  0  0  0  # atno 5951 bound_to 2569
    7.1528    5.6810    1.5207 LP  0  0  0  0  0  0  0  0  0  0  0  0  # atno 5982 bound_to 2887
    7.9333    6.9880    0.9297 LP  0  0  0  0  0  0  0  0  0  0  0  0  # atno 5983 bound_to 2887
   19.3445    3.0584   -0.2554 LP  0  0  0  0  0  0  0  0  0  0  0  0  # atno 6000 bound_to 3171
   18.0456    2.1469    0.1302 LP  0  0  0  0  0  0  0  0  0  0  0  0  # atno 6001 bound_to 3171
   13.5809    9.7844   10.5243 LP  0  0  0  0  0  0  0  0  0  0  0  0  # atno 6004 bound_to 5270
   14.3204   10.1403    9.1126 LP  0  0  0  0  0  0  0  0  0  0  0  0  # atno 6005 bound_to 5270
    9.9066   19.7311    8.7190 LP  0  0  0  0  0  0  0  0  0  0  0  0  # atno 6055 bound_to 637 
   10.0972   18.9851    7.2789 LP  0  0  0  0  0  0  0  0  0  0  0  0  # atno 6056 bound_to 637 
    1.8213   12.2860   10.6818 LP  0  0  0  0  0  0  0  0  0  0  0  0  # atno 6063 bound_to 1878
    1.9192   10.6869   10.3659 LP  0  0  0  0  0  0  0  0  0  0  0  0  # atno 6064 bound_to 1878
   -6.8846   17.1957   -0.6394 LP  0  0  0  0  0  0  0  0  0  0  0  0  # atno 6067 bound_to 957 
   -7.1219   15.6559   -0.1503 LP  0  0  0  0  0  0  0  0  0  0  0  0  # atno 6068 bound_to 957 

>  <STRIFE_LigEff_Score>  (193) 
3.1528722222222223

$$$$
unknown|pharmsElabsTestMulti|sdf|194|dock9
     RDKit          3D

 16 16  0  0  0  0  0  0  0  0999 V2000
   13.8088    7.4008    3.5280 C   0  0  0  0  0  0  0  0  0  0  0  0
   13.4938    8.1132    2.1978 C   0  0  0  0  0  0  0  0  0  0  0  0
   13.7754    7.1989    1.0836 N   0  0  0  0  0  0  0  0  0  0  0  0
   12.0176    8.6093    2.1926 C   0  0  0  0  0  0  0  0  0  0  0  0
   11.0583    7.4051    2.2877 C   0  0  0  0  0  0  0  0  0  0  0  0
    9.6181    7.8671    2.1236 C   0  0  0  0  0  0  0  0  0  0  0  0
    9.2559    8.8730    3.2222 C   0  0  0  0  0  0  0  0  0  0  0  0
    7.8341    9.3209    3.0588 C   0  0  0  0  0  0  0  0  0  0  0  0
    7.4769    9.8603    1.9778 O   0  0  0  0  0  0  0  0  0  0  0  0
    6.9158    9.1391    4.1466 N   0  0  0  0  0  0  0  0  0  0  0  0
    5.5209    9.4774    4.1561 C   0  0  0  0  0  0  0  0  0  0  0  0
    5.0261   10.0030    3.1229 O   0  0  0  0  0  0  0  0  0  0  0  0
    4.6789    9.2557    5.3008 N   0  0  0  0  0  0  0  0  0  0  0  0
    3.3008    9.5028    5.2444 N   0  0  0  0  0  0  0  0  0  0  0  0
   10.2152   10.0755    3.2216 C   0  0  0  0  0  0  0  0  0  0  0  0
   11.6787    9.6155    3.3204 C   0  0  0  0  0  0  0  0  0  0  0  0
  1  2  1  0
  2  3  1  0
  2  4  1  0
  4  5  1  0
  5  6  1  0
  6  7  1  0
  7  8  1  0
  8  9  2  0
  8 10  1  0
 10 11  1  0
 11 12  2  0
 11 13  1  0
 13 14  1  0
  7 15  1  0
 15 16  1  0
 16  4  1  0
M  CHG  1   3   1
M  END
>  <EmbedRMS>  (194) 
0.04288090640690368

>  <Gold.Version>  (194) 
2020.3.0

>  <Gold.Id.Protein>  (194) 
unknown|1q8t_protein|pdb

>  <Gold.PLP.Fitness>  (194) 
40.8685

>  <Gold.PLP.PLP>  (194) 
-28.9391

>  <Gold.PLP.part.hbond>  (194) 
-4.0000

>  <Gold.PLP.part.metal>  (194) 
0.0000

>  <Gold.PLP.part.buried>  (194) 
-5.9947

>  <Gold.PLP.part.nonpolar>  (194) 
-18.8448

>  <Gold.PLP.part.repulsive>  (194) 
0.0904

>  <Gold.PLP.ligand.clash>  (194) 
0.0000

>  <Gold.PLP.ligand.torsion>  (194) 
0.0459

>  <Gold.PLP.Chemscore.Hbond>  (194) 
4.0000

>  <Gold.PLP.Chemscore.CHOScore>  (194) 
0.0000

>  <Gold.PLP.Chemscore.Metal>  (194) 
0.0000

>  <Gold.Chemscore.Hbonds>  (194) 
donor molecule, donor type, donor heavy atom, donor atom, acceptor molecule, acceptor atom, score
      L1  H     3    21       P1  2902  2.00
      L1  H     3    23       P1  2691  1.00
      L1  H    14    33       P1  1891  1.00

>  <Gold.PLP.Chemscore.Internal.Correction>  (194) 
0.0213

>  <Gold.PLP.Constraint>  (194) 
-0.0000

>  <Gold.Protein.RotatedTorsions>  (194) 
[  681  677  676  673 ] final  137.70 input -179.99 | X-H torsion
[  702  698  697  694 ] final -163.12 input  179.99 | X-H torsion
[ 2577 2569 2568 2566 ] final   46.03 input   -0.13 | X-H torsion
[ 2891 2887 2886 2883 ] final  -76.53 input  179.98 | X-H torsion
[ 3175 3171 3170 3167 ] final -133.33 input -179.99 | X-H torsion
[ 5278 5270 5269 5267 ] final  -67.16 input    0.55 | X-H torsion
[  641  637  636  633 ] final   73.20 input  179.99 | X-H torsion
[ 1886 1878 1877 1875 ] final -132.76 input    1.60 | X-H torsion
[  965  957  956  954 ] final  -36.47 input    0.45 | X-H torsion

>  <Gold.Protein.ActiveResidues>  (194) 
 LYS47   THR48   LEU49   GLY50   THR51   GLY52   SER53   PHE54   GLY55   ARG56  
 VAL57   MET58   LEU59   TYR69   ALA70   MET71   LYS72   ILE73   LEU74   GLU91  
 LEU95   VAL104  LYS105  MET118  VAL119  MET120  GLU121  TYR122  VAL123  PRO124 
 GLY125  GLY126  GLU127  MET128  PHE129  TYR164  ASP166  LEU167  LYS168  PRO169 
 GLU170  ASN171  LEU172  LEU173  ILE174  GLN181  VAL182  THR183  ASP184  PHE185 
 GLY186  PHE187  GLY200  THR201  ASN326  PHE327  TYR330  ARG18   ARG19   ASN20  
 ALA21   ILE22   HIS23  

>  <Gold.Protein.RotatedAtoms>  (194) 
   10.0745   19.7307    8.7729 H   0  0  0  0  0  0  0  0  0  0  0  0  # atno 641  bound_to 637 
   17.2501   13.5757    6.5306 H   0  0  0  0  0  0  0  0  0  0  0  0  # atno 681  bound_to 677 
   21.0791   11.5591   -1.3917 H   0  0  0  0  0  0  0  0  0  0  0  0  # atno 702  bound_to 698 
   -6.5209   15.7074   -1.4301 H   0  0  0  0  0  0  0  0  0  0  0  0  # atno 965  bound_to 957 
    0.7684   10.8587   10.8836 H   0  0  0  0  0  0  0  0  0  0  0  0  # atno 1886 bound_to 1878
    9.3192    2.8098   -3.0835 H   0  0  0  0  0  0  0  0  0  0  0  0  # atno 2577 bound_to 2569
    7.3482    5.3140    1.1810 H   0  0  0  0  0  0  0  0  0  0  0  0  # atno 2891 bound_to 2887
   18.6960    2.6375    0.3647 H   0  0  0  0  0  0  0  0  0  0  0  0  # atno 3175 bound_to 3171
   13.4057    9.8118   10.4754 H   0  0  0  0  0  0  0  0  0  0  0  0  # atno 5278 bound_to 5270
   16.0660   12.5439    6.2668 LP  0  0  0  0  0  0  0  0  0  0  0  0  # atno 5914 bound_to 677 
   15.9520   13.6648    7.4488 LP  0  0  0  0  0  0  0  0  0  0  0  0  # atno 5915 bound_to 677 
   19.5570   11.8196   -1.7825 LP  0  0  0  0  0  0  0  0  0  0  0  0  # atno 5920 bound_to 698 
   20.0123   11.7087   -0.2182 LP  0  0  0  0  0  0  0  0  0  0  0  0  # atno 5921 bound_to 698 
   10.8552    3.2050   -3.2250 LP  0  0  0  0  0  0  0  0  0  0  0  0  # atno 5950 bound_to 2569
   10.4030    1.9008   -2.3525 LP  0  0  0  0  0  0  0  0  0  0  0  0  # atno 5951 bound_to 2569
    7.5693    6.8845    1.3266 LP  0  0  0  0  0  0  0  0  0  0  0  0  # atno 5982 bound_to 2887
    8.3720    6.0278    0.1916 LP  0  0  0  0  0  0  0  0  0  0  0  0  # atno 5983 bound_to 2887
   17.9498    1.9462   -0.8604 LP  0  0  0  0  0  0  0  0  0  0  0  0  # atno 6000 bound_to 3171
   19.2626    2.8868   -1.1024 LP  0  0  0  0  0  0  0  0  0  0  0  0  # atno 6001 bound_to 3171
   14.4044   10.1026    9.2693 LP  0  0  0  0  0  0  0  0  0  0  0  0  # atno 6004 bound_to 5270
   12.7874   10.1410    9.0449 LP  0  0  0  0  0  0  0  0  0  0  0  0  # atno 6005 bound_to 5270
    9.9452   19.0296    7.3493 LP  0  0  0  0  0  0  0  0  0  0  0  0  # atno 6055 bound_to 637 
   11.4091   19.2921    8.0236 LP  0  0  0  0  0  0  0  0  0  0  0  0  # atno 6056 bound_to 637 
    1.3471   12.3420   10.9004 LP  0  0  0  0  0  0  0  0  0  0  0  0  # atno 6063 bound_to 1878
    2.2294   11.1057   10.3006 LP  0  0  0  0  0  0  0  0  0  0  0  0  # atno 6064 bound_to 1878
   -6.7530   17.2005   -0.9283 LP  0  0  0  0  0  0  0  0  0  0  0  0  # atno 6067 bound_to 957 
   -7.1872   15.9284   -0.0010 LP  0  0  0  0  0  0  0  0  0  0  0  0  # atno 6068 bound_to 957 

>  <STRIFE_LigEff_Score>  (194) 
2.55428125

$$$$
unknown|pharmsElabsTestMulti|sdf|195|dock2
     RDKit          3D

 13 13  0  0  0  0  0  0  0  0999 V2000
    5.1277    9.1841    2.6631 C   0  0  0  0  0  0  0  0  0  0  0  0
    6.5370    9.2071    2.2640 N   0  0  0  0  0  0  0  0  0  0  0  0
    7.5621    9.0556    3.2566 C   0  0  0  0  0  0  0  0  0  0  0  0
    7.2343    8.9876    4.4671 O   0  0  0  0  0  0  0  0  0  0  0  0
    9.0318    8.9414    2.9796 C   0  0  0  0  0  0  0  0  0  0  0  0
    9.5612    7.5074    2.8960 C   0  0  0  0  0  0  0  0  0  0  0  0
   11.0974    7.3999    2.8023 C   0  0  0  0  0  0  0  0  0  0  0  0
   11.7080    8.6776    2.2050 C   0  0  0  0  0  0  0  0  0  0  0  0
   13.1817    8.6122    1.6980 C   0  0  0  0  0  0  0  0  0  0  0  0
   13.7619    9.8835    1.1019 C   0  0  0  0  0  0  0  0  0  0  0  0
   13.6136    7.3791    1.0484 N   0  0  0  0  0  0  0  0  0  0  0  0
   11.4249    9.8717    3.1391 C   0  0  0  0  0  0  0  0  0  0  0  0
    9.9303   10.0650    3.4725 C   0  0  0  0  0  0  0  0  0  0  0  0
  1  2  1  0
  2  3  1  0
  3  4  2  0
  3  5  1  0
  5  6  1  0
  6  7  1  0
  7  8  1  0
  8  9  1  0
  9 10  1  0
  9 11  1  0
  8 12  1  0
 12 13  1  0
 13  5  1  0
M  CHG  1  11   1
M  END
>  <EmbedRMS>  (195) 
0.29639754771625826

>  <Gold.Version>  (195) 
2020.3.0

>  <Gold.Id.Protein>  (195) 
unknown|1q8t_protein|pdb

>  <Gold.PLP.Fitness>  (195) 
34.3968

>  <Gold.PLP.PLP>  (195) 
-25.8557

>  <Gold.PLP.part.hbond>  (195) 
-2.0000

>  <Gold.PLP.part.metal>  (195) 
0.0000

>  <Gold.PLP.part.buried>  (195) 
-3.4685

>  <Gold.PLP.part.nonpolar>  (195) 
-20.1832

>  <Gold.PLP.part.repulsive>  (195) 
0.0534

>  <Gold.PLP.ligand.clash>  (195) 
0.0000

>  <Gold.PLP.ligand.torsion>  (195) 
0.5639

>  <Gold.PLP.Chemscore.Hbond>  (195) 
2.8800

>  <Gold.PLP.Chemscore.CHOScore>  (195) 
0.0000

>  <Gold.PLP.Chemscore.Metal>  (195) 
0.0000

>  <Gold.Chemscore.Hbonds>  (195) 
donor molecule, donor type, donor heavy atom, donor atom, acceptor molecule, acceptor atom, score
      L1  H    11    29       P1  2691  0.88
      L1  H    11    30       P1  2902  2.00

>  <Gold.PLP.Chemscore.Internal.Correction>  (195) 
1.0290

>  <Gold.PLP.Constraint>  (195) 
-0.0000

>  <Gold.Protein.RotatedTorsions>  (195) 
[  681  677  676  673 ] final   52.82 input -179.99 | X-H torsion
[  702  698  697  694 ] final -115.95 input  179.99 | X-H torsion
[ 2577 2569 2568 2566 ] final -160.20 input   -0.13 | X-H torsion
[ 2891 2887 2886 2883 ] final  -22.68 input  179.98 | X-H torsion
[ 3175 3171 3170 3167 ] final   76.97 input -179.99 | X-H torsion
[ 5278 5270 5269 5267 ] final -148.00 input    0.55 | X-H torsion
[  641  637  636  633 ] final  -43.33 input  179.99 | X-H torsion
[ 1886 1878 1877 1875 ] final  -56.59 input    1.60 | X-H torsion
[  965  957  956  954 ] final  101.02 input    0.45 | X-H torsion

>  <Gold.Protein.ActiveResidues>  (195) 
 LYS47   THR48   LEU49   GLY50   THR51   GLY52   SER53   PHE54   GLY55   ARG56  
 VAL57   MET58   LEU59   TYR69   ALA70   MET71   LYS72   ILE73   LEU74   GLU91  
 LEU95   VAL104  LYS105  MET118  VAL119  MET120  GLU121  TYR122  VAL123  PRO124 
 GLY125  GLY126  GLU127  MET128  PHE129  TYR164  ASP166  LEU167  LYS168  PRO169 
 GLU170  ASN171  LEU172  LEU173  ILE174  GLN181  VAL182  THR183  ASP184  PHE185 
 GLY186  PHE187  GLY200  THR201  ASN326  PHE327  TYR330  ARG18   ARG19   ASN20  
 ALA21   ILE22   HIS23  

>  <Gold.Protein.RotatedAtoms>  (195) 
    9.9268   19.0479    7.4196 H   0  0  0  0  0  0  0  0  0  0  0  0  # atno 641  bound_to 637 
   16.5678   12.6884    6.0735 H   0  0  0  0  0  0  0  0  0  0  0  0  # atno 681  bound_to 677 
   20.9914   11.5609   -0.6798 H   0  0  0  0  0  0  0  0  0  0  0  0  # atno 702  bound_to 698 
   -7.1760   16.2112    0.0197 H   0  0  0  0  0  0  0  0  0  0  0  0  # atno 965  bound_to 957 
    1.7433   10.6331   10.4153 H   0  0  0  0  0  0  0  0  0  0  0  0  # atno 1886 bound_to 1878
   10.8387    2.1626   -2.5228 H   0  0  0  0  0  0  0  0  0  0  0  0  # atno 2577 bound_to 2569
    7.8678    5.2420    0.5619 H   0  0  0  0  0  0  0  0  0  0  0  0  # atno 2891 bound_to 2887
   18.2357    2.0904   -1.2096 H   0  0  0  0  0  0  0  0  0  0  0  0  # atno 3175 bound_to 3171
   14.3864    9.9707    9.8727 H   0  0  0  0  0  0  0  0  0  0  0  0  # atno 5278 bound_to 5270
   15.6309   13.2473    7.2337 LP  0  0  0  0  0  0  0  0  0  0  0  0  # atno 5914 bound_to 677 
   17.1052   13.8953    6.9628 LP  0  0  0  0  0  0  0  0  0  0  0  0  # atno 5915 bound_to 677 
   20.2415   11.7039   -2.0779 LP  0  0  0  0  0  0  0  0  0  0  0  0  # atno 5920 bound_to 698 
   19.4201   11.8224   -0.6716 LP  0  0  0  0  0  0  0  0  0  0  0  0  # atno 5921 bound_to 698 
    9.2802    2.3790   -2.7669 LP  0  0  0  0  0  0  0  0  0  0  0  0  # atno 5950 bound_to 2569
   10.3780    3.4082   -3.4011 LP  0  0  0  0  0  0  0  0  0  0  0  0  # atno 5951 bound_to 2569
    7.1663    6.1947    1.6281 LP  0  0  0  0  0  0  0  0  0  0  0  0  # atno 5982 bound_to 2887
    8.2282    6.7932    0.5415 LP  0  0  0  0  0  0  0  0  0  0  0  0  # atno 5983 bound_to 2887
   19.3912    3.0397   -0.6625 LP  0  0  0  0  0  0  0  0  0  0  0  0  # atno 6000 bound_to 3171
   18.3057    2.3691    0.3566 LP  0  0  0  0  0  0  0  0  0  0  0  0  # atno 6001 bound_to 3171
   13.3207   10.2274    8.7172 LP  0  0  0  0  0  0  0  0  0  0  0  0  # atno 6004 bound_to 5270
   12.8392    9.8490   10.2310 LP  0  0  0  0  0  0  0  0  0  0  0  0  # atno 6005 bound_to 5270
   11.4036   19.2666    7.9730 LP  0  0  0  0  0  0  0  0  0  0  0  0  # atno 6055 bound_to 637 
   10.1063   19.7741    8.8251 LP  0  0  0  0  0  0  0  0  0  0  0  0  # atno 6056 bound_to 637 
    0.5821   11.4869   11.0918 LP  0  0  0  0  0  0  0  0  0  0  0  0  # atno 6063 bound_to 1878
    1.9680   12.1983   10.6021 LP  0  0  0  0  0  0  0  0  0  0  0  0  # atno 6064 bound_to 1878
   -6.6099   15.4844   -1.2789 LP  0  0  0  0  0  0  0  0  0  0  0  0  # atno 6067 bound_to 957 
   -6.6405   17.1140   -1.1775 LP  0  0  0  0  0  0  0  0  0  0  0  0  # atno 6068 bound_to 957 

>  <STRIFE_LigEff_Score>  (195) 
2.6459076923076923

$$$$
unknown|pharmsElabsTestMulti|sdf|196|dock6
     RDKit          3D

 18 18  0  0  0  0  0  0  0  0999 V2000
    3.7591    8.9227    1.7901 C   0  0  0  0  0  0  0  0  0  0  0  0
    3.4488    8.6011    3.2440 C   0  0  0  0  0  0  0  0  0  0  0  0
    3.0371    9.8148    3.9555 N   0  0  0  0  0  0  0  0  0  0  0  0
    3.6128    9.8049    5.3048 C   0  0  0  0  0  0  0  0  0  0  0  0
    5.1276    9.5802    5.2521 C   0  0  0  0  0  0  0  0  0  0  0  0
    5.8175   10.2606    4.0612 C   0  0  0  0  0  0  0  0  0  0  0  0
    7.2717   10.0336    4.0769 N   0  0  0  0  0  0  0  0  0  0  0  0
    7.9022    9.2474    3.0513 C   0  0  0  0  0  0  0  0  0  0  0  0
    7.1897    8.7014    2.1748 O   0  0  0  0  0  0  0  0  0  0  0  0
    9.3740    8.9906    2.9208 C   0  0  0  0  0  0  0  0  0  0  0  0
    9.7075    7.7279    2.1425 C   0  0  0  0  0  0  0  0  0  0  0  0
   11.1748    7.3185    2.2169 C   0  0  0  0  0  0  0  0  0  0  0  0
   12.1342    8.4955    2.4744 C   0  0  0  0  0  0  0  0  0  0  0  0
   13.6089    7.9743    2.4225 C   0  0  0  0  0  0  0  0  0  0  0  0
   13.9150    7.1014    3.6530 C   0  0  0  0  0  0  0  0  0  0  0  0
   13.8913    7.2054    1.2026 N   0  0  0  0  0  0  0  0  0  0  0  0
   11.7748    9.1524    3.8314 C   0  0  0  0  0  0  0  0  0  0  0  0
   10.2819    9.4978    4.0246 C   0  0  0  0  0  0  0  0  0  0  0  0
  1  2  1  0
  2  3  1  0
  3  4  1  0
  4  5  1  0
  5  6  1  0
  6  7  1  0
  7  8  1  0
  8  9  2  0
  8 10  1  0
 10 11  1  0
 11 12  1  0
 12 13  1  0
 13 14  1  0
 14 15  1  0
 14 16  1  0
 13 17  1  0
 17 18  1  0
 18 10  1  0
M  CHG  1  16   1
M  END
>  <EmbedRMS>  (196) 
0.17954307941365247

>  <Gold.Version>  (196) 
2020.3.0

>  <Gold.Id.Protein>  (196) 
unknown|1q8t_protein|pdb

>  <Gold.PLP.Fitness>  (196) 
59.9806

>  <Gold.PLP.PLP>  (196) 
-48.8154

>  <Gold.PLP.part.hbond>  (196) 
-4.0000

>  <Gold.PLP.part.metal>  (196) 
0.0000

>  <Gold.PLP.part.buried>  (196) 
-4.4090

>  <Gold.PLP.part.nonpolar>  (196) 
-40.6164

>  <Gold.PLP.part.repulsive>  (196) 
0.0454

>  <Gold.PLP.ligand.clash>  (196) 
0.0000

>  <Gold.PLP.ligand.torsion>  (196) 
0.8826

>  <Gold.PLP.Chemscore.Hbond>  (196) 
4.0000

>  <Gold.PLP.Chemscore.CHOScore>  (196) 
0.0000

>  <Gold.PLP.Chemscore.Metal>  (196) 
0.0000

>  <Gold.Chemscore.Hbonds>  (196) 
donor molecule, donor type, donor heavy atom, donor atom, acceptor molecule, acceptor atom, score
      L1  H    16    43       P1  2691  1.00
      L1  H    16    44       P1  2902  2.00
      P1  H  2887  2891       L1     9  1.00

>  <Gold.PLP.Chemscore.Internal.Correction>  (196) 
0.9303

>  <Gold.PLP.Constraint>  (196) 
-0.0000

>  <Gold.Protein.RotatedTorsions>  (196) 
[  681  677  676  673 ] final  -36.69 input -179.99 | X-H torsion
[  702  698  697  694 ] final  129.55 input  179.99 | X-H torsion
[ 2577 2569 2568 2566 ] final   51.09 input   -0.13 | X-H torsion
[ 2891 2887 2886 2883 ] final  156.41 input  179.98 | X-H torsion
[ 3175 3171 3170 3167 ] final  130.68 input -179.99 | X-H torsion
[ 5278 5270 5269 5267 ] final  -71.93 input    0.55 | X-H torsion
[  641  637  636  633 ] final  151.95 input  179.99 | X-H torsion
[ 1886 1878 1877 1875 ] final  -64.85 input    1.60 | X-H torsion
[  965  957  956  954 ] final    5.32 input    0.45 | X-H torsion

>  <Gold.Protein.ActiveResidues>  (196) 
 LYS47   THR48   LEU49   GLY50   THR51   GLY52   SER53   PHE54   GLY55   ARG56  
 VAL57   MET58   LEU59   TYR69   ALA70   MET71   LYS72   ILE73   LEU74   GLU91  
 LEU95   VAL104  LYS105  MET118  VAL119  MET120  GLU121  TYR122  VAL123  PRO124 
 GLY125  GLY126  GLU127  MET128  PHE129  TYR164  ASP166  LEU167  LYS168  PRO169 
 GLU170  ASN171  LEU172  LEU173  ILE174  GLN181  VAL182  THR183  ASP184  PHE185 
 GLY186  PHE187  GLY200  THR201  ASN326  PHE327  TYR330  ARG18   ARG19   ASN20  
 ALA21   ILE22   HIS23  

>  <Gold.Protein.RotatedAtoms>  (196) 
   11.1790   19.5637    8.5666 H   0  0  0  0  0  0  0  0  0  0  0  0  # atno 641  bound_to 637 
   15.6250   12.9134    6.8807 H   0  0  0  0  0  0  0  0  0  0  0  0  # atno 681  bound_to 677 
   20.3283   11.7044   -2.0262 H   0  0  0  0  0  0  0  0  0  0  0  0  # atno 702  bound_to 698 
   -6.7520   15.3854   -0.9293 H   0  0  0  0  0  0  0  0  0  0  0  0  # atno 965  bound_to 957 
    1.6309   10.5852   10.4567 H   0  0  0  0  0  0  0  0  0  0  0  0  # atno 1886 bound_to 1878
    9.3007    2.7462   -3.0407 H   0  0  0  0  0  0  0  0  0  0  0  0  # atno 2577 bound_to 2569
    7.6375    6.8910    1.2237 H   0  0  0  0  0  0  0  0  0  0  0  0  # atno 2891 bound_to 2887
   17.9224    1.9544   -0.4760 H   0  0  0  0  0  0  0  0  0  0  0  0  # atno 3175 bound_to 3171
   13.4800    9.8108   10.4826 H   0  0  0  0  0  0  0  0  0  0  0  0  # atno 5278 bound_to 5270
   16.7345   13.9838    7.2801 LP  0  0  0  0  0  0  0  0  0  0  0  0  # atno 5914 bound_to 677 
   16.9938   12.9220    6.0669 LP  0  0  0  0  0  0  0  0  0  0  0  0  # atno 5915 bound_to 677 
   19.3803   11.8310   -0.7523 LP  0  0  0  0  0  0  0  0  0  0  0  0  # atno 5920 bound_to 698 
   20.9788   11.5443   -0.5810 LP  0  0  0  0  0  0  0  0  0  0  0  0  # atno 5921 bound_to 698 
   10.7951    3.2500   -3.2606 LP  0  0  0  0  0  0  0  0  0  0  0  0  # atno 5950 bound_to 2569
   10.4826    1.9228   -2.3620 LP  0  0  0  0  0  0  0  0  0  0  0  0  # atno 5951 bound_to 2569
    8.3510    5.9135    0.1885 LP  0  0  0  0  0  0  0  0  0  0  0  0  # atno 5982 bound_to 2887
    7.2858    5.3389    1.2847 LP  0  0  0  0  0  0  0  0  0  0  0  0  # atno 5983 bound_to 2887
   19.0346    2.6855   -1.3502 LP  0  0  0  0  0  0  0  0  0  0  0  0  # atno 6000 bound_to 3171
   18.9920    2.8664    0.2722 LP  0  0  0  0  0  0  0  0  0  0  0  0  # atno 6001 bound_to 3171
   14.3720   10.1194    9.1997 LP  0  0  0  0  0  0  0  0  0  0  0  0  # atno 6004 bound_to 5270
   12.7417   10.1253    9.1068 LP  0  0  0  0  0  0  0  0  0  0  0  0  # atno 6005 bound_to 5270
    9.6001   19.5657    8.3614 LP  0  0  0  0  0  0  0  0  0  0  0  0  # atno 6055 bound_to 637 
   10.5910   18.9319    7.2287 LP  0  0  0  0  0  0  0  0  0  0  0  0  # atno 6056 bound_to 637 
    0.6077   11.6198   11.1032 LP  0  0  0  0  0  0  0  0  0  0  0  0  # atno 6063 bound_to 1878
    2.0608   12.1157   10.5471 LP  0  0  0  0  0  0  0  0  0  0  0  0  # atno 6064 bound_to 1878
   -6.5137   16.8671   -1.4611 LP  0  0  0  0  0  0  0  0  0  0  0  0  # atno 6067 bound_to 957 
   -7.1832   16.6009    0.0043 LP  0  0  0  0  0  0  0  0  0  0  0  0  # atno 6068 bound_to 957 

>  <STRIFE_LigEff_Score>  (196) 
3.3322555555555557

$$$$
unknown|pharmsElabsTestMulti|sdf|197|dock7
     RDKit          3D

 17 17  0  0  0  0  0  0  0  0999 V2000
    4.8097    9.7714    5.3031 C   0  0  0  0  0  0  0  0  0  0  0  0
    5.5877    9.5332    4.0334 C   0  0  0  0  0  0  0  0  0  0  0  0
    4.8334    8.7907    2.9270 C   0  0  0  0  0  0  0  0  0  0  0  0
    3.6998    9.7362    2.5234 C   0  0  0  0  0  0  0  0  0  0  0  0
    2.5532    9.5040    3.2624 O   0  0  0  0  0  0  0  0  0  0  0  0
    6.9870    9.1485    4.0743 N   0  0  0  0  0  0  0  0  0  0  0  0
    7.8962    9.2753    2.9946 C   0  0  0  0  0  0  0  0  0  0  0  0
    7.5351    9.8855    1.9537 O   0  0  0  0  0  0  0  0  0  0  0  0
    9.3297    8.8338    3.1754 C   0  0  0  0  0  0  0  0  0  0  0  0
    9.7451    7.9625    1.9965 C   0  0  0  0  0  0  0  0  0  0  0  0
   11.1436    7.3957    2.1513 C   0  0  0  0  0  0  0  0  0  0  0  0
   12.1808    8.3754    2.7317 C   0  0  0  0  0  0  0  0  0  0  0  0
   13.6672    8.1446    2.2833 C   0  0  0  0  0  0  0  0  0  0  0  0
   14.6650    7.7867    3.3950 C   0  0  0  0  0  0  0  0  0  0  0  0
   13.7728    7.1810    1.1816 N   0  0  0  0  0  0  0  0  0  0  0  0
   11.7467    9.7980    3.1380 C   0  0  0  0  0  0  0  0  0  0  0  0
   10.2374   10.0655    3.2955 C   0  0  0  0  0  0  0  0  0  0  0  0
  1  2  1  0
  2  3  1  0
  3  4  1  0
  4  5  1  0
  2  6  1  0
  6  7  1  0
  7  8  2  0
  7  9  1  0
  9 10  1  0
 10 11  1  0
 11 12  1  0
 12 13  1  0
 13 14  1  0
 13 15  1  0
 12 16  1  0
 16 17  1  0
 17  9  1  0
M  CHG  1  15   1
M  END
>  <EmbedRMS>  (197) 
0.26860030186857947

>  <Gold.Version>  (197) 
2020.3.0

>  <Gold.Id.Protein>  (197) 
unknown|1q8t_protein|pdb

>  <Gold.PLP.Fitness>  (197) 
50.7270

>  <Gold.PLP.PLP>  (197) 
-40.5885

>  <Gold.PLP.part.hbond>  (197) 
-4.0000

>  <Gold.PLP.part.metal>  (197) 
0.0000

>  <Gold.PLP.part.buried>  (197) 
-4.7885

>  <Gold.PLP.part.nonpolar>  (197) 
-31.9525

>  <Gold.PLP.part.repulsive>  (197) 
0.0450

>  <Gold.PLP.ligand.clash>  (197) 
0.0000

>  <Gold.PLP.ligand.torsion>  (197) 
1.8469

>  <Gold.PLP.Chemscore.Hbond>  (197) 
4.2521

>  <Gold.PLP.Chemscore.CHOScore>  (197) 
0.0000

>  <Gold.PLP.Chemscore.Metal>  (197) 
0.0000

>  <Gold.Chemscore.Hbonds>  (197) 
donor molecule, donor type, donor heavy atom, donor atom, acceptor molecule, acceptor atom, score
      L1  H     5    26       P1  1855  1.00
      L1  H    15    39       P1  2691  0.99
      L1  H    15    40       P1  2902  2.00
      P1  H  1888  1903       L1     5  0.26

>  <Gold.PLP.Chemscore.Internal.Correction>  (197) 
1.0761

>  <Gold.PLP.Constraint>  (197) 
-0.0000

>  <Gold.Protein.RotatedTorsions>  (197) 
[  681  677  676  673 ] final  -72.16 input -179.99 | X-H torsion
[  702  698  697  694 ] final  104.45 input  179.99 | X-H torsion
[ 2577 2569 2568 2566 ] final -167.48 input   -0.13 | X-H torsion
[ 2891 2887 2886 2883 ] final  -13.56 input  179.98 | X-H torsion
[ 3175 3171 3170 3167 ] final -111.23 input -179.99 | X-H torsion
[ 5278 5270 5269 5267 ] final   66.53 input    0.55 | X-H torsion
[  641  637  636  633 ] final  -31.74 input  179.99 | X-H torsion
[ 1886 1878 1877 1875 ] final -119.09 input    1.60 | X-H torsion
[  965  957  956  954 ] final -163.44 input    0.45 | X-H torsion

>  <Gold.Protein.ActiveResidues>  (197) 
 LYS47   THR48   LEU49   GLY50   THR51   GLY52   SER53   PHE54   GLY55   ARG56  
 VAL57   MET58   LEU59   TYR69   ALA70   MET71   LYS72   ILE73   LEU74   GLU91  
 LEU95   VAL104  LYS105  MET118  VAL119  MET120  GLU121  TYR122  VAL123  PRO124 
 GLY125  GLY126  GLU127  MET128  PHE129  TYR164  ASP166  LEU167  LYS168  PRO169 
 GLU170  ASN171  LEU172  LEU173  ILE174  GLN181  VAL182  THR183  ASP184  PHE185 
 GLY186  PHE187  GLY200  THR201  ASN326  PHE327  TYR330  ARG18   ARG19   ASN20  
 ALA21   ILE22   HIS23  

>  <Gold.Protein.RotatedAtoms>  (197) 
    9.7950   19.1099    7.5266 H   0  0  0  0  0  0  0  0  0  0  0  0  # atno 641  bound_to 637 
   15.6923   13.3183    7.2404 H   0  0  0  0  0  0  0  0  0  0  0  0  # atno 681  bound_to 677 
   19.9471   11.7711   -1.9819 H   0  0  0  0  0  0  0  0  0  0  0  0  # atno 702  bound_to 698 
   -6.7864   17.1636   -0.8164 H   0  0  0  0  0  0  0  0  0  0  0  0  # atno 965  bound_to 957 
    0.9015   10.7146   10.8003 H   0  0  0  0  0  0  0  0  0  0  0  0  # atno 1886 bound_to 1878
   10.7570    2.0948   -2.4817 H   0  0  0  0  0  0  0  0  0  0  0  0  # atno 2577 bound_to 2569
    7.9586    5.3045    0.4717 H   0  0  0  0  0  0  0  0  0  0  0  0  # atno 2891 bound_to 2887
   18.9630    2.8203    0.2501 H   0  0  0  0  0  0  0  0  0  0  0  0  # atno 3175 bound_to 3171
   12.9746   10.1884    8.9303 H   0  0  0  0  0  0  0  0  0  0  0  0  # atno 5278 bound_to 5270
   17.1502   13.8629    6.9028 LP  0  0  0  0  0  0  0  0  0  0  0  0  # atno 5914 bound_to 677 
   16.5073   12.6168    6.0657 LP  0  0  0  0  0  0  0  0  0  0  0  0  # atno 5915 bound_to 677 
   19.6194   11.7823   -0.4231 LP  0  0  0  0  0  0  0  0  0  0  0  0  # atno 5920 bound_to 698 
   21.1407   11.5229   -0.9567 LP  0  0  0  0  0  0  0  0  0  0  0  0  # atno 5921 bound_to 698 
    9.2513    2.4735   -2.8346 LP  0  0  0  0  0  0  0  0  0  0  0  0  # atno 5950 bound_to 2569
   10.4930    3.3851   -3.3766 LP  0  0  0  0  0  0  0  0  0  0  0  0  # atno 5951 bound_to 2569
    7.1425    6.0469    1.6203 LP  0  0  0  0  0  0  0  0  0  0  0  0  # atno 5982 bound_to 2887
    8.1564    6.8753    0.6444 LP  0  0  0  0  0  0  0  0  0  0  0  0  # atno 5983 bound_to 2887
   17.8754    1.9374   -0.5069 LP  0  0  0  0  0  0  0  0  0  0  0  0  # atno 6000 bound_to 3171
   19.0560    2.7033   -1.3352 LP  0  0  0  0  0  0  0  0  0  0  0  0  # atno 6001 bound_to 3171
   13.1822    9.7961   10.4600 LP  0  0  0  0  0  0  0  0  0  0  0  0  # atno 6004 bound_to 5270
   14.4632   10.0512    9.4799 LP  0  0  0  0  0  0  0  0  0  0  0  0  # atno 6005 bound_to 5270
   11.3605   19.1842    7.8069 LP  0  0  0  0  0  0  0  0  0  0  0  0  # atno 6055 bound_to 637 
   10.2882   19.7912    8.8785 LP  0  0  0  0  0  0  0  0  0  0  0  0  # atno 6056 bound_to 637 
    1.1465   12.2778   10.9779 LP  0  0  0  0  0  0  0  0  0  0  0  0  # atno 6063 bound_to 1878
    2.2898   11.3216   10.3107 LP  0  0  0  0  0  0  0  0  0  0  0  0  # atno 6064 bound_to 1878
   -7.1682   15.8241   -0.0450 LP  0  0  0  0  0  0  0  0  0  0  0  0  # atno 6067 bound_to 957 
   -6.4925   15.7713   -1.5307 LP  0  0  0  0  0  0  0  0  0  0  0  0  # atno 6068 bound_to 957 

>  <STRIFE_LigEff_Score>  (197) 
2.983941176470588

$$$$
unknown|pharmsElabsTestMulti|sdf|198|dock6
     RDKit          3D

 20 21  0  0  0  0  0  0  0  0999 V2000
    3.9035   10.1266    5.9433 C   0  0  0  0  0  0  0  0  0  0  0  0
    4.1049    9.7111    4.5227 C   0  0  0  0  0  0  0  0  0  0  0  0
    5.1366   10.2762    3.7653 C   0  0  0  0  0  0  0  0  0  0  0  0
    5.3182    9.8719    2.4371 C   0  0  0  0  0  0  0  0  0  0  0  0
    6.4136   10.4719    1.6052 C   0  0  0  0  0  0  0  0  0  0  0  0
    7.6398    9.6992    1.7573 N   0  0  0  0  0  0  0  0  0  0  0  0
    8.3549    9.6179    2.9955 C   0  0  0  0  0  0  0  0  0  0  0  0
    7.8905   10.1579    4.0390 O   0  0  0  0  0  0  0  0  0  0  0  0
    9.6598    8.8745    3.0404 C   0  0  0  0  0  0  0  0  0  0  0  0
    9.9959    8.3057    1.6575 C   0  0  0  0  0  0  0  0  0  0  0  0
   11.3089    7.5358    1.7089 C   0  0  0  0  0  0  0  0  0  0  0  0
   12.4564    8.4665    2.1529 C   0  0  0  0  0  0  0  0  0  0  0  0
   13.8192    7.7188    2.0480 C   0  0  0  0  0  0  0  0  0  0  0  0
   13.9196    6.6424    3.1468 C   0  0  0  0  0  0  0  0  0  0  0  0
   14.0051    7.0857    0.7359 N   0  0  0  0  0  0  0  0  0  0  0  0
   12.1389    9.0207    3.5641 C   0  0  0  0  0  0  0  0  0  0  0  0
   10.7944    9.7688    3.5696 C   0  0  0  0  0  0  0  0  0  0  0  0
    4.4506    8.9203    1.8837 C   0  0  0  0  0  0  0  0  0  0  0  0
    3.4341    8.3782    2.6724 C   0  0  0  0  0  0  0  0  0  0  0  0
    3.2848    8.7803    3.9625 N   0  0  0  0  0  0  0  0  0  0  0  0
  1  2  1  0
  2  3  2  0
  3  4  1  0
  4  5  1  0
  5  6  1  0
  6  7  1  0
  7  8  2  0
  7  9  1  0
  9 10  1  0
 10 11  1  0
 11 12  1  0
 12 13  1  0
 13 14  1  0
 13 15  1  0
 12 16  1  0
 16 17  1  0
  4 18  2  0
 18 19  1  0
 19 20  2  0
 20  2  1  0
 17  9  1  0
M  CHG  1  15   1
M  END
>  <EmbedRMS>  (198) 
0.02740033145123856

>  <Gold.Version>  (198) 
2020.3.0

>  <Gold.Id.Protein>  (198) 
unknown|1q8t_protein|pdb

>  <Gold.PLP.Fitness>  (198) 
57.8863

>  <Gold.PLP.PLP>  (198) 
-49.1990

>  <Gold.PLP.part.hbond>  (198) 
-2.8454

>  <Gold.PLP.part.metal>  (198) 
0.0000

>  <Gold.PLP.part.buried>  (198) 
-5.1609

>  <Gold.PLP.part.nonpolar>  (198) 
-42.8869

>  <Gold.PLP.part.repulsive>  (198) 
0.2085

>  <Gold.PLP.ligand.clash>  (198) 
0.3927

>  <Gold.PLP.ligand.torsion>  (198) 
0.4857

>  <Gold.PLP.Chemscore.Hbond>  (198) 
3.3245

>  <Gold.PLP.Chemscore.CHOScore>  (198) 
0.0000

>  <Gold.PLP.Chemscore.Metal>  (198) 
0.0000

>  <Gold.Chemscore.Hbonds>  (198) 
donor molecule, donor type, donor heavy atom, donor atom, acceptor molecule, acceptor atom, score
      L1  H    15    39       P1  2691  1.00
      L1  H    15    40       P1  2902  2.00
      P1  H  1888  1903       L1    20  0.32

>  <Gold.PLP.Chemscore.Internal.Correction>  (198) 
0.0780

>  <Gold.PLP.Constraint>  (198) 
-0.0000

>  <Gold.Protein.RotatedTorsions>  (198) 
[  681  677  676  673 ] final   81.56 input -179.99 | X-H torsion
[  702  698  697  694 ] final  -82.71 input  179.99 | X-H torsion
[ 2577 2569 2568 2566 ] final -100.38 input   -0.13 | X-H torsion
[ 2891 2887 2886 2883 ] final  161.90 input  179.98 | X-H torsion
[ 3175 3171 3170 3167 ] final   38.97 input -179.99 | X-H torsion
[ 5278 5270 5269 5267 ] final   12.17 input    0.55 | X-H torsion
[  641  637  636  633 ] final -157.50 input  179.99 | X-H torsion
[ 1886 1878 1877 1875 ] final  136.40 input    1.60 | X-H torsion
[  965  957  956  954 ] final -126.19 input    0.45 | X-H torsion

>  <Gold.Protein.ActiveResidues>  (198) 
 LYS47   THR48   LEU49   GLY50   THR51   GLY52   SER53   PHE54   GLY55   ARG56  
 VAL57   MET58   LEU59   TYR69   ALA70   MET71   LYS72   ILE73   LEU74   GLU91  
 LEU95   VAL104  LYS105  MET118  VAL119  MET120  GLU121  TYR122  VAL123  PRO124 
 GLY125  GLY126  GLU127  MET128  PHE129  TYR164  ASP166  LEU167  LYS168  PRO169 
 GLU170  ASN171  LEU172  LEU173  ILE174  GLN181  VAL182  THR183  ASP184  PHE185 
 GLY186  PHE187  GLY200  THR201  ASN326  PHE327  TYR330  ARG18   ARG19   ASN20  
 ALA21   ILE22   HIS23  

>  <Gold.Protein.RotatedAtoms>  (198) 
   11.3396   19.2167    7.9047 H   0  0  0  0  0  0  0  0  0  0  0  0  # atno 641  bound_to 637 
   16.9401   12.9315    6.0839 H   0  0  0  0  0  0  0  0  0  0  0  0  # atno 681  bound_to 677 
   20.6202   11.6199   -0.3313 H   0  0  0  0  0  0  0  0  0  0  0  0  # atno 702  bound_to 698 
   -6.5660   16.9635   -1.3047 H   0  0  0  0  0  0  0  0  0  0  0  0  # atno 965  bound_to 957 
    0.9580   12.1134   11.0140 H   0  0  0  0  0  0  0  0  0  0  0  0  # atno 1886 bound_to 1878
   11.0305    2.8855   -3.0107 H   0  0  0  0  0  0  0  0  0  0  0  0  # atno 2577 bound_to 2569
    7.5821    6.8571    1.2797 H   0  0  0  0  0  0  0  0  0  0  0  0  # atno 2891 bound_to 2887
   18.6888    2.4001   -1.4067 H   0  0  0  0  0  0  0  0  0  0  0  0  # atno 3175 bound_to 3171
   12.6352   10.0067    9.6528 H   0  0  0  0  0  0  0  0  0  0  0  0  # atno 5278 bound_to 5270
   15.5852   12.9027    6.9204 LP  0  0  0  0  0  0  0  0  0  0  0  0  # atno 5914 bound_to 677 
   16.7591   13.9841    7.2652 LP  0  0  0  0  0  0  0  0  0  0  0  0  # atno 5915 bound_to 677 
   20.7483   11.6110   -1.9190 LP  0  0  0  0  0  0  0  0  0  0  0  0  # atno 5920 bound_to 698 
   19.3037   11.8532   -1.1972 LP  0  0  0  0  0  0  0  0  0  0  0  0  # atno 5921 bound_to 698 
    9.9730    1.8818   -2.3708 LP  0  0  0  0  0  0  0  0  0  0  0  0  # atno 5950 bound_to 2569
    9.4833    3.1443   -3.2834 LP  0  0  0  0  0  0  0  0  0  0  0  0  # atno 5951 bound_to 2569
    8.3681    6.0021    0.1899 LP  0  0  0  0  0  0  0  0  0  0  0  0  # atno 5982 bound_to 2887
    7.3270    5.2861    1.2243 LP  0  0  0  0  0  0  0  0  0  0  0  0  # atno 5983 bound_to 2887
   19.2668    3.0263   -0.0616 LP  0  0  0  0  0  0  0  0  0  0  0  0  # atno 6000 bound_to 3171
   17.9532    2.0565   -0.0369 LP  0  0  0  0  0  0  0  0  0  0  0  0  # atno 6001 bound_to 3171
   14.0395    9.8243   10.3818 LP  0  0  0  0  0  0  0  0  0  0  0  0  # atno 6004 bound_to 5270
   13.9630   10.2142    8.7979 LP  0  0  0  0  0  0  0  0  0  0  0  0  # atno 6005 bound_to 5270
   10.1963   19.7849    8.8560 LP  0  0  0  0  0  0  0  0  0  0  0  0  # atno 6055 bound_to 637 
    9.8257   19.0781    7.4313 LP  0  0  0  0  0  0  0  0  0  0  0  0  # atno 6056 bound_to 637 
    2.2999   11.5727   10.3491 LP  0  0  0  0  0  0  0  0  0  0  0  0  # atno 6063 bound_to 1878
    1.0769   10.5541   10.7145 LP  0  0  0  0  0  0  0  0  0  0  0  0  # atno 6064 bound_to 1878
   -7.2048   16.4180    0.0478 LP  0  0  0  0  0  0  0  0  0  0  0  0  # atno 6067 bound_to 957 
   -6.6880   15.3881   -1.1093 LP  0  0  0  0  0  0  0  0  0  0  0  0  # atno 6068 bound_to 957 

>  <STRIFE_LigEff_Score>  (198) 
2.8943149999999997

$$$$
unknown|pharmsElabsTestMulti|sdf|199|dock6
     RDKit          3D

 20 21  0  0  0  0  0  0  0  0999 V2000
    5.4115    9.2759    1.4218 C   0  0  0  0  0  0  0  0  0  0  0  0
    5.2724    9.4676    2.9020 C   0  0  0  0  0  0  0  0  0  0  0  0
    4.0083    9.6916    3.4656 C   0  0  0  0  0  0  0  0  0  0  0  0
    3.8726    9.8448    4.8468 C   0  0  0  0  0  0  0  0  0  0  0  0
    4.9924    9.7568    5.6766 C   0  0  0  0  0  0  0  0  0  0  0  0
    6.2627    9.5214    5.1317 C   0  0  0  0  0  0  0  0  0  0  0  0
    7.4517    9.3861    6.0511 C   0  0  0  0  0  0  0  0  0  0  0  0
    8.5924    8.7850    5.3429 N   0  0  0  0  0  0  0  0  0  0  0  0
    9.4504    9.5981    4.5238 C   0  0  0  0  0  0  0  0  0  0  0  0
    9.1721   10.8105    4.3648 O   0  0  0  0  0  0  0  0  0  0  0  0
   10.6856    9.1342    3.8093 C   0  0  0  0  0  0  0  0  0  0  0  0
   10.5741    7.7223    3.2555 C   0  0  0  0  0  0  0  0  0  0  0  0
   11.8926    7.1408    2.7573 C   0  0  0  0  0  0  0  0  0  0  0  0
   12.9041    8.2063    2.2958 C   0  0  0  0  0  0  0  0  0  0  0  0
   14.1657    7.4920    1.7066 C   0  0  0  0  0  0  0  0  0  0  0  0
   14.7695    6.5253    2.7415 C   0  0  0  0  0  0  0  0  0  0  0  0
   13.8687    6.7534    0.4716 N   0  0  0  0  0  0  0  0  0  0  0  0
   13.2397    9.1344    3.4910 C   0  0  0  0  0  0  0  0  0  0  0  0
   12.0207    9.7039    4.2499 C   0  0  0  0  0  0  0  0  0  0  0  0
    6.3972    9.3741    3.7386 C   0  0  0  0  0  0  0  0  0  0  0  0
  1  2  1  0
  2  3  2  0
  3  4  1  0
  4  5  2  0
  5  6  1  0
  6  7  1  0
  7  8  1  0
  8  9  1  0
  9 10  2  0
  9 11  1  0
 11 12  1  0
 12 13  1  0
 13 14  1  0
 14 15  1  0
 15 16  1  0
 15 17  1  0
 14 18  1  0
 18 19  1  0
  6 20  2  0
 20  2  1  0
 19 11  1  0
M  CHG  1  17   1
M  END
>  <EmbedRMS>  (199) 
0.16810927383701896

>  <Gold.Version>  (199) 
2020.3.0

>  <Gold.Id.Protein>  (199) 
unknown|1q8t_protein|pdb

>  <Gold.PLP.Fitness>  (199) 
58.8229

>  <Gold.PLP.PLP>  (199) 
-51.0692

>  <Gold.PLP.part.hbond>  (199) 
-2.5065

>  <Gold.PLP.part.metal>  (199) 
0.0000

>  <Gold.PLP.part.buried>  (199) 
-2.0707

>  <Gold.PLP.part.nonpolar>  (199) 
-47.0903

>  <Gold.PLP.part.repulsive>  (199) 
0.1937

>  <Gold.PLP.ligand.clash>  (199) 
0.0000

>  <Gold.PLP.ligand.torsion>  (199) 
0.7364

>  <Gold.PLP.Chemscore.Hbond>  (199) 
2.8311

>  <Gold.PLP.Chemscore.CHOScore>  (199) 
0.0000

>  <Gold.PLP.Chemscore.Metal>  (199) 
0.0000

>  <Gold.Chemscore.Hbonds>  (199) 
donor molecule, donor type, donor heavy atom, donor atom, acceptor molecule, acceptor atom, score
      L1  H     8    29       P1  1940  0.02
      L1  H    17    41       P1  2902  1.98
      L1  H    17    42       P1  2691  0.83

>  <Gold.PLP.Chemscore.Internal.Correction>  (199) 
0.7330

>  <Gold.PLP.Constraint>  (199) 
-0.0000

>  <Gold.Protein.RotatedTorsions>  (199) 
[  681  677  676  673 ] final   28.54 input -179.99 | X-H torsion
[  702  698  697  694 ] final -142.88 input  179.99 | X-H torsion
[ 2577 2569 2568 2566 ] final  150.47 input   -0.13 | X-H torsion
[ 2891 2887 2886 2883 ] final  169.12 input  179.98 | X-H torsion
[ 3175 3171 3170 3167 ] final  173.30 input -179.99 | X-H torsion
[ 5278 5270 5269 5267 ] final   53.16 input    0.55 | X-H torsion
[  641  637  636  633 ] final -145.07 input  179.99 | X-H torsion
[ 1886 1878 1877 1875 ] final -153.31 input    1.60 | X-H torsion
[  965  957  956  954 ] final   32.64 input    0.45 | X-H torsion

>  <Gold.Protein.ActiveResidues>  (199) 
 LYS47   THR48   LEU49   GLY50   THR51   GLY52   SER53   PHE54   GLY55   ARG56  
 VAL57   MET58   LEU59   TYR69   ALA70   MET71   LYS72   ILE73   LEU74   GLU91  
 LEU95   VAL104  LYS105  MET118  VAL119  MET120  GLU121  TYR122  VAL123  PRO124 
 GLY125  GLY126  GLU127  MET128  PHE129  TYR164  ASP166  LEU167  LYS168  PRO169 
 GLU170  ASN171  LEU172  LEU173  ILE174  GLN181  VAL182  THR183  ASP184  PHE185 
 GLY186  PHE187  GLY200  THR201  ASN326  PHE327  TYR330  ARG18   ARG19   ASN20  
 ALA21   ILE22   HIS23  

>  <Gold.Protein.RotatedAtoms>  (199) 
   11.2754   19.1363    7.7403 H   0  0  0  0  0  0  0  0  0  0  0  0  # atno 641  bound_to 637 
   16.2234   12.5940    6.1934 H   0  0  0  0  0  0  0  0  0  0  0  0  # atno 681  bound_to 677 
   21.1133   11.5470   -1.0788 H   0  0  0  0  0  0  0  0  0  0  0  0  # atno 702  bound_to 698 
   -6.9264   15.4169   -0.5454 H   0  0  0  0  0  0  0  0  0  0  0  0  # atno 965  bound_to 957 
    0.6408   11.1328   10.9866 H   0  0  0  0  0  0  0  0  0  0  0  0  # atno 1886 bound_to 1878
   10.1519    1.8992   -2.3902 H   0  0  0  0  0  0  0  0  0  0  0  0  # atno 2577 bound_to 2569
    7.5116    6.8014    1.3480 H   0  0  0  0  0  0  0  0  0  0  0  0  # atno 2891 bound_to 2887
   18.0972    2.1614    0.1160 H   0  0  0  0  0  0  0  0  0  0  0  0  # atno 3175 bound_to 3171
   12.8271   10.1516    9.0732 H   0  0  0  0  0  0  0  0  0  0  0  0  # atno 5278 bound_to 5270
   15.8267   13.5450    7.4076 LP  0  0  0  0  0  0  0  0  0  0  0  0  # atno 5914 bound_to 677 
   17.2719   13.6969    6.6628 LP  0  0  0  0  0  0  0  0  0  0  0  0  # atno 5915 bound_to 677 
   19.8198   11.7768   -1.9796 LP  0  0  0  0  0  0  0  0  0  0  0  0  # atno 5920 bound_to 698 
   19.7135   11.7642   -0.3502 LP  0  0  0  0  0  0  0  0  0  0  0  0  # atno 5921 bound_to 698 
    9.3760    3.0239   -3.2076 LP  0  0  0  0  0  0  0  0  0  0  0  0  # atno 5950 bound_to 2569
   11.0054    3.0407   -3.0999 LP  0  0  0  0  0  0  0  0  0  0  0  0  # atno 5951 bound_to 2569
    8.3821    6.1195    0.2019 LP  0  0  0  0  0  0  0  0  0  0  0  0  # atno 5982 bound_to 2887
    7.3872    5.2273    1.1404 LP  0  0  0  0  0  0  0  0  0  0  0  0  # atno 5983 bound_to 2887
   18.4915    2.2738   -1.4226 LP  0  0  0  0  0  0  0  0  0  0  0  0  # atno 6000 bound_to 3171
   19.3510    3.0603   -0.2784 LP  0  0  0  0  0  0  0  0  0  0  0  0  # atno 6001 bound_to 3171
   13.3942    9.7846   10.5156 LP  0  0  0  0  0  0  0  0  0  0  0  0  # atno 6004 bound_to 5270
   14.4063   10.1014    9.2739 LP  0  0  0  0  0  0  0  0  0  0  0  0  # atno 6005 bound_to 5270
   10.3967   19.7932    8.8941 LP  0  0  0  0  0  0  0  0  0  0  0  0  # atno 6055 bound_to 637 
    9.6929   19.1544    7.5663 LP  0  0  0  0  0  0  0  0  0  0  0  0  # atno 6056 bound_to 637 
    1.6547   12.3403   10.7645 LP  0  0  0  0  0  0  0  0  0  0  0  0  # atno 6063 bound_to 1878
    2.0561   10.8188   10.3280 LP  0  0  0  0  0  0  0  0  0  0  0  0  # atno 6064 bound_to 1878
   -6.4368   16.4660   -1.6385 LP  0  0  0  0  0  0  0  0  0  0  0  0  # atno 6067 bound_to 957 
   -7.0764   16.9688   -0.2226 LP  0  0  0  0  0  0  0  0  0  0  0  0  # atno 6068 bound_to 957 

>  <STRIFE_LigEff_Score>  (199) 
2.9411449999999997

$$$$
unknown|pharmsElabsTestMulti|sdf|200|dock10
     RDKit          3D

 18 18  0  0  0  0  0  0  0  0999 V2000
    3.9021    9.8990    5.8629 C   0  0  0  0  0  0  0  0  0  0  0  0
    3.9253    9.5851    4.4033 C   0  0  0  0  0  0  0  0  0  0  0  0
    2.8584    9.6514    3.7345 O   0  0  0  0  0  0  0  0  0  0  0  0
    5.1628    9.2345    3.7686 N   0  0  0  0  0  0  0  0  0  0  0  0
    5.2579    8.9279    2.3429 C   0  0  0  0  0  0  0  0  0  0  0  0
    5.9030   10.0899    1.5714 C   0  0  0  0  0  0  0  0  0  0  0  0
    7.3317    9.8270    1.3441 N   0  0  0  0  0  0  0  0  0  0  0  0
    8.2258    9.6812    2.4601 C   0  0  0  0  0  0  0  0  0  0  0  0
    7.7936    9.8947    3.6199 O   0  0  0  0  0  0  0  0  0  0  0  0
    9.6619    9.2575    2.3805 C   0  0  0  0  0  0  0  0  0  0  0  0
    9.8938    7.7486    2.4925 C   0  0  0  0  0  0  0  0  0  0  0  0
   11.3772    7.3382    2.5950 C   0  0  0  0  0  0  0  0  0  0  0  0
   12.2914    8.3971    1.9587 C   0  0  0  0  0  0  0  0  0  0  0  0
   13.7636    7.9912    1.6408 C   0  0  0  0  0  0  0  0  0  0  0  0
   14.7532    9.1196    1.4041 C   0  0  0  0  0  0  0  0  0  0  0  0
   13.9691    6.8120    0.8067 N   0  0  0  0  0  0  0  0  0  0  0  0
   12.1662    9.7234    2.7361 C   0  0  0  0  0  0  0  0  0  0  0  0
   10.7165   10.2373    2.8696 C   0  0  0  0  0  0  0  0  0  0  0  0
  1  2  1  0
  2  3  2  0
  2  4  1  0
  4  5  1  0
  5  6  1  0
  6  7  1  0
  7  8  1  0
  8  9  2  0
  8 10  1  0
 10 11  1  0
 11 12  1  0
 12 13  1  0
 13 14  1  0
 14 15  1  0
 14 16  1  0
 13 17  1  0
 17 18  1  0
 18 10  1  0
M  CHG  1  16   1
M  END
>  <EmbedRMS>  (200) 
0.2509587523478319

>  <Gold.Version>  (200) 
2020.3.0

>  <Gold.Id.Protein>  (200) 
unknown|1q8t_protein|pdb

>  <Gold.PLP.Fitness>  (200) 
50.0135

>  <Gold.PLP.PLP>  (200) 
-39.0255

>  <Gold.PLP.part.hbond>  (200) 
-2.9148

>  <Gold.PLP.part.metal>  (200) 
0.0000

>  <Gold.PLP.part.buried>  (200) 
-6.3413

>  <Gold.PLP.part.nonpolar>  (200) 
-32.0149

>  <Gold.PLP.part.repulsive>  (200) 
0.2404

>  <Gold.PLP.ligand.clash>  (200) 
0.0000

>  <Gold.PLP.ligand.torsion>  (200) 
0.9884

>  <Gold.PLP.Chemscore.Hbond>  (200) 
3.9680

>  <Gold.PLP.Chemscore.CHOScore>  (200) 
0.0000

>  <Gold.PLP.Chemscore.Metal>  (200) 
0.0000

>  <Gold.Chemscore.Hbonds>  (200) 
donor molecule, donor type, donor heavy atom, donor atom, acceptor molecule, acceptor atom, score
      L1  H    16    38       P1  2691  0.99
      L1  H    16    39       P1  2902  2.00
      P1  H  1888  1903       L1     3  0.98

>  <Gold.PLP.Chemscore.Internal.Correction>  (200) 
1.0608

>  <Gold.PLP.Constraint>  (200) 
-0.0000

>  <Gold.Protein.RotatedTorsions>  (200) 
[  681  677  676  673 ] final -176.07 input -179.99 | X-H torsion
[  702  698  697  694 ] final   72.59 input  179.99 | X-H torsion
[ 2577 2569 2568 2566 ] final  -82.52 input   -0.13 | X-H torsion
[ 2891 2887 2886 2883 ] final  -51.18 input  179.98 | X-H torsion
[ 3175 3171 3170 3167 ] final  153.79 input -179.99 | X-H torsion
[ 5278 5270 5269 5267 ] final  -79.06 input    0.55 | X-H torsion
[  641  637  636  633 ] final -116.73 input  179.99 | X-H torsion
[ 1886 1878 1877 1875 ] final  169.77 input    1.60 | X-H torsion
[  965  957  956  954 ] final  -99.09 input    0.45 | X-H torsion

>  <Gold.Protein.ActiveResidues>  (200) 
 LYS47   THR48   LEU49   GLY50   THR51   GLY52   SER53   PHE54   GLY55   ARG56  
 VAL57   MET58   LEU59   TYR69   ALA70   MET71   LYS72   ILE73   LEU74   GLU91  
 LEU95   VAL104  LYS105  MET118  VAL119  MET120  GLU121  TYR122  VAL123  PRO124 
 GLY125  GLY126  GLU127  MET128  PHE129  TYR164  ASP166  LEU167  LYS168  PRO169 
 GLU170  ASN171  LEU172  LEU173  ILE174  GLN181  VAL182  THR183  ASP184  PHE185 
 GLY186  PHE187  GLY200  THR201  ASN326  PHE327  TYR330  ARG18   ARG19   ASN20  
 ALA21   ILE22   HIS23  

>  <Gold.Protein.RotatedAtoms>  (200) 
   10.9956   18.9954    7.4338 H   0  0  0  0  0  0  0  0  0  0  0  0  # atno 641  bound_to 637 
   16.9528   13.9267    7.0627 H   0  0  0  0  0  0  0  0  0  0  0  0  # atno 681  bound_to 677 
   19.5494   11.8362   -1.6998 H   0  0  0  0  0  0  0  0  0  0  0  0  # atno 702  bound_to 698 
   -6.4632   16.6299   -1.5376 H   0  0  0  0  0  0  0  0  0  0  0  0  # atno 965  bound_to 957 
    0.6672   11.6930   11.0705 H   0  0  0  0  0  0  0  0  0  0  0  0  # atno 1886 bound_to 1878
   10.9071    3.0857   -3.1587 H   0  0  0  0  0  0  0  0  0  0  0  0  # atno 2577 bound_to 2569
    7.5752    5.1850    0.8871 H   0  0  0  0  0  0  0  0  0  0  0  0  # atno 2891 bound_to 2887
   17.9711    2.0358   -0.1299 H   0  0  0  0  0  0  0  0  0  0  0  0  # atno 3175 bound_to 3171
   13.5914    9.8121   10.4822 H   0  0  0  0  0  0  0  0  0  0  0  0  # atno 5278 bound_to 5270
   16.7430   12.7306    6.0325 LP  0  0  0  0  0  0  0  0  0  0  0  0  # atno 5914 bound_to 677 
   15.5878   13.1087    7.1230 LP  0  0  0  0  0  0  0  0  0  0  0  0  # atno 5915 bound_to 677 
   20.0804   11.6963   -0.2045 LP  0  0  0  0  0  0  0  0  0  0  0  0  # atno 5920 bound_to 698 
   21.0980   11.5404   -1.4721 LP  0  0  0  0  0  0  0  0  0  0  0  0  # atno 5921 bound_to 698 
   10.2645    1.8767   -2.3460 LP  0  0  0  0  0  0  0  0  0  0  0  0  # atno 5950 bound_to 2569
    9.3217    2.9385   -3.1524 LP  0  0  0  0  0  0  0  0  0  0  0  0  # atno 5951 bound_to 2569
    7.3325    6.6185    1.5371 LP  0  0  0  0  0  0  0  0  0  0  0  0  # atno 5982 bound_to 2887
    8.3699    6.4295    0.2903 LP  0  0  0  0  0  0  0  0  0  0  0  0  # atno 5983 bound_to 2887
   18.7490    2.4605   -1.4528 LP  0  0  0  0  0  0  0  0  0  0  0  0  # atno 6000 bound_to 3171
   19.2263    3.0057    0.0106 LP  0  0  0  0  0  0  0  0  0  0  0  0  # atno 6001 bound_to 3171
   14.3127   10.1430    9.1013 LP  0  0  0  0  0  0  0  0  0  0  0  0  # atno 6004 bound_to 5270
   12.6837   10.1003    9.2056 LP  0  0  0  0  0  0  0  0  0  0  0  0  # atno 6005 bound_to 5270
   10.8510   19.7376    8.8349 LP  0  0  0  0  0  0  0  0  0  0  0  0  # atno 6055 bound_to 637 
    9.5332   19.3584    7.9483 LP  0  0  0  0  0  0  0  0  0  0  0  0  # atno 6056 bound_to 637 
    2.1143   12.0541   10.5130 LP  0  0  0  0  0  0  0  0  0  0  0  0  # atno 6063 bound_to 1878
    1.5686   10.5152   10.4912 LP  0  0  0  0  0  0  0  0  0  0  0  0  # atno 6064 bound_to 1878
   -7.1311   16.8258   -0.1056 LP  0  0  0  0  0  0  0  0  0  0  0  0  # atno 6067 bound_to 957 
   -6.8700   15.3316   -0.7105 LP  0  0  0  0  0  0  0  0  0  0  0  0  # atno 6068 bound_to 957 

>  <STRIFE_LigEff_Score>  (200) 
2.7785277777777777

$$$$
unknown|pharmsElabsTestMulti|sdf|201|dock9
     RDKit          3D

 18 19  0  0  0  0  0  0  0  0999 V2000
   14.2548    7.6266    3.6464 C   0  0  0  0  0  0  0  0  0  0  0  0
   13.4160    7.9507    2.3986 C   0  0  0  0  0  0  0  0  0  0  0  0
   13.8040    7.0746    1.2891 N   0  0  0  0  0  0  0  0  0  0  0  0
   11.8593    8.0120    2.6016 C   0  0  0  0  0  0  0  0  0  0  0  0
   11.0545    7.7040    1.3400 C   0  0  0  0  0  0  0  0  0  0  0  0
    9.5439    7.7091    1.5192 C   0  0  0  0  0  0  0  0  0  0  0  0
    9.0547    8.8367    2.3963 C   0  0  0  0  0  0  0  0  0  0  0  0
    7.5667    9.0378    2.3557 C   0  0  0  0  0  0  0  0  0  0  0  0
    6.8936    8.0365    2.7030 O   0  0  0  0  0  0  0  0  0  0  0  0
    6.8741   10.2368    1.9642 N   0  0  0  0  0  0  0  0  0  0  0  0
    5.4043   10.1977    1.8925 C   0  0  0  0  0  0  0  0  0  0  0  0
    4.7824    9.9802    3.2302 C   0  0  0  0  0  0  0  0  0  0  0  0
    5.4538   10.0744    4.3940 N   0  0  0  0  0  0  0  0  0  0  0  0
    4.4953    9.7706    5.2951 C   0  0  0  0  0  0  0  0  0  0  0  0
    3.3082    9.5050    4.7151 N   0  0  0  0  0  0  0  0  0  0  0  0
    3.4985    9.6400    3.4167 N   0  0  0  0  0  0  0  0  0  0  0  0
    9.7654    9.0512    3.7136 C   0  0  0  0  0  0  0  0  0  0  0  0
   11.2915    9.0987    3.5358 C   0  0  0  0  0  0  0  0  0  0  0  0
  1  2  1  0
  2  3  1  0
  2  4  1  0
  4  5  1  0
  5  6  1  0
  6  7  1  0
  7  8  1  0
  8  9  2  0
  8 10  1  0
 10 11  1  0
 11 12  1  0
 12 13  2  0
 13 14  1  0
 14 15  2  0
 15 16  1  0
  7 17  1  0
 17 18  1  0
 18  4  1  0
 16 12  1  0
M  CHG  1   3   1
M  END
>  <EmbedRMS>  (201) 
0.26092352120004825

>  <Gold.Version>  (201) 
2020.3.0

>  <Gold.Id.Protein>  (201) 
unknown|1q8t_protein|pdb

>  <Gold.PLP.Fitness>  (201) 
46.8204

>  <Gold.PLP.PLP>  (201) 
-32.8915

>  <Gold.PLP.part.hbond>  (201) 
-3.9581

>  <Gold.PLP.part.metal>  (201) 
0.0000

>  <Gold.PLP.part.buried>  (201) 
-1.1812

>  <Gold.PLP.part.nonpolar>  (201) 
-28.9666

>  <Gold.PLP.part.repulsive>  (201) 
0.2551

>  <Gold.PLP.ligand.clash>  (201) 
0.0000

>  <Gold.PLP.ligand.torsion>  (201) 
0.9365

>  <Gold.PLP.Chemscore.Hbond>  (201) 
5.0000

>  <Gold.PLP.Chemscore.CHOScore>  (201) 
0.0000

>  <Gold.PLP.Chemscore.Metal>  (201) 
0.0000

>  <Gold.Chemscore.Hbonds>  (201) 
donor molecule, donor type, donor heavy atom, donor atom, acceptor molecule, acceptor atom, score
      L1  H     3    23       P1  2691  1.00
      L1  H     3    25       P1  2902  2.00
      P1  H  2887  2891       L1     9  1.00
      P1  H  1888  1903       L1    15  1.00

>  <Gold.PLP.Chemscore.Internal.Correction>  (201) 
0.8018

>  <Gold.PLP.Constraint>  (201) 
-0.0000

>  <Gold.Protein.RotatedTorsions>  (201) 
[  681  677  676  673 ] final  113.69 input -179.99 | X-H torsion
[  702  698  697  694 ] final  -25.84 input  179.99 | X-H torsion
[ 2577 2569 2568 2566 ] final -117.31 input   -0.13 | X-H torsion
[ 2891 2887 2886 2883 ] final -167.74 input  179.98 | X-H torsion
[ 3175 3171 3170 3167 ] final   44.12 input -179.99 | X-H torsion
[ 5278 5270 5269 5267 ] final  163.33 input    0.55 | X-H torsion
[  641  637  636  633 ] final  -77.98 input  179.99 | X-H torsion
[ 1886 1878 1877 1875 ] final   50.89 input    1.60 | X-H torsion
[  965  957  956  954 ] final -154.06 input    0.45 | X-H torsion

>  <Gold.Protein.ActiveResidues>  (201) 
 LYS47   THR48   LEU49   GLY50   THR51   GLY52   SER53   PHE54   GLY55   ARG56  
 VAL57   MET58   LEU59   TYR69   ALA70   MET71   LYS72   ILE73   LEU74   GLU91  
 LEU95   VAL104  LYS105  MET118  VAL119  MET120  GLU121  TYR122  VAL123  PRO124 
 GLY125  GLY126  GLU127  MET128  PHE129  TYR164  ASP166  LEU167  LYS168  PRO169 
 GLU170  ASN171  LEU172  LEU173  ILE174  GLN181  VAL182  THR183  ASP184  PHE185 
 GLY186  PHE187  GLY200  THR201  ASN326  PHE327  TYR330  ARG18   ARG19   ASN20  
 ALA21   ILE22   HIS23  

>  <Gold.Protein.RotatedAtoms>  (201) 
   10.4273   18.9429    7.2687 H   0  0  0  0  0  0  0  0  0  0  0  0  # atno 641  bound_to 637 
   17.2048   13.2995    6.2847 H   0  0  0  0  0  0  0  0  0  0  0  0  # atno 681  bound_to 677 
   19.7804   11.7694   -0.3640 H   0  0  0  0  0  0  0  0  0  0  0  0  # atno 702  bound_to 698 
   -6.7262   17.1469   -0.9490 H   0  0  0  0  0  0  0  0  0  0  0  0  # atno 965  bound_to 957 
    2.0636   12.0378   10.5137 H   0  0  0  0  0  0  0  0  0  0  0  0  # atno 1886 bound_to 1878
   11.0718    2.6730   -2.8601 H   0  0  0  0  0  0  0  0  0  0  0  0  # atno 2577 bound_to 2569
    7.3162    6.5498    1.5141 H   0  0  0  0  0  0  0  0  0  0  0  0  # atno 2891 bound_to 2887
   18.6239    2.3527   -1.4019 H   0  0  0  0  0  0  0  0  0  0  0  0  # atno 3175 bound_to 3171
   14.2940   10.1452    9.1612 H   0  0  0  0  0  0  0  0  0  0  0  0  # atno 5278 bound_to 5270
   15.7818   12.6258    6.5241 LP  0  0  0  0  0  0  0  0  0  0  0  0  # atno 5914 bound_to 677 
   16.2838   13.8736    7.4502 LP  0  0  0  0  0  0  0  0  0  0  0  0  # atno 5915 bound_to 677 
   21.1581   11.5231   -1.1248 LP  0  0  0  0  0  0  0  0  0  0  0  0  # atno 5920 bound_to 698 
   19.7774   11.7839   -1.9569 LP  0  0  0  0  0  0  0  0  0  0  0  0  # atno 5921 bound_to 698 
    9.7142    1.9546   -2.4403 LP  0  0  0  0  0  0  0  0  0  0  0  0  # atno 5950 bound_to 2569
    9.6986    3.2953   -3.3724 LP  0  0  0  0  0  0  0  0  0  0  0  0  # atno 5951 bound_to 2569
    8.3603    6.4801    0.3135 LP  0  0  0  0  0  0  0  0  0  0  0  0  # atno 5982 bound_to 2887
    7.6147    5.1315    0.8540 LP  0  0  0  0  0  0  0  0  0  0  0  0  # atno 5983 bound_to 2887
   19.3020    3.0424   -0.1370 LP  0  0  0  0  0  0  0  0  0  0  0  0  # atno 6000 bound_to 3171
   17.9863    2.0903    0.0334 LP  0  0  0  0  0  0  0  0  0  0  0  0  # atno 6001 bound_to 3171
   12.7017   10.1089    9.1717 LP  0  0  0  0  0  0  0  0  0  0  0  0  # atno 6004 bound_to 5270
   13.5554    9.7839   10.5253 LP  0  0  0  0  0  0  0  0  0  0  0  0  # atno 6005 bound_to 5270
   11.3060   19.5224    8.4633 LP  0  0  0  0  0  0  0  0  0  0  0  0  # atno 6055 bound_to 637 
    9.6768   19.6290    8.4938 LP  0  0  0  0  0  0  0  0  0  0  0  0  # atno 6056 bound_to 637 
    1.5853   10.5193   10.4845 LP  0  0  0  0  0  0  0  0  0  0  0  0  # atno 6063 bound_to 1878
    0.6277   11.6871   11.1058 LP  0  0  0  0  0  0  0  0  0  0  0  0  # atno 6064 bound_to 1878
   -7.1925   15.9656    0.0114 LP  0  0  0  0  0  0  0  0  0  0  0  0  # atno 6067 bound_to 957 
   -6.5315   15.6473   -1.4475 LP  0  0  0  0  0  0  0  0  0  0  0  0  # atno 6068 bound_to 957 

>  <STRIFE_LigEff_Score>  (201) 
2.6011333333333333

$$$$
unknown|pharmsElabsTestMulti|sdf|202|dock4
     RDKit          3D

 20 21  0  0  0  0  0  0  0  0999 V2000
    5.5573   10.4004    5.6165 C   0  0  0  0  0  0  0  0  0  0  0  0
    5.2245    9.9461    4.2273 C   0  0  0  0  0  0  0  0  0  0  0  0
    3.9293    9.5025    3.9247 C   0  0  0  0  0  0  0  0  0  0  0  0
    3.6097    9.1031    2.6256 C   0  0  0  0  0  0  0  0  0  0  0  0
    4.5728    9.1612    1.6159 C   0  0  0  0  0  0  0  0  0  0  0  0
    5.8697    9.6135    1.8975 C   0  0  0  0  0  0  0  0  0  0  0  0
    6.8813    9.7096    0.7818 C   0  0  0  0  0  0  0  0  0  0  0  0
    8.2460    9.8063    1.3225 N   0  0  0  0  0  0  0  0  0  0  0  0
    8.7496    8.7940    2.2112 C   0  0  0  0  0  0  0  0  0  0  0  0
    7.9872    7.8671    2.5746 O   0  0  0  0  0  0  0  0  0  0  0  0
   10.1388    8.7274    2.7746 C   0  0  0  0  0  0  0  0  0  0  0  0
   11.0441    7.7459    2.0468 C   0  0  0  0  0  0  0  0  0  0  0  0
   12.3669    7.4735    2.7544 C   0  0  0  0  0  0  0  0  0  0  0  0
   12.8403    8.6334    3.6499 C   0  0  0  0  0  0  0  0  0  0  0  0
   14.2513    8.2869    4.2314 C   0  0  0  0  0  0  0  0  0  0  0  0
   14.3200    6.8012    4.6286 C   0  0  0  0  0  0  0  0  0  0  0  0
   15.3375    8.5853    3.2879 N   0  0  0  0  0  0  0  0  0  0  0  0
   11.7795    8.8856    4.7514 C   0  0  0  0  0  0  0  0  0  0  0  0
   10.3247    9.0243    4.2506 C   0  0  0  0  0  0  0  0  0  0  0  0
    6.1907   10.0090    3.2093 C   0  0  0  0  0  0  0  0  0  0  0  0
  1  2  1  0
  2  3  2  0
  3  4  1  0
  4  5  2  0
  5  6  1  0
  6  7  1  0
  7  8  1  0
  8  9  1  0
  9 10  2  0
  9 11  1  0
 11 12  1  0
 12 13  1  0
 13 14  1  0
 14 15  1  0
 15 16  1  0
 15 17  1  0
 14 18  1  0
 18 19  1  0
  6 20  2  0
 20  2  1  0
 19 11  1  0
M  CHG  1  17   1
M  END
>  <EmbedRMS>  (202) 
0.16810927383701896

>  <Gold.Version>  (202) 
2020.3.0

>  <Gold.Id.Protein>  (202) 
unknown|1q8t_protein|pdb

>  <Gold.PLP.Fitness>  (202) 
53.4941

>  <Gold.PLP.PLP>  (202) 
-49.0292

>  <Gold.PLP.part.hbond>  (202) 
-2.0000

>  <Gold.PLP.part.metal>  (202) 
0.0000

>  <Gold.PLP.part.buried>  (202) 
-1.8486

>  <Gold.PLP.part.nonpolar>  (202) 
-46.4967

>  <Gold.PLP.part.repulsive>  (202) 
0.0168

>  <Gold.PLP.ligand.clash>  (202) 
0.0000

>  <Gold.PLP.ligand.torsion>  (202) 
1.0747

>  <Gold.PLP.Chemscore.Hbond>  (202) 
1.9600

>  <Gold.PLP.Chemscore.CHOScore>  (202) 
0.0000

>  <Gold.PLP.Chemscore.Metal>  (202) 
0.0000

>  <Gold.Chemscore.Hbonds>  (202) 
donor molecule, donor type, donor heavy atom, donor atom, acceptor molecule, acceptor atom, score
      L1  H    17    40       P1   675  0.96
      P1  H  2887  2891       L1    10  1.00

>  <Gold.PLP.Chemscore.Internal.Correction>  (202) 
0.7343

>  <Gold.PLP.Constraint>  (202) 
-0.0000

>  <Gold.Protein.RotatedTorsions>  (202) 
[  681  677  676  673 ] final  -56.61 input -179.99 | X-H torsion
[  702  698  697  694 ] final    3.24 input  179.99 | X-H torsion
[ 2577 2569 2568 2566 ] final   98.75 input   -0.13 | X-H torsion
[ 2891 2887 2886 2883 ] final -176.84 input  179.98 | X-H torsion
[ 3175 3171 3170 3167 ] final  -18.29 input -179.99 | X-H torsion
[ 5278 5270 5269 5267 ] final  117.71 input    0.55 | X-H torsion
[  641  637  636  633 ] final  137.96 input  179.99 | X-H torsion
[ 1886 1878 1877 1875 ] final  -97.13 input    1.60 | X-H torsion
[  965  957  956  954 ] final   83.58 input    0.45 | X-H torsion

>  <Gold.Protein.ActiveResidues>  (202) 
 LYS47   THR48   LEU49   GLY50   THR51   GLY52   SER53   PHE54   GLY55   ARG56  
 VAL57   MET58   LEU59   TYR69   ALA70   MET71   LYS72   ILE73   LEU74   GLU91  
 LEU95   VAL104  LYS105  MET118  VAL119  MET120  GLU121  TYR122  VAL123  PRO124 
 GLY125  GLY126  GLU127  MET128  PHE129  TYR164  ASP166  LEU167  LYS168  PRO169 
 GLU170  ASN171  LEU172  LEU173  ILE174  GLN181  VAL182  THR183  ASP184  PHE185 
 GLY186  PHE187  GLY200  THR201  ASN326  PHE327  TYR330  ARG18   ARG19   ASN20  
 ALA21   ILE22   HIS23  

>  <Gold.Protein.RotatedAtoms>  (202) 
   11.0266   19.6412    8.7019 H   0  0  0  0  0  0  0  0  0  0  0  0  # atno 641  bound_to 637 
   15.6249   13.1335    7.0989 H   0  0  0  0  0  0  0  0  0  0  0  0  # atno 681  bound_to 677 
   19.4691   11.8308   -0.6832 H   0  0  0  0  0  0  0  0  0  0  0  0  # atno 702  bound_to 698 
   -7.1539   15.9460   -0.0343 H   0  0  0  0  0  0  0  0  0  0  0  0  # atno 965  bound_to 957 
    1.1746   10.5702   10.6553 H   0  0  0  0  0  0  0  0  0  0  0  0  # atno 1886 bound_to 1878
    9.4605    2.1720   -2.6303 H   0  0  0  0  0  0  0  0  0  0  0  0  # atno 2577 bound_to 2569
    7.3863    6.6607    1.4595 H   0  0  0  0  0  0  0  0  0  0  0  0  # atno 2891 bound_to 2887
   19.2742    2.8859   -1.0092 H   0  0  0  0  0  0  0  0  0  0  0  0  # atno 3175 bound_to 3171
   13.7295   10.2367    8.7665 H   0  0  0  0  0  0  0  0  0  0  0  0  # atno 5278 bound_to 5270
   16.9932   13.9482    7.0846 LP  0  0  0  0  0  0  0  0  0  0  0  0  # atno 5914 bound_to 677 
   16.7354   12.7260    6.0327 LP  0  0  0  0  0  0  0  0  0  0  0  0  # atno 5915 bound_to 677 
   21.0345   11.5362   -0.6680 LP  0  0  0  0  0  0  0  0  0  0  0  0  # atno 5920 bound_to 698 
   20.2284   11.7063   -2.0780 LP  0  0  0  0  0  0  0  0  0  0  0  0  # atno 5921 bound_to 698 
   10.0687    3.4103   -3.4252 LP  0  0  0  0  0  0  0  0  0  0  0  0  # atno 5950 bound_to 2569
   11.0407    2.3670   -2.6295 LP  0  0  0  0  0  0  0  0  0  0  0  0  # atno 5951 bound_to 2569
    8.3809    6.3432    0.2568 LP  0  0  0  0  0  0  0  0  0  0  0  0  # atno 5982 bound_to 2887
    7.5203    5.1517    0.9682 LP  0  0  0  0  0  0  0  0  0  0  0  0  # atno 5983 bound_to 2887
   18.6228    2.6120    0.4178 LP  0  0  0  0  0  0  0  0  0  0  0  0  # atno 6000 bound_to 3171
   17.9811    1.9596   -0.9347 LP  0  0  0  0  0  0  0  0  0  0  0  0  # atno 6001 bound_to 3171
   12.6295    9.9339    9.8779 LP  0  0  0  0  0  0  0  0  0  0  0  0  # atno 6004 bound_to 5270
   14.2215    9.8626   10.2344 LP  0  0  0  0  0  0  0  0  0  0  0  0  # atno 6005 bound_to 5270
    9.5385   19.4678    8.1631 LP  0  0  0  0  0  0  0  0  0  0  0  0  # atno 6055 bound_to 637 
   10.8131   18.9480    7.2846 LP  0  0  0  0  0  0  0  0  0  0  0  0  # atno 6056 bound_to 637 
    0.8634   12.0761   11.0683 LP  0  0  0  0  0  0  0  0  0  0  0  0  # atno 6063 bound_to 1878
    2.2855   11.6753   10.3729 LP  0  0  0  0  0  0  0  0  0  0  0  0  # atno 6064 bound_to 1878
   -6.5209   15.6773   -1.4703 LP  0  0  0  0  0  0  0  0  0  0  0  0  # atno 6067 bound_to 957 
   -6.7527   17.2004   -0.9291 LP  0  0  0  0  0  0  0  0  0  0  0  0  # atno 6068 bound_to 957 

>  <STRIFE_LigEff_Score>  (202) 
2.6747050000000003

$$$$
unknown|pharmsElabsTestMulti|sdf|203|dock4
     RDKit          3D

 17 17  0  0  0  0  0  0  0  0999 V2000
    3.5959    8.3085    2.5798 C   0  0  0  0  0  0  0  0  0  0  0  0
    3.4952    9.6749    3.2542 C   0  0  0  0  0  0  0  0  0  0  0  0
    3.8683    9.6120    4.7368 C   0  0  0  0  0  0  0  0  0  0  0  0
    5.3315    9.2145    4.9372 C   0  0  0  0  0  0  0  0  0  0  0  0
    6.2530   10.3447    4.4887 C   0  0  0  0  0  0  0  0  0  0  0  0
    7.6068    9.8410    4.3007 N   0  0  0  0  0  0  0  0  0  0  0  0
    7.9340    8.9080    3.2670 C   0  0  0  0  0  0  0  0  0  0  0  0
    7.0527    8.5465    2.4353 O   0  0  0  0  0  0  0  0  0  0  0  0
    9.3432    8.3864    3.1531 C   0  0  0  0  0  0  0  0  0  0  0  0
    9.7398    8.3185    1.6830 C   0  0  0  0  0  0  0  0  0  0  0  0
   11.1078    7.6950    1.4773 C   0  0  0  0  0  0  0  0  0  0  0  0
   12.1695    8.0980    2.5180 C   0  0  0  0  0  0  0  0  0  0  0  0
   13.6587    8.0615    2.0243 C   0  0  0  0  0  0  0  0  0  0  0  0
   14.7299    7.8775    3.1099 C   0  0  0  0  0  0  0  0  0  0  0  0
   13.8637    7.0898    0.9440 N   0  0  0  0  0  0  0  0  0  0  0  0
   11.7956    9.0624    3.6630 C   0  0  0  0  0  0  0  0  0  0  0  0
   10.2973    9.2974    3.9331 C   0  0  0  0  0  0  0  0  0  0  0  0
  1  2  1  0
  2  3  1  0
  3  4  1  0
  4  5  1  0
  5  6  1  0
  6  7  1  0
  7  8  2  0
  7  9  1  0
  9 10  1  0
 10 11  1  0
 11 12  1  0
 12 13  1  0
 13 14  1  0
 13 15  1  0
 12 16  1  0
 16 17  1  0
 17  9  1  0
M  CHG  1  15   1
M  END
>  <EmbedRMS>  (203) 
0.16933320433084326

>  <Gold.Version>  (203) 
2020.3.0

>  <Gold.Id.Protein>  (203) 
unknown|1q8t_protein|pdb

>  <Gold.PLP.Fitness>  (203) 
54.9285

>  <Gold.PLP.PLP>  (203) 
-44.4147

>  <Gold.PLP.part.hbond>  (203) 
-3.0000

>  <Gold.PLP.part.metal>  (203) 
0.0000

>  <Gold.PLP.part.buried>  (203) 
-5.1471

>  <Gold.PLP.part.nonpolar>  (203) 
-36.3225

>  <Gold.PLP.part.repulsive>  (203) 
0.0622

>  <Gold.PLP.ligand.clash>  (203) 
0.0000

>  <Gold.PLP.ligand.torsion>  (203) 
1.0196

>  <Gold.PLP.Chemscore.Hbond>  (203) 
3.9750

>  <Gold.PLP.Chemscore.CHOScore>  (203) 
0.0000

>  <Gold.PLP.Chemscore.Metal>  (203) 
0.0000

>  <Gold.Chemscore.Hbonds>  (203) 
donor molecule, donor type, donor heavy atom, donor atom, acceptor molecule, acceptor atom, score
      L1  H    15    40       P1  2902  2.00
      L1  H    15    41       P1  2691  1.00
      P1  H  2887  2891       L1     8  0.98

>  <Gold.PLP.Chemscore.Internal.Correction>  (203) 
0.6279

>  <Gold.PLP.Constraint>  (203) 
-0.0000

>  <Gold.Protein.RotatedTorsions>  (203) 
[  681  677  676  673 ] final  -69.24 input -179.99 | X-H torsion
[  702  698  697  694 ] final   86.41 input  179.99 | X-H torsion
[ 2577 2569 2568 2566 ] final -143.58 input   -0.13 | X-H torsion
[ 2891 2887 2886 2883 ] final  163.33 input  179.98 | X-H torsion
[ 3175 3171 3170 3167 ] final  -74.96 input -179.99 | X-H torsion
[ 5278 5270 5269 5267 ] final -103.92 input    0.55 | X-H torsion
[  641  637  636  633 ] final  -81.50 input  179.99 | X-H torsion
[ 1886 1878 1877 1875 ] final   26.37 input    1.60 | X-H torsion
[  965  957  956  954 ] final  149.51 input    0.45 | X-H torsion

>  <Gold.Protein.ActiveResidues>  (203) 
 LYS47   THR48   LEU49   GLY50   THR51   GLY52   SER53   PHE54   GLY55   ARG56  
 VAL57   MET58   LEU59   TYR69   ALA70   MET71   LYS72   ILE73   LEU74   GLU91  
 LEU95   VAL104  LYS105  MET118  VAL119  MET120  GLU121  TYR122  VAL123  PRO124 
 GLY125  GLY126  GLU127  MET128  PHE129  TYR164  ASP166  LEU167  LYS168  PRO169 
 GLU170  ASN171  LEU172  LEU173  ILE174  GLN181  VAL182  THR183  ASP184  PHE185 
 GLY186  PHE187  GLY200  THR201  ASN326  PHE327  TYR330  ARG18   ARG19   ASN20  
 ALA21   ILE22   HIS23  

>  <Gold.Protein.RotatedAtoms>  (203) 
   10.4823   18.9400    7.2691 H   0  0  0  0  0  0  0  0  0  0  0  0  # atno 641  bound_to 637 
   15.6753   13.2835    7.2164 H   0  0  0  0  0  0  0  0  0  0  0  0  # atno 681  bound_to 677 
   19.7026   11.8119   -1.8496 H   0  0  0  0  0  0  0  0  0  0  0  0  # atno 702  bound_to 698 
   -7.0636   16.8996   -0.2128 H   0  0  0  0  0  0  0  0  0  0  0  0  # atno 965  bound_to 957 
    2.2245   11.7170   10.3880 H   0  0  0  0  0  0  0  0  0  0  0  0  # atno 1886 bound_to 1878
   10.9832    2.3437   -2.6379 H   0  0  0  0  0  0  0  0  0  0  0  0  # atno 2577 bound_to 2569
    7.5679    6.8471    1.2938 H   0  0  0  0  0  0  0  0  0  0  0  0  # atno 2891 bound_to 2887
   19.2843    3.0036   -0.1672 H   0  0  0  0  0  0  0  0  0  0  0  0  # atno 3175 bound_to 3171
   13.9615    9.8417   10.3777 H   0  0  0  0  0  0  0  0  0  0  0  0  # atno 5278 bound_to 5270
   17.1245   13.8824    6.9381 LP  0  0  0  0  0  0  0  0  0  0  0  0  # atno 5914 bound_to 677 
   16.5510   12.6339    6.0556 LP  0  0  0  0  0  0  0  0  0  0  0  0  # atno 5915 bound_to 677 
   19.8660   11.7356   -0.2669 LP  0  0  0  0  0  0  0  0  0  0  0  0  # atno 5920 bound_to 698 
   21.1514   11.5267   -1.2521 LP  0  0  0  0  0  0  0  0  0  0  0  0  # atno 5921 bound_to 698 
    9.3993    2.1819   -2.6213 LP  0  0  0  0  0  0  0  0  0  0  0  0  # atno 5950 bound_to 2569
   10.1067    3.4146   -3.4254 LP  0  0  0  0  0  0  0  0  0  0  0  0  # atno 5951 bound_to 2569
    8.3716    6.0254    0.1914 LP  0  0  0  0  0  0  0  0  0  0  0  0  # atno 5982 bound_to 2887
    7.3384    5.2734    1.2080 LP  0  0  0  0  0  0  0  0  0  0  0  0  # atno 5983 bound_to 2887
   17.9928    2.0967    0.0456 LP  0  0  0  0  0  0  0  0  0  0  0  0  # atno 6000 bound_to 3171
   18.6004    2.3510   -1.4486 LP  0  0  0  0  0  0  0  0  0  0  0  0  # atno 6001 bound_to 3171
   14.0191   10.2072    8.8286 LP  0  0  0  0  0  0  0  0  0  0  0  0  # atno 6004 bound_to 5270
   12.5878   10.0049    9.5884 LP  0  0  0  0  0  0  0  0  0  0  0  0  # atno 6005 bound_to 5270
   11.2778   19.5466    8.5077 LP  0  0  0  0  0  0  0  0  0  0  0  0  # atno 6055 bound_to 637 
    9.6471   19.6077    8.4488 LP  0  0  0  0  0  0  0  0  0  0  0  0  # atno 6056 bound_to 637 
    1.2185   10.5098   10.6446 LP  0  0  0  0  0  0  0  0  0  0  0  0  # atno 6063 bound_to 1878
    0.8251   12.0343   11.0780 LP  0  0  0  0  0  0  0  0  0  0  0  0  # atno 6064 bound_to 1878
   -6.9272   15.3574   -0.5842 LP  0  0  0  0  0  0  0  0  0  0  0  0  # atno 6067 bound_to 957 
   -6.4414   16.5160   -1.6273 LP  0  0  0  0  0  0  0  0  0  0  0  0  # atno 6068 bound_to 957 

>  <STRIFE_LigEff_Score>  (203) 
3.2310882352941177

$$$$
unknown|pharmsElabsTestMulti|sdf|204|dock8
     RDKit          3D

 18 18  0  0  0  0  0  0  0  0999 V2000
    3.4937    9.7805    1.5651 C   0  0  0  0  0  0  0  0  0  0  0  0
    2.9503    9.1982    2.7706 N   0  0  0  0  0  0  0  0  0  0  0  0
    3.9519    8.4139    3.4915 C   0  0  0  0  0  0  0  0  0  0  0  0
    4.6908    9.4318    4.3551 C   0  0  0  0  0  0  0  0  0  0  0  0
    3.9758    9.8972    5.5969 C   0  0  0  0  0  0  0  0  0  0  0  0
    5.6711   10.3016    3.5648 C   0  0  0  0  0  0  0  0  0  0  0  0
    7.0461    9.8796    3.7257 N   0  0  0  0  0  0  0  0  0  0  0  0
    7.6798    9.1094    2.7099 C   0  0  0  0  0  0  0  0  0  0  0  0
    7.0887    8.9003    1.6113 O   0  0  0  0  0  0  0  0  0  0  0  0
    9.0621    8.5773    2.9365 C   0  0  0  0  0  0  0  0  0  0  0  0
    9.6172    8.0597    1.6153 C   0  0  0  0  0  0  0  0  0  0  0  0
   10.9745    7.4070    1.7762 C   0  0  0  0  0  0  0  0  0  0  0  0
   11.9240    8.1219    2.7558 C   0  0  0  0  0  0  0  0  0  0  0  0
   13.4560    7.9451    2.4713 C   0  0  0  0  0  0  0  0  0  0  0  0
   14.3179    7.4863    3.6571 C   0  0  0  0  0  0  0  0  0  0  0  0
   13.7100    7.0937    1.3036 N   0  0  0  0  0  0  0  0  0  0  0  0
   11.4551    9.3925    3.4952 C   0  0  0  0  0  0  0  0  0  0  0  0
    9.9455    9.6893    3.5080 C   0  0  0  0  0  0  0  0  0  0  0  0
  1  2  1  0
  2  3  1  0
  3  4  1  0
  4  5  1  0
  4  6  1  0
  6  7  1  0
  7  8  1  0
  8  9  2  0
  8 10  1  0
 10 11  1  0
 11 12  1  0
 12 13  1  0
 13 14  1  0
 14 15  1  0
 14 16  1  0
 13 17  1  0
 17 18  1  0
 18 10  1  0
M  CHG  1  16   1
M  END
>  <EmbedRMS>  (204) 
0.25314871758370117

>  <Gold.Version>  (204) 
2020.3.0

>  <Gold.Id.Protein>  (204) 
unknown|1q8t_protein|pdb

>  <Gold.PLP.Fitness>  (204) 
52.6516

>  <Gold.PLP.PLP>  (204) 
-44.5360

>  <Gold.PLP.part.hbond>  (204) 
-4.0000

>  <Gold.PLP.part.metal>  (204) 
0.0000

>  <Gold.PLP.part.buried>  (204) 
-1.8894

>  <Gold.PLP.part.nonpolar>  (204) 
-38.2177

>  <Gold.PLP.part.repulsive>  (204) 
0.0464

>  <Gold.PLP.ligand.clash>  (204) 
0.0000

>  <Gold.PLP.ligand.torsion>  (204) 
2.2575

>  <Gold.PLP.Chemscore.Hbond>  (204) 
3.8154

>  <Gold.PLP.Chemscore.CHOScore>  (204) 
0.0000

>  <Gold.PLP.Chemscore.Metal>  (204) 
0.0000

>  <Gold.Chemscore.Hbonds>  (204) 
donor molecule, donor type, donor heavy atom, donor atom, acceptor molecule, acceptor atom, score
      L1  H    16    42       P1  2691  1.00
      L1  H    16    43       P1  2902  2.00
      P1  H  2887  2891       L1     9  0.82

>  <Gold.PLP.Chemscore.Internal.Correction>  (204) 
1.1844

>  <Gold.PLP.Constraint>  (204) 
-0.0000

>  <Gold.Protein.RotatedTorsions>  (204) 
[  681  677  676  673 ] final   73.07 input -179.99 | X-H torsion
[  702  698  697  694 ] final -125.10 input  179.99 | X-H torsion
[ 2577 2569 2568 2566 ] final   84.89 input   -0.13 | X-H torsion
[ 2891 2887 2886 2883 ] final  144.54 input  179.98 | X-H torsion
[ 3175 3171 3170 3167 ] final  178.74 input -179.99 | X-H torsion
[ 5278 5270 5269 5267 ] final -144.76 input    0.55 | X-H torsion
[  641  637  636  633 ] final  103.82 input  179.99 | X-H torsion
[ 1886 1878 1877 1875 ] final   66.10 input    1.60 | X-H torsion
[  965  957  956  954 ] final  -82.04 input    0.45 | X-H torsion

>  <Gold.Protein.ActiveResidues>  (204) 
 LYS47   THR48   LEU49   GLY50   THR51   GLY52   SER53   PHE54   GLY55   ARG56  
 VAL57   MET58   LEU59   TYR69   ALA70   MET71   LYS72   ILE73   LEU74   GLU91  
 LEU95   VAL104  LYS105  MET118  VAL119  MET120  GLU121  TYR122  VAL123  PRO124 
 GLY125  GLY126  GLU127  MET128  PHE129  TYR164  ASP166  LEU167  LYS168  PRO169 
 GLU170  ASN171  LEU172  LEU173  ILE174  GLN181  VAL182  THR183  ASP184  PHE185 
 GLY186  PHE187  GLY200  THR201  ASN326  PHE327  TYR330  ARG18   ARG19   ASN20  
 ALA21   ILE22   HIS23  

>  <Gold.Protein.RotatedAtoms>  (204) 
   10.5381   19.7506    8.8627 H   0  0  0  0  0  0  0  0  0  0  0  0  # atno 641  bound_to 637 
   16.8393   12.8476    6.0632 H   0  0  0  0  0  0  0  0  0  0  0  0  # atno 681  bound_to 677 
   21.0534   11.5524   -0.8085 H   0  0  0  0  0  0  0  0  0  0  0  0  # atno 702  bound_to 698 
   -6.4363   16.3738   -1.6022 H   0  0  0  0  0  0  0  0  0  0  0  0  # atno 965  bound_to 957 
    1.9037   12.1844   10.6092 H   0  0  0  0  0  0  0  0  0  0  0  0  # atno 1886 bound_to 1878
    9.3537    2.3225   -2.7426 H   0  0  0  0  0  0  0  0  0  0  0  0  # atno 2577 bound_to 2569
    7.7601    6.9382    1.0930 H   0  0  0  0  0  0  0  0  0  0  0  0  # atno 2891 bound_to 2887
   18.1443    2.2037    0.1726 H   0  0  0  0  0  0  0  0  0  0  0  0  # atno 3175 bound_to 3171
   14.3700    9.9590    9.9193 H   0  0  0  0  0  0  0  0  0  0  0  0  # atno 5278 bound_to 5270
   15.5763   12.9988    7.0212 LP  0  0  0  0  0  0  0  0  0  0  0  0  # atno 5914 bound_to 677 
   16.8740   13.9762    7.1862 LP  0  0  0  0  0  0  0  0  0  0  0  0  # atno 5915 bound_to 677 
   20.0936   11.7299   -2.0673 LP  0  0  0  0  0  0  0  0  0  0  0  0  # atno 5920 bound_to 698 
   19.5027   11.8054   -0.5469 LP  0  0  0  0  0  0  0  0  0  0  0  0  # atno 5921 bound_to 698 
   10.2957    3.4171   -3.4133 LP  0  0  0  0  0  0  0  0  0  0  0  0  # atno 5950 bound_to 2569
   10.9261    2.2018   -2.5232 LP  0  0  0  0  0  0  0  0  0  0  0  0  # atno 5951 bound_to 2569
    8.2958    5.7275    0.2078 LP  0  0  0  0  0  0  0  0  0  0  0  0  # atno 5982 bound_to 2887
    7.2119    5.4753    1.4029 LP  0  0  0  0  0  0  0  0  0  0  0  0  # atno 5983 bound_to 2887
   18.4215    2.2255   -1.3953 LP  0  0  0  0  0  0  0  0  0  0  0  0  # atno 6000 bound_to 3171
   19.3715    3.0641   -0.3653 LP  0  0  0  0  0  0  0  0  0  0  0  0  # atno 6001 bound_to 3171
   13.3730   10.2304    8.7073 LP  0  0  0  0  0  0  0  0  0  0  0  0  # atno 6004 bound_to 5270
   12.8041    9.8583   10.1920 LP  0  0  0  0  0  0  0  0  0  0  0  0  # atno 6005 bound_to 5270
    9.6200   19.2152    7.6772 LP  0  0  0  0  0  0  0  0  0  0  0  0  # atno 6055 bound_to 637 
   11.2460   19.0855    7.6011 LP  0  0  0  0  0  0  0  0  0  0  0  0  # atno 6056 bound_to 637 
    1.8037   10.6086   10.4034 LP  0  0  0  0  0  0  0  0  0  0  0  0  # atno 6063 bound_to 1878
    0.5776   11.4435   11.0864 LP  0  0  0  0  0  0  0  0  0  0  0  0  # atno 6064 bound_to 1878
   -7.0480   17.0244   -0.2839 LP  0  0  0  0  0  0  0  0  0  0  0  0  # atno 6067 bound_to 957 
   -6.9814   15.4027   -0.4642 LP  0  0  0  0  0  0  0  0  0  0  0  0  # atno 6068 bound_to 957 

>  <STRIFE_LigEff_Score>  (204) 
2.925088888888889

$$$$
unknown|pharmsElabsTestMulti|sdf|205|dock3
     RDKit          3D

 17 17  0  0  0  0  0  0  0  0999 V2000
   13.8955    7.3305    3.5768 C   0  0  0  0  0  0  0  0  0  0  0  0
   13.0750    7.9162    2.4178 C   0  0  0  0  0  0  0  0  0  0  0  0
   13.2620    7.1068    1.2082 N   0  0  0  0  0  0  0  0  0  0  0  0
   11.5605    8.2028    2.7147 C   0  0  0  0  0  0  0  0  0  0  0  0
   10.5533    7.2413    2.0559 C   0  0  0  0  0  0  0  0  0  0  0  0
    9.1837    7.8357    1.7817 C   0  0  0  0  0  0  0  0  0  0  0  0
    8.7041    8.7478    2.9055 C   0  0  0  0  0  0  0  0  0  0  0  0
    7.2975    9.2087    2.6134 C   0  0  0  0  0  0  0  0  0  0  0  0
    7.0621    9.9307    1.6027 O   0  0  0  0  0  0  0  0  0  0  0  0
    6.2378    8.8608    3.5095 N   0  0  0  0  0  0  0  0  0  0  0  0
    4.8384    9.1786    3.2376 C   0  0  0  0  0  0  0  0  0  0  0  0
    4.1247    9.5862    4.5349 C   0  0  0  0  0  0  0  0  0  0  0  0
    5.0339   10.1860    5.6168 C   0  0  0  0  0  0  0  0  0  0  0  0
    3.1066   10.3241    4.3472 O   0  0  0  0  0  0  0  0  0  0  0  0
    3.3005    8.6902    4.9415 O   0  0  0  0  0  0  0  0  0  0  0  0
    9.6272    9.9630    3.0509 C   0  0  0  0  0  0  0  0  0  0  0  0
   11.1354    9.6473    3.0510 C   0  0  0  0  0  0  0  0  0  0  0  0
  1  2  1  0
  2  3  1  0
  2  4  1  0
  4  5  1  0
  5  6  1  0
  6  7  1  0
  7  8  1  0
  8  9  2  0
  8 10  1  0
 10 11  1  0
 11 12  1  0
 12 13  1  0
 12 14  1  0
 12 15  1  0
  7 16  1  0
 16 17  1  0
 17  4  1  0
M  CHG  1   3   1
M  END
>  <EmbedRMS>  (205) 
0.7100198817626026

>  <Gold.Version>  (205) 
2020.3.0

>  <Gold.Id.Protein>  (205) 
unknown|1q8t_protein|pdb

>  <Gold.PLP.Fitness>  (205) 
43.0337

>  <Gold.PLP.PLP>  (205) 
-35.5644

>  <Gold.PLP.part.hbond>  (205) 
-4.7784

>  <Gold.PLP.part.metal>  (205) 
0.0000

>  <Gold.PLP.part.buried>  (205) 
-0.4044

>  <Gold.PLP.part.nonpolar>  (205) 
-31.8196

>  <Gold.PLP.part.repulsive>  (205) 
0.0396

>  <Gold.PLP.ligand.clash>  (205) 
0.0000

>  <Gold.PLP.ligand.torsion>  (205) 
2.0910

>  <Gold.PLP.Chemscore.Hbond>  (205) 
3.6354

>  <Gold.PLP.Chemscore.CHOScore>  (205) 
0.0000

>  <Gold.PLP.Chemscore.Metal>  (205) 
0.0000

>  <Gold.Chemscore.Hbonds>  (205) 
donor molecule, donor type, donor heavy atom, donor atom, acceptor molecule, acceptor atom, score
      L1  H     3    23       P1  2902  2.00
      L1  H     3    24       P1  2691  1.00
      P1  H  1888  1903       L1    15  0.64

>  <Gold.PLP.Chemscore.Internal.Correction>  (205) 
0.7448

>  <Gold.PLP.Constraint>  (205) 
-0.0000

>  <Gold.Protein.RotatedTorsions>  (205) 
[  681  677  676  673 ] final -131.72 input -179.99 | X-H torsion
[  702  698  697  694 ] final   40.78 input  179.99 | X-H torsion
[ 2577 2569 2568 2566 ] final -156.13 input   -0.13 | X-H torsion
[ 2891 2887 2886 2883 ] final  -42.03 input  179.98 | X-H torsion
[ 3175 3171 3170 3167 ] final  164.08 input -179.99 | X-H torsion
[ 5278 5270 5269 5267 ] final  -82.24 input    0.55 | X-H torsion
[  641  637  636  633 ] final -159.40 input  179.99 | X-H torsion
[ 1886 1878 1877 1875 ] final   -9.86 input    1.60 | X-H torsion
[  965  957  956  954 ] final   29.17 input    0.45 | X-H torsion

>  <Gold.Protein.ActiveResidues>  (205) 
 LYS47   THR48   LEU49   GLY50   THR51   GLY52   SER53   PHE54   GLY55   ARG56  
 VAL57   MET58   LEU59   TYR69   ALA70   MET71   LYS72   ILE73   LEU74   GLU91  
 LEU95   VAL104  LYS105  MET118  VAL119  MET120  GLU121  TYR122  VAL123  PRO124 
 GLY125  GLY126  GLU127  MET128  PHE129  TYR164  ASP166  LEU167  LYS168  PRO169 
 GLU170  ASN171  LEU172  LEU173  ILE174  GLN181  VAL182  THR183  ASP184  PHE185 
 GLY186  PHE187  GLY200  THR201  ASN326  PHE327  TYR330  ARG18   ARG19   ASN20  
 ALA21   ILE22   HIS23  

>  <Gold.Protein.RotatedAtoms>  (205) 
   11.3458   19.2296    7.9306 H   0  0  0  0  0  0  0  0  0  0  0  0  # atno 641  bound_to 637 
   16.3616   13.8857    7.3883 H   0  0  0  0  0  0  0  0  0  0  0  0  # atno 681  bound_to 677 
   19.3577   11.8614   -1.2482 H   0  0  0  0  0  0  0  0  0  0  0  0  # atno 702  bound_to 698 
   -6.9049   15.4018   -0.5929 H   0  0  0  0  0  0  0  0  0  0  0  0  # atno 965  bound_to 957 
    2.1988   11.1669   10.3055 H   0  0  0  0  0  0  0  0  0  0  0  0  # atno 1886 bound_to 1878
   10.8797    2.2038   -2.5484 H   0  0  0  0  0  0  0  0  0  0  0  0  # atno 2577 bound_to 2569
    7.6680    5.1797    0.7784 H   0  0  0  0  0  0  0  0  0  0  0  0  # atno 2891 bound_to 2887
   18.0287    2.0964    0.0072 H   0  0  0  0  0  0  0  0  0  0  0  0  # atno 3175 bound_to 3171
   13.6409    9.8137   10.4777 H   0  0  0  0  0  0  0  0  0  0  0  0  # atno 5278 bound_to 5270
   17.2211   13.2220    6.2235 LP  0  0  0  0  0  0  0  0  0  0  0  0  # atno 5914 bound_to 677 
   15.7320   12.6604    6.5892 LP  0  0  0  0  0  0  0  0  0  0  0  0  # atno 5915 bound_to 677 
   20.5858   11.6079   -0.2660 LP  0  0  0  0  0  0  0  0  0  0  0  0  # atno 5920 bound_to 698 
   20.7943   11.6022   -1.8856 LP  0  0  0  0  0  0  0  0  0  0  0  0  # atno 5921 bound_to 698 
    9.3027    2.3280   -2.7298 LP  0  0  0  0  0  0  0  0  0  0  0  0  # atno 5950 bound_to 2569
   10.3123    3.4158   -3.4112 LP  0  0  0  0  0  0  0  0  0  0  0  0  # atno 5951 bound_to 2569
    7.2652    6.4926    1.5849 LP  0  0  0  0  0  0  0  0  0  0  0  0  # atno 5982 bound_to 2887
    8.3395    6.5609    0.3569 LP  0  0  0  0  0  0  0  0  0  0  0  0  # atno 5983 bound_to 2887
   18.6131    2.3602   -1.4504 LP  0  0  0  0  0  0  0  0  0  0  0  0  # atno 6000 bound_to 3171
   19.3016    3.0423   -0.1361 LP  0  0  0  0  0  0  0  0  0  0  0  0  # atno 6001 bound_to 3171
   14.2823   10.1529    9.0599 LP  0  0  0  0  0  0  0  0  0  0  0  0  # atno 6004 bound_to 5270
   12.6619   10.0887    9.2518 LP  0  0  0  0  0  0  0  0  0  0  0  0  # atno 6005 bound_to 5270
   10.1666   19.7819    8.8468 LP  0  0  0  0  0  0  0  0  0  0  0  0  # atno 6055 bound_to 637 
    9.8489   19.0675    7.4131 LP  0  0  0  0  0  0  0  0  0  0  0  0  # atno 6056 bound_to 637 
    0.7669   10.7906   10.8915 LP  0  0  0  0  0  0  0  0  0  0  0  0  # atno 6063 bound_to 1878
    1.3037   12.3326   10.9179 LP  0  0  0  0  0  0  0  0  0  0  0  0  # atno 6064 bound_to 1878
   -6.4420   16.5215   -1.6259 LP  0  0  0  0  0  0  0  0  0  0  0  0  # atno 6067 bound_to 957 
   -7.0938   16.9293   -0.1852 LP  0  0  0  0  0  0  0  0  0  0  0  0  # atno 6068 bound_to 957 

>  <STRIFE_LigEff_Score>  (205) 
2.531394117647059

$$$$
unknown|pharmsElabsTestMulti|sdf|206|dock9
     RDKit          3D

 17 17  0  0  0  0  0  0  0  0999 V2000
    3.5246    8.3339    2.3068 C   0  0  0  0  0  0  0  0  0  0  0  0
    4.5282    9.1426    2.9850 N   0  0  0  0  0  0  0  0  0  0  0  0
    4.3601    9.5705    4.3409 C   0  0  0  0  0  0  0  0  0  0  0  0
    3.3268    9.2511    4.9887 O   0  0  0  0  0  0  0  0  0  0  0  0
    5.4075   10.4098    4.9949 C   0  0  0  0  0  0  0  0  0  0  0  0
    6.7324    9.7731    4.9475 N   0  0  0  0  0  0  0  0  0  0  0  0
    7.4057    9.6948    3.6795 C   0  0  0  0  0  0  0  0  0  0  0  0
    6.8115   10.1048    2.6509 O   0  0  0  0  0  0  0  0  0  0  0  0
    8.7977    9.1840    3.4495 C   0  0  0  0  0  0  0  0  0  0  0  0
    8.8777    7.7688    2.8706 C   0  0  0  0  0  0  0  0  0  0  0  0
   10.3047    7.1864    2.8069 C   0  0  0  0  0  0  0  0  0  0  0  0
   11.3576    8.3035    2.7346 C   0  0  0  0  0  0  0  0  0  0  0  0
   12.8038    7.9135    2.2983 C   0  0  0  0  0  0  0  0  0  0  0  0
   13.8831    8.9693    2.4685 C   0  0  0  0  0  0  0  0  0  0  0  0
   12.9439    7.0819    1.1077 N   0  0  0  0  0  0  0  0  0  0  0  0
   11.3045    9.1490    4.0236 C   0  0  0  0  0  0  0  0  0  0  0  0
    9.9045    9.7144    4.3463 C   0  0  0  0  0  0  0  0  0  0  0  0
  1  2  1  0
  2  3  1  0
  3  4  2  0
  3  5  1  0
  5  6  1  0
  6  7  1  0
  7  8  2  0
  7  9  1  0
  9 10  1  0
 10 11  1  0
 11 12  1  0
 12 13  1  0
 13 14  1  0
 13 15  1  0
 12 16  1  0
 16 17  1  0
 17  9  1  0
M  CHG  1  15   1
M  END
>  <EmbedRMS>  (206) 
0.2569057114362328

>  <Gold.Version>  (206) 
2020.3.0

>  <Gold.Id.Protein>  (206) 
unknown|1q8t_protein|pdb

>  <Gold.PLP.Fitness>  (206) 
46.9465

>  <Gold.PLP.PLP>  (206) 
-36.0290

>  <Gold.PLP.part.hbond>  (206) 
-2.5108

>  <Gold.PLP.part.metal>  (206) 
0.0000

>  <Gold.PLP.part.buried>  (206) 
-4.2754

>  <Gold.PLP.part.nonpolar>  (206) 
-29.8743

>  <Gold.PLP.part.repulsive>  (206) 
0.5631

>  <Gold.PLP.ligand.clash>  (206) 
0.0000

>  <Gold.PLP.ligand.torsion>  (206) 
0.5941

>  <Gold.PLP.Chemscore.Hbond>  (206) 
3.7016

>  <Gold.PLP.Chemscore.CHOScore>  (206) 
0.0000

>  <Gold.PLP.Chemscore.Metal>  (206) 
0.0000

>  <Gold.Chemscore.Hbonds>  (206) 
donor molecule, donor type, donor heavy atom, donor atom, acceptor molecule, acceptor atom, score
      L1  H    15    36       P1  2691  0.72
      L1  H    15    37       P1  2902  1.98
      P1  H  1888  1903       L1     4  1.00

>  <Gold.PLP.Chemscore.Internal.Correction>  (206) 
1.0009

>  <Gold.PLP.Constraint>  (206) 
-0.0000

>  <Gold.Protein.RotatedTorsions>  (206) 
[  681  677  676  673 ] final  -56.10 input -179.99 | X-H torsion
[  702  698  697  694 ] final -107.33 input  179.99 | X-H torsion
[ 2577 2569 2568 2566 ] final -172.66 input   -0.13 | X-H torsion
[ 2891 2887 2886 2883 ] final -147.49 input  179.98 | X-H torsion
[ 3175 3171 3170 3167 ] final -164.11 input -179.99 | X-H torsion
[ 5278 5270 5269 5267 ] final    3.04 input    0.55 | X-H torsion
[  641  637  636  633 ] final   24.87 input  179.99 | X-H torsion
[ 1886 1878 1877 1875 ] final  172.26 input    1.60 | X-H torsion
[  965  957  956  954 ] final  162.30 input    0.45 | X-H torsion

>  <Gold.Protein.ActiveResidues>  (206) 
 LYS47   THR48   LEU49   GLY50   THR51   GLY52   SER53   PHE54   GLY55   ARG56  
 VAL57   MET58   LEU59   TYR69   ALA70   MET71   LYS72   ILE73   LEU74   GLU91  
 LEU95   VAL104  LYS105  MET118  VAL119  MET120  GLU121  TYR122  VAL123  PRO124 
 GLY125  GLY126  GLU127  MET128  PHE129  TYR164  ASP166  LEU167  LYS168  PRO169 
 GLU170  ASN171  LEU172  LEU173  ILE174  GLN181  VAL182  THR183  ASP184  PHE185 
 GLY186  PHE187  GLY200  THR201  ASN326  PHE327  TYR330  ARG18   ARG19   ASN20  
 ALA21   ILE22   HIS23  

>  <Gold.Protein.RotatedAtoms>  (206) 
    9.6071   19.4948    8.2598 H   0  0  0  0  0  0  0  0  0  0  0  0  # atno 641  bound_to 637 
   15.6236   13.1275    7.0938 H   0  0  0  0  0  0  0  0  0  0  0  0  # atno 681  bound_to 677 
   20.9152   11.5722   -0.5693 H   0  0  0  0  0  0  0  0  0  0  0  0  # atno 702  bound_to 698 
   -6.9982   17.0246   -0.3539 H   0  0  0  0  0  0  0  0  0  0  0  0  # atno 965  bound_to 957 
    0.6549   11.6561   11.0696 H   0  0  0  0  0  0  0  0  0  0  0  0  # atno 1886 bound_to 1878
   10.6932    2.0519   -2.4566 H   0  0  0  0  0  0  0  0  0  0  0  0  # atno 2577 bound_to 2569
    7.2013    6.2636    1.5787 H   0  0  0  0  0  0  0  0  0  0  0  0  # atno 2891 bound_to 2887
   18.3202    2.3518    0.3086 H   0  0  0  0  0  0  0  0  0  0  0  0  # atno 3175 bound_to 3171
   12.6532    9.9730    9.7902 H   0  0  0  0  0  0  0  0  0  0  0  0  # atno 5278 bound_to 5270
   16.9872   13.9501    7.0903 LP  0  0  0  0  0  0  0  0  0  0  0  0  # atno 5914 bound_to 677 
   16.7426   12.7304    6.0325 LP  0  0  0  0  0  0  0  0  0  0  0  0  # atno 5915 bound_to 677 
   20.3805   11.6791   -2.0660 LP  0  0  0  0  0  0  0  0  0  0  0  0  # atno 5920 bound_to 698 
   19.3612   11.8353   -0.7998 LP  0  0  0  0  0  0  0  0  0  0  0  0  # atno 5921 bound_to 698 
    9.2397    2.5424   -2.8833 LP  0  0  0  0  0  0  0  0  0  0  0  0  # atno 5950 bound_to 2569
   10.5717    3.3613   -3.3543 LP  0  0  0  0  0  0  0  0  0  0  0  0  # atno 5951 bound_to 2569
    8.2614    6.7423    0.4908 LP  0  0  0  0  0  0  0  0  0  0  0  0  # atno 5982 bound_to 2887
    7.8345    5.1705    0.6088 LP  0  0  0  0  0  0  0  0  0  0  0  0  # atno 5983 bound_to 2887
   18.2157    2.0910   -1.2588 LP  0  0  0  0  0  0  0  0  0  0  0  0  # atno 6000 bound_to 3171
   19.3922    3.0427   -0.6449 LP  0  0  0  0  0  0  0  0  0  0  0  0  # atno 6001 bound_to 3171
   14.1589    9.8473   10.2939 LP  0  0  0  0  0  0  0  0  0  0  0  0  # atno 6004 bound_to 5270
   13.8246   10.2267    8.7412 LP  0  0  0  0  0  0  0  0  0  0  0  0  # atno 6005 bound_to 5270
   10.7053   18.9369    7.2510 LP  0  0  0  0  0  0  0  0  0  0  0  0  # atno 6055 bound_to 637 
   11.1413   19.6332    8.6623 LP  0  0  0  0  0  0  0  0  0  0  0  0  # atno 6056 bound_to 637 
    2.0902   12.0834   10.5286 LP  0  0  0  0  0  0  0  0  0  0  0  0  # atno 6063 bound_to 1878
    1.6056   10.5249   10.4765 LP  0  0  0  0  0  0  0  0  0  0  0  0  # atno 6064 bound_to 1878
   -7.0078   15.4333   -0.4056 LP  0  0  0  0  0  0  0  0  0  0  0  0  # atno 6067 bound_to 957 
   -6.4298   16.3084   -1.6573 LP  0  0  0  0  0  0  0  0  0  0  0  0  # atno 6068 bound_to 957 

>  <STRIFE_LigEff_Score>  (206) 
2.7615588235294117

$$$$
unknown|pharmsElabsTestMulti|sdf|207|dock9
     RDKit          3D

 17 17  0  0  0  0  0  0  0  0999 V2000
    3.9073   10.1839    5.0241 C   0  0  0  0  0  0  0  0  0  0  0  0
    3.5997    8.8702    4.3242 C   0  0  0  0  0  0  0  0  0  0  0  0
    3.4728    9.0810    2.8779 N   0  0  0  0  0  0  0  0  0  0  0  0
    4.7914    8.9225    2.2580 C   0  0  0  0  0  0  0  0  0  0  0  0
    5.5555   10.2506    2.2495 C   0  0  0  0  0  0  0  0  0  0  0  0
    6.9759   10.0208    1.9476 N   0  0  0  0  0  0  0  0  0  0  0  0
    7.8588    9.5127    2.9625 C   0  0  0  0  0  0  0  0  0  0  0  0
    7.4125    9.3176    4.1202 O   0  0  0  0  0  0  0  0  0  0  0  0
    9.3010    9.1540    2.7663 C   0  0  0  0  0  0  0  0  0  0  0  0
    9.5866    7.6527    2.6801 C   0  0  0  0  0  0  0  0  0  0  0  0
   11.0864    7.2912    2.6602 C   0  0  0  0  0  0  0  0  0  0  0  0
   11.9315    8.4558    2.1197 C   0  0  0  0  0  0  0  0  0  0  0  0
   13.3986    8.1514    1.6862 C   0  0  0  0  0  0  0  0  0  0  0  0
   14.2798    9.3437    1.3542 C   0  0  0  0  0  0  0  0  0  0  0  0
   13.6213    6.9746    0.8530 N   0  0  0  0  0  0  0  0  0  0  0  0
   11.8019    9.6704    3.0615 C   0  0  0  0  0  0  0  0  0  0  0  0
   10.3453   10.1065    3.3251 C   0  0  0  0  0  0  0  0  0  0  0  0
  1  2  1  0
  2  3  1  0
  3  4  1  0
  4  5  1  0
  5  6  1  0
  6  7  1  0
  7  8  2  0
  7  9  1  0
  9 10  1  0
 10 11  1  0
 11 12  1  0
 12 13  1  0
 13 14  1  0
 13 15  1  0
 12 16  1  0
 16 17  1  0
 17  9  1  0
M  CHG  1  15   1
M  END
>  <EmbedRMS>  (207) 
0.25842907567579826

>  <Gold.Version>  (207) 
2020.3.0

>  <Gold.Id.Protein>  (207) 
unknown|1q8t_protein|pdb

>  <Gold.PLP.Fitness>  (207) 
48.3919

>  <Gold.PLP.PLP>  (207) 
-40.5263

>  <Gold.PLP.part.hbond>  (207) 
-1.8091

>  <Gold.PLP.part.metal>  (207) 
0.0000

>  <Gold.PLP.part.buried>  (207) 
-4.3260

>  <Gold.PLP.part.nonpolar>  (207) 
-34.4346

>  <Gold.PLP.part.repulsive>  (207) 
0.0805

>  <Gold.PLP.ligand.clash>  (207) 
0.0000

>  <Gold.PLP.ligand.torsion>  (207) 
1.0647

>  <Gold.PLP.Chemscore.Hbond>  (207) 
2.9440

>  <Gold.PLP.Chemscore.CHOScore>  (207) 
0.0000

>  <Gold.PLP.Chemscore.Metal>  (207) 
0.0000

>  <Gold.Chemscore.Hbonds>  (207) 
donor molecule, donor type, donor heavy atom, donor atom, acceptor molecule, acceptor atom, score
      L1  H    15    40       P1  2691  0.94
      L1  H    15    41       P1  2902  2.00

>  <Gold.PLP.Chemscore.Internal.Correction>  (207) 
1.1630

>  <Gold.PLP.Constraint>  (207) 
-0.0000

>  <Gold.Protein.RotatedTorsions>  (207) 
[  681  677  676  673 ] final  -18.75 input -179.99 | X-H torsion
[  702  698  697  694 ] final  176.29 input  179.99 | X-H torsion
[ 2577 2569 2568 2566 ] final -134.16 input   -0.13 | X-H torsion
[ 2891 2887 2886 2883 ] final  162.50 input  179.98 | X-H torsion
[ 3175 3171 3170 3167 ] final -173.42 input -179.99 | X-H torsion
[ 5278 5270 5269 5267 ] final  -73.40 input    0.55 | X-H torsion
[  641  637  636  633 ] final  151.05 input  179.99 | X-H torsion
[ 1886 1878 1877 1875 ] final  -21.54 input    1.60 | X-H torsion
[  965  957  956  954 ] final  -60.20 input    0.45 | X-H torsion

>  <Gold.Protein.ActiveResidues>  (207) 
 LYS47   THR48   LEU49   GLY50   THR51   GLY52   SER53   PHE54   GLY55   ARG56  
 VAL57   MET58   LEU59   TYR69   ALA70   MET71   LYS72   ILE73   LEU74   GLU91  
 LEU95   VAL104  LYS105  MET118  VAL119  MET120  GLU121  TYR122  VAL123  PRO124 
 GLY125  GLY126  GLU127  MET128  PHE129  TYR164  ASP166  LEU167  LYS168  PRO169 
 GLU170  ASN171  LEU172  LEU173  ILE174  GLN181  VAL182  THR183  ASP184  PHE185 
 GLY186  PHE187  GLY200  THR201  ASN326  PHE327  TYR330  ARG18   ARG19   ASN20  
 ALA21   ILE22   HIS23  

>  <Gold.Protein.RotatedAtoms>  (207) 
   11.1703   19.5691    8.5764 H   0  0  0  0  0  0  0  0  0  0  0  0  # atno 641  bound_to 637 
   15.7081   12.7516    6.6688 H   0  0  0  0  0  0  0  0  0  0  0  0  # atno 681  bound_to 677 
   20.9371   11.5897   -1.6772 H   0  0  0  0  0  0  0  0  0  0  0  0  # atno 702  bound_to 698 
   -6.4492   16.0356   -1.5809 H   0  0  0  0  0  0  0  0  0  0  0  0  # atno 965  bound_to 957 
    2.1233   11.0010   10.3105 H   0  0  0  0  0  0  0  0  0  0  0  0  # atno 1886 bound_to 1878
   11.0359    2.4583   -2.7136 H   0  0  0  0  0  0  0  0  0  0  0  0  # atno 2577 bound_to 2569
    7.5761    6.8530    1.2856 H   0  0  0  0  0  0  0  0  0  0  0  0  # atno 2891 bound_to 2887
   18.2201    2.2691    0.2433 H   0  0  0  0  0  0  0  0  0  0  0  0  # atno 3175 bound_to 3171
   13.5029    9.8108   10.4837 H   0  0  0  0  0  0  0  0  0  0  0  0  # atno 5278 bound_to 5270
   16.4705   13.9419    7.4023 LP  0  0  0  0  0  0  0  0  0  0  0  0  # atno 5914 bound_to 677 
   17.1705   13.1342    6.1677 LP  0  0  0  0  0  0  0  0  0  0  0  0  # atno 5915 bound_to 677 
   19.3750   11.8464   -1.5001 LP  0  0  0  0  0  0  0  0  0  0  0  0  # atno 5920 bound_to 698 
   20.3436   11.6496   -0.2002 LP  0  0  0  0  0  0  0  0  0  0  0  0  # atno 5921 bound_to 698 
    9.4966    2.0864   -2.5478 LP  0  0  0  0  0  0  0  0  0  0  0  0  # atno 5950 bound_to 2569
    9.9540    3.3895   -3.4192 LP  0  0  0  0  0  0  0  0  0  0  0  0  # atno 5951 bound_to 2569
    8.3696    6.0118    0.1905 LP  0  0  0  0  0  0  0  0  0  0  0  0  # atno 5982 bound_to 2887
    7.3317    5.2807    1.2175 LP  0  0  0  0  0  0  0  0  0  0  0  0  # atno 5983 bound_to 2887
   18.3239    2.1602   -1.3419 LP  0  0  0  0  0  0  0  0  0  0  0  0  # atno 6000 bound_to 3171
   19.3894    3.0605   -0.4930 LP  0  0  0  0  0  0  0  0  0  0  0  0  # atno 6001 bound_to 3171
   14.3608   10.1244    9.1789 LP  0  0  0  0  0  0  0  0  0  0  0  0  # atno 6004 bound_to 5270
   12.7287   10.1203    9.1266 LP  0  0  0  0  0  0  0  0  0  0  0  0  # atno 6005 bound_to 5270
    9.5945   19.5596    8.3491 LP  0  0  0  0  0  0  0  0  0  0  0  0  # atno 6055 bound_to 637 
   10.6057   18.9322    7.2308 LP  0  0  0  0  0  0  0  0  0  0  0  0  # atno 6056 bound_to 637 
    0.6707   10.9419   10.9598 LP  0  0  0  0  0  0  0  0  0  0  0  0  # atno 6063 bound_to 1878
    1.4794   12.3559   10.8444 LP  0  0  0  0  0  0  0  0  0  0  0  0  # atno 6064 bound_to 1878
   -6.9136   17.1799   -0.5759 LP  0  0  0  0  0  0  0  0  0  0  0  0  # atno 6067 bound_to 957 
   -7.1022   15.6034   -0.1946 LP  0  0  0  0  0  0  0  0  0  0  0  0  # atno 6068 bound_to 957 

>  <STRIFE_LigEff_Score>  (207) 
2.8465823529411765

$$$$
unknown|pharmsElabsTestMulti|sdf|208|dock3
     RDKit          3D

 20 21  0  0  0  0  0  0  0  0999 V2000
   15.3626    6.3461    3.6877 C   0  0  0  0  0  0  0  0  0  0  0  0
   14.7901    7.6499    4.2692 C   0  0  0  0  0  0  0  0  0  0  0  0
   15.5309    8.8022    3.7474 N   0  0  0  0  0  0  0  0  0  0  0  0
   13.2338    7.8360    4.1632 C   0  0  0  0  0  0  0  0  0  0  0  0
   12.5987    7.1032    2.9824 C   0  0  0  0  0  0  0  0  0  0  0  0
   11.0864    7.2283    2.8816 C   0  0  0  0  0  0  0  0  0  0  0  0
   10.5865    8.6204    3.1838 C   0  0  0  0  0  0  0  0  0  0  0  0
    9.1479    8.8409    2.8175 C   0  0  0  0  0  0  0  0  0  0  0  0
    8.3802    7.8916    3.1053 O   0  0  0  0  0  0  0  0  0  0  0  0
    8.6031   10.0108    2.1845 N   0  0  0  0  0  0  0  0  0  0  0  0
    7.2015   10.0243    1.7386 C   0  0  0  0  0  0  0  0  0  0  0  0
    6.2729    9.9889    2.9268 C   0  0  0  0  0  0  0  0  0  0  0  0
    6.7606   10.1056    4.2415 C   0  0  0  0  0  0  0  0  0  0  0  0
    5.8837   10.0152    5.3287 C   0  0  0  0  0  0  0  0  0  0  0  0
    4.5178    9.8114    5.1120 C   0  0  0  0  0  0  0  0  0  0  0  0
    4.0247    9.6957    3.8080 C   0  0  0  0  0  0  0  0  0  0  0  0
    2.6629    9.4939    3.6000 O   0  0  0  0  0  0  0  0  0  0  0  0
    4.9022    9.7799    2.7201 C   0  0  0  0  0  0  0  0  0  0  0  0
   11.1087    9.2886    4.4358 C   0  0  0  0  0  0  0  0  0  0  0  0
   12.6414    9.2129    4.5229 C   0  0  0  0  0  0  0  0  0  0  0  0
  1  2  1  0
  2  3  1  0
  2  4  1  0
  4  5  1  0
  5  6  1  0
  6  7  1  0
  7  8  1  0
  8  9  2  0
  8 10  1  0
 10 11  1  0
 11 12  1  0
 12 13  2  0
 13 14  1  0
 14 15  2  0
 15 16  1  0
 16 17  1  0
 16 18  2  0
  7 19  1  0
 19 20  1  0
 20  4  1  0
 18 12  1  0
M  CHG  1   3   1
M  END
>  <EmbedRMS>  (208) 
0.24874902131530774

>  <Gold.Version>  (208) 
2020.3.0

>  <Gold.Id.Protein>  (208) 
unknown|1q8t_protein|pdb

>  <Gold.PLP.Fitness>  (208) 
53.5285

>  <Gold.PLP.PLP>  (208) 
-51.2623

>  <Gold.PLP.part.hbond>  (208) 
-3.9312

>  <Gold.PLP.part.metal>  (208) 
0.0000

>  <Gold.PLP.part.buried>  (208) 
-2.7149

>  <Gold.PLP.part.nonpolar>  (208) 
-46.0033

>  <Gold.PLP.part.repulsive>  (208) 
0.0654

>  <Gold.PLP.ligand.clash>  (208) 
0.0000

>  <Gold.PLP.ligand.torsion>  (208) 
1.2050

>  <Gold.PLP.Chemscore.Hbond>  (208) 
1.2960

>  <Gold.PLP.Chemscore.CHOScore>  (208) 
0.0000

>  <Gold.PLP.Chemscore.Metal>  (208) 
0.0000

>  <Gold.Chemscore.Hbonds>  (208) 
donor molecule, donor type, donor heavy atom, donor atom, acceptor molecule, acceptor atom, score
      L1  H     3    26       P1   675  0.48
      P1  H  1888  1903       L1    17  0.82

>  <Gold.PLP.Chemscore.Internal.Correction>  (208) 
0.7882

>  <Gold.PLP.Constraint>  (208) 
-0.0000

>  <Gold.Protein.RotatedTorsions>  (208) 
[  681  677  676  673 ] final   27.53 input -179.99 | X-H torsion
[  702  698  697  694 ] final  132.78 input  179.99 | X-H torsion
[ 2577 2569 2568 2566 ] final  169.90 input   -0.13 | X-H torsion
[ 2891 2887 2886 2883 ] final  105.49 input  179.98 | X-H torsion
[ 3175 3171 3170 3167 ] final  -21.50 input -179.99 | X-H torsion
[ 5278 5270 5269 5267 ] final  150.20 input    0.55 | X-H torsion
[  641  637  636  633 ] final -122.36 input  179.99 | X-H torsion
[ 1886 1878 1877 1875 ] final  -32.13 input    1.60 | X-H torsion
[  965  957  956  954 ] final -107.32 input    0.45 | X-H torsion

>  <Gold.Protein.ActiveResidues>  (208) 
 LYS47   THR48   LEU49   GLY50   THR51   GLY52   SER53   PHE54   GLY55   ARG56  
 VAL57   MET58   LEU59   TYR69   ALA70   MET71   LYS72   ILE73   LEU74   GLU91  
 LEU95   VAL104  LYS105  MET118  VAL119  MET120  GLU121  TYR122  VAL123  PRO124 
 GLY125  GLY126  GLU127  MET128  PHE129  TYR164  ASP166  LEU167  LYS168  PRO169 
 GLU170  ASN171  LEU172  LEU173  ILE174  GLN181  VAL182  THR183  ASP184  PHE185 
 GLY186  PHE187  GLY200  THR201  ASN326  PHE327  TYR330  ARG18   ARG19   ASN20  
 ALA21   ILE22   HIS23  

>  <Gold.Protein.RotatedAtoms>  (208) 
   11.0639   19.0175    7.4845 H   0  0  0  0  0  0  0  0  0  0  0  0  # atno 641  bound_to 637 
   16.2095   12.5927    6.2006 H   0  0  0  0  0  0  0  0  0  0  0  0  # atno 681  bound_to 677 
   20.3777   11.6955   -2.0194 H   0  0  0  0  0  0  0  0  0  0  0  0  # atno 702  bound_to 698 
   -6.4873   16.7436   -1.4824 H   0  0  0  0  0  0  0  0  0  0  0  0  # atno 965  bound_to 957 
    2.0301   10.8659   10.3286 H   0  0  0  0  0  0  0  0  0  0  0  0  # atno 1886 bound_to 1878
   10.4507    1.9442   -2.3995 H   0  0  0  0  0  0  0  0  0  0  0  0  # atno 2577 bound_to 2569
    8.1320    6.8301    0.6363 H   0  0  0  0  0  0  0  0  0  0  0  0  # atno 2891 bound_to 2887
   19.2929    2.9053   -0.9669 H   0  0  0  0  0  0  0  0  0  0  0  0  # atno 3175 bound_to 3171
   14.1676   10.1826    9.0043 H   0  0  0  0  0  0  0  0  0  0  0  0  # atno 5278 bound_to 5270
   15.8374   13.5567    7.4125 LP  0  0  0  0  0  0  0  0  0  0  0  0  # atno 5914 bound_to 677 
   17.2758   13.6867    6.6503 LP  0  0  0  0  0  0  0  0  0  0  0  0  # atno 5915 bound_to 677 
   19.3605   11.8355   -0.8015 LP  0  0  0  0  0  0  0  0  0  0  0  0  # atno 5920 bound_to 698 
   20.9466   11.5492   -0.5388 LP  0  0  0  0  0  0  0  0  0  0  0  0  # atno 5921 bound_to 698 
    9.2573    2.7774   -3.0452 LP  0  0  0  0  0  0  0  0  0  0  0  0  # atno 5950 bound_to 2569
   10.8096    3.2399   -3.2525 LP  0  0  0  0  0  0  0  0  0  0  0  0  # atno 5951 bound_to 2569
    7.9721    5.2543    0.4694 LP  0  0  0  0  0  0  0  0  0  0  0  0  # atno 5982 bound_to 2887
    7.1442    6.0624    1.6219 LP  0  0  0  0  0  0  0  0  0  0  0  0  # atno 5983 bound_to 2887
   18.5803    2.5808    0.4197 LP  0  0  0  0  0  0  0  0  0  0  0  0  # atno 6000 bound_to 3171
   18.0039    1.9705   -0.9810 LP  0  0  0  0  0  0  0  0  0  0  0  0  # atno 6001 bound_to 3171
   12.6212   10.0602    9.3657 LP  0  0  0  0  0  0  0  0  0  0  0  0  # atno 6004 bound_to 5270
   13.7689    9.7933   10.4963 LP  0  0  0  0  0  0  0  0  0  0  0  0  # atno 6005 bound_to 5270
   10.7648   19.7565    8.8626 LP  0  0  0  0  0  0  0  0  0  0  0  0  # atno 6055 bound_to 637 
    9.5475   19.3162    7.8672 LP  0  0  0  0  0  0  0  0  0  0  0  0  # atno 6056 bound_to 637 
    0.6109   11.0965   11.0125 LP  0  0  0  0  0  0  0  0  0  0  0  0  # atno 6063 bound_to 1878
    1.6374   12.3436   10.7727 LP  0  0  0  0  0  0  0  0  0  0  0  0  # atno 6064 bound_to 1878
   -7.1618   16.7110   -0.0405 LP  0  0  0  0  0  0  0  0  0  0  0  0  # atno 6067 bound_to 957 
   -6.8139   15.3267   -0.8337 LP  0  0  0  0  0  0  0  0  0  0  0  0  # atno 6068 bound_to 957 

>  <STRIFE_LigEff_Score>  (208) 
2.676425

$$$$
unknown|pharmsElabsTestMulti|sdf|209|dock6
     RDKit          3D

 17 17  0  0  0  0  0  0  0  0999 V2000
   13.8925    7.2654    3.5878 C   0  0  0  0  0  0  0  0  0  0  0  0
   13.4986    7.9472    2.2649 C   0  0  0  0  0  0  0  0  0  0  0  0
   13.7225    7.0116    1.1542 N   0  0  0  0  0  0  0  0  0  0  0  0
   12.0203    8.4575    2.3306 C   0  0  0  0  0  0  0  0  0  0  0  0
   11.0760    7.2481    2.4584 C   0  0  0  0  0  0  0  0  0  0  0  0
    9.5970    7.6186    2.4255 C   0  0  0  0  0  0  0  0  0  0  0  0
    9.2945    9.0271    2.9149 C   0  0  0  0  0  0  0  0  0  0  0  0
    7.8287    9.2929    3.1224 C   0  0  0  0  0  0  0  0  0  0  0  0
    7.5743   10.2241    3.9235 O   0  0  0  0  0  0  0  0  0  0  0  0
    6.7410    8.5716    2.5069 N   0  0  0  0  0  0  0  0  0  0  0  0
    5.3567    8.9748    2.6721 C   0  0  0  0  0  0  0  0  0  0  0  0
    4.6387    9.2528    1.6299 N   0  0  0  0  0  0  0  0  0  0  0  0
    4.7546    9.1622    4.0158 C   0  0  0  0  0  0  0  0  0  0  0  0
    5.4896    9.3782    5.0149 O   0  0  0  0  0  0  0  0  0  0  0  0
    3.3717    9.1452    4.1945 O   0  0  0  0  0  0  0  0  0  0  0  0
   10.2891    9.7950    3.7659 C   0  0  0  0  0  0  0  0  0  0  0  0
   11.7677    9.4220    3.5172 C   0  0  0  0  0  0  0  0  0  0  0  0
  1  2  1  0
  2  3  1  0
  2  4  1  0
  4  5  1  0
  5  6  1  0
  6  7  1  0
  7  8  1  0
  8  9  2  0
  8 10  1  0
 10 11  1  0
 11 12  2  0
 11 13  1  0
 13 14  2  0
 13 15  1  0
  7 16  1  0
 16 17  1  0
 17  4  1  0
M  CHG  1   3   1
M  END
>  <EmbedRMS>  (209) 
0.1813214278554041

>  <Gold.Version>  (209) 
2020.3.0

>  <Gold.Id.Protein>  (209) 
unknown|1q8t_protein|pdb

>  <Gold.PLP.Fitness>  (209) 
41.5504

>  <Gold.PLP.PLP>  (209) 
-31.7575

>  <Gold.PLP.part.hbond>  (209) 
-3.6680

>  <Gold.PLP.part.metal>  (209) 
0.0000

>  <Gold.PLP.part.buried>  (209) 
-6.0025

>  <Gold.PLP.part.nonpolar>  (209) 
-23.5363

>  <Gold.PLP.part.repulsive>  (209) 
0.0809

>  <Gold.PLP.ligand.clash>  (209) 
0.0000

>  <Gold.PLP.ligand.torsion>  (209) 
1.1089

>  <Gold.PLP.Chemscore.Hbond>  (209) 
3.7540

>  <Gold.PLP.Chemscore.CHOScore>  (209) 
0.0000

>  <Gold.PLP.Chemscore.Metal>  (209) 
0.0000

>  <Gold.Chemscore.Hbonds>  (209) 
donor molecule, donor type, donor heavy atom, donor atom, acceptor molecule, acceptor atom, score
      L1  H     3    22       P1  2902  2.00
      L1  H     3    23       P1  2691  1.00
      L1  H    10    31       P1  2887  0.75

>  <Gold.PLP.Chemscore.Internal.Correction>  (209) 
0.7488

>  <Gold.PLP.Constraint>  (209) 
-0.0000

>  <Gold.Protein.RotatedTorsions>  (209) 
[  681  677  676  673 ] final   82.79 input -179.99 | X-H torsion
[  702  698  697  694 ] final  -24.74 input  179.99 | X-H torsion
[ 2577 2569 2568 2566 ] final -121.99 input   -0.13 | X-H torsion
[ 2891 2887 2886 2883 ] final  -48.09 input  179.98 | X-H torsion
[ 3175 3171 3170 3167 ] final   72.13 input -179.99 | X-H torsion
[ 5278 5270 5269 5267 ] final -177.50 input    0.55 | X-H torsion
[  641  637  636  633 ] final   35.87 input  179.99 | X-H torsion
[ 1886 1878 1877 1875 ] final   57.61 input    1.60 | X-H torsion
[  965  957  956  954 ] final  -99.54 input    0.45 | X-H torsion

>  <Gold.Protein.ActiveResidues>  (209) 
 LYS47   THR48   LEU49   GLY50   THR51   GLY52   SER53   PHE54   GLY55   ARG56  
 VAL57   MET58   LEU59   TYR69   ALA70   MET71   LYS72   ILE73   LEU74   GLU91  
 LEU95   VAL104  LYS105  MET118  VAL119  MET120  GLU121  TYR122  VAL123  PRO124 
 GLY125  GLY126  GLU127  MET128  PHE129  TYR164  ASP166  LEU167  LYS168  PRO169 
 GLU170  ASN171  LEU172  LEU173  ILE174  GLN181  VAL182  THR183  ASP184  PHE185 
 GLY186  PHE187  GLY200  THR201  ASN326  PHE327  TYR330  ARG18   ARG19   ASN20  
 ALA21   ILE22   HIS23  

>  <Gold.Protein.RotatedAtoms>  (209) 
    9.6685   19.5649    8.4039 H   0  0  0  0  0  0  0  0  0  0  0  0  # atno 641  bound_to 637 
   16.9538   12.9443    6.0882 H   0  0  0  0  0  0  0  0  0  0  0  0  # atno 681  bound_to 677 
   19.7660   11.7722   -0.3729 H   0  0  0  0  0  0  0  0  0  0  0  0  # atno 702  bound_to 698 
   -6.4644   16.6363   -1.5350 H   0  0  0  0  0  0  0  0  0  0  0  0  # atno 965  bound_to 957 
    1.9978   12.1085   10.5547 H   0  0  0  0  0  0  0  0  0  0  0  0  # atno 1886 bound_to 1878
   11.0695    2.6129   -2.8185 H   0  0  0  0  0  0  0  0  0  0  0  0  # atno 2577 bound_to 2569
    7.6062    5.1807    0.8502 H   0  0  0  0  0  0  0  0  0  0  0  0  # atno 2891 bound_to 2887
   18.2873    2.1228   -1.2543 H   0  0  0  0  0  0  0  0  0  0  0  0  # atno 3175 bound_to 3171
   14.4054   10.0801    9.4301 H   0  0  0  0  0  0  0  0  0  0  0  0  # atno 5278 bound_to 5270
   15.5880   12.8893    6.9054 LP  0  0  0  0  0  0  0  0  0  0  0  0  # atno 5914 bound_to 677 
   16.7418   13.9839    7.2758 LP  0  0  0  0  0  0  0  0  0  0  0  0  # atno 5915 bound_to 677 
   21.1576   11.5228   -1.1067 LP  0  0  0  0  0  0  0  0  0  0  0  0  # atno 5920 bound_to 698 
   19.7930   11.7813   -1.9656 LP  0  0  0  0  0  0  0  0  0  0  0  0  # atno 5921 bound_to 698 
    9.6490    1.9856   -2.4667 LP  0  0  0  0  0  0  0  0  0  0  0  0  # atno 5950 bound_to 2569
    9.7663    3.3275   -3.3898 LP  0  0  0  0  0  0  0  0  0  0  0  0  # atno 5951 bound_to 2569
    7.3085    6.5774    1.5551 LP  0  0  0  0  0  0  0  0  0  0  0  0  # atno 5982 bound_to 2887
    8.3613    6.4751    0.3111 LP  0  0  0  0  0  0  0  0  0  0  0  0  # atno 5983 bound_to 2887
   19.3934    3.0517   -0.5839 LP  0  0  0  0  0  0  0  0  0  0  0  0  # atno 6000 bound_to 3171
   18.2490    2.3231    0.3250 LP  0  0  0  0  0  0  0  0  0  0  0  0  # atno 6001 bound_to 3171
   12.8952   10.1699    8.9322 LP  0  0  0  0  0  0  0  0  0  0  0  0  # atno 6004 bound_to 5270
   13.2447    9.7914   10.4818 LP  0  0  0  0  0  0  0  0  0  0  0  0  # atno 6005 bound_to 5270
   10.5270   18.9320    7.2218 LP  0  0  0  0  0  0  0  0  0  0  0  0  # atno 6055 bound_to 637 
   11.2549   19.5643    8.5397 LP  0  0  0  0  0  0  0  0  0  0  0  0  # atno 6056 bound_to 637 
    1.6840   10.5512   10.4464 LP  0  0  0  0  0  0  0  0  0  0  0  0  # atno 6063 bound_to 1878
    0.5983   11.5808   11.1007 LP  0  0  0  0  0  0  0  0  0  0  0  0  # atno 6064 bound_to 1878
   -7.1329   16.8198   -0.1017 LP  0  0  0  0  0  0  0  0  0  0  0  0  # atno 6067 bound_to 957 
   -6.8669   15.3309   -0.7172 LP  0  0  0  0  0  0  0  0  0  0  0  0  # atno 6068 bound_to 957 

>  <STRIFE_LigEff_Score>  (209) 
2.4441411764705885

$$$$
unknown|pharmsElabsTestMulti|sdf|210|dock5
     RDKit          3D

 20 20  0  0  0  0  0  0  0  0999 V2000
    3.5061    8.5313    1.5400 C   0  0  0  0  0  0  0  0  0  0  0  0
    3.7451    9.3533    2.5696 C   0  0  0  0  0  0  0  0  0  0  0  0
    2.6889    9.6258    3.4408 O   0  0  0  0  0  0  0  0  0  0  0  0
    5.0959    9.9713    2.7932 C   0  0  0  0  0  0  0  0  0  0  0  0
    5.6929   10.0224    4.0072 C   0  0  0  0  0  0  0  0  0  0  0  0
    5.1165    9.5020    5.2914 C   0  0  0  0  0  0  0  0  0  0  0  0
    3.5912   10.3440    5.6641 Cl  0  0  0  0  0  0  0  0  0  0  0  0
    5.8329   10.6168    1.6285 C   0  0  0  0  0  0  0  0  0  0  0  0
    7.2880   10.5491    1.8359 N   0  0  0  0  0  0  0  0  0  0  0  0
    7.9140    9.2846    2.1191 C   0  0  0  0  0  0  0  0  0  0  0  0
    7.1958    8.2659    2.2580 O   0  0  0  0  0  0  0  0  0  0  0  0
    9.3861    9.0407    2.2708 C   0  0  0  0  0  0  0  0  0  0  0  0
    9.9715    8.1557    1.1819 C   0  0  0  0  0  0  0  0  0  0  0  0
   11.3974    7.6908    1.4550 C   0  0  0  0  0  0  0  0  0  0  0  0
   12.1979    8.6475    2.3580 C   0  0  0  0  0  0  0  0  0  0  0  0
   13.6689    8.1267    2.4764 C   0  0  0  0  0  0  0  0  0  0  0  0
   13.7100    6.8035    3.2620 C   0  0  0  0  0  0  0  0  0  0  0  0
   14.3033    7.9302    1.1656 N   0  0  0  0  0  0  0  0  0  0  0  0
   11.4863    8.7606    3.7304 C   0  0  0  0  0  0  0  0  0  0  0  0
    9.9729    9.0641    3.6691 C   0  0  0  0  0  0  0  0  0  0  0  0
  1  2  2  0
  2  3  1  0
  2  4  1  0
  4  5  2  0
  5  6  1  0
  6  7  1  0
  4  8  1  0
  8  9  1  0
  9 10  1  0
 10 11  2  0
 10 12  1  0
 12 13  1  0
 13 14  1  0
 14 15  1  0
 15 16  1  0
 16 17  1  0
 16 18  1  0
 15 19  1  0
 19 20  1  0
 20 12  1  0
M  CHG  1  18   1
M  END
>  <EmbedRMS>  (210) 
0.16765923527739696

>  <Gold.Version>  (210) 
2020.3.0

>  <Gold.Id.Protein>  (210) 
unknown|1q8t_protein|pdb

>  <Gold.PLP.Fitness>  (210) 
53.3824

>  <Gold.PLP.PLP>  (210) 
-43.5197

>  <Gold.PLP.part.hbond>  (210) 
-4.0000

>  <Gold.PLP.part.metal>  (210) 
0.0000

>  <Gold.PLP.part.buried>  (210) 
-1.4077

>  <Gold.PLP.part.nonpolar>  (210) 
-39.3836

>  <Gold.PLP.part.repulsive>  (210) 
0.0009

>  <Gold.PLP.ligand.clash>  (210) 
0.1756

>  <Gold.PLP.ligand.torsion>  (210) 
1.6015

>  <Gold.PLP.Chemscore.Hbond>  (210) 
3.7644

>  <Gold.PLP.Chemscore.CHOScore>  (210) 
0.0000

>  <Gold.PLP.Chemscore.Metal>  (210) 
0.0000

>  <Gold.Chemscore.Hbonds>  (210) 
donor molecule, donor type, donor heavy atom, donor atom, acceptor molecule, acceptor atom, score
      L1  H     3    23       P1  1855  0.76
      L1  H    18    40       P1  2902  2.00
      P1  H  2887  2891       L1    11  1.00

>  <Gold.PLP.Chemscore.Internal.Correction>  (210) 
1.9481

>  <Gold.PLP.Constraint>  (210) 
-0.0000

>  <Gold.Protein.RotatedTorsions>  (210) 
[  681  677  676  673 ] final   64.14 input -179.99 | X-H torsion
[  702  698  697  694 ] final  -62.39 input  179.99 | X-H torsion
[ 2577 2569 2568 2566 ] final -113.23 input   -0.13 | X-H torsion
[ 2891 2887 2886 2883 ] final  175.14 input  179.98 | X-H torsion
[ 3175 3171 3170 3167 ] final -125.66 input -179.99 | X-H torsion
[ 5278 5270 5269 5267 ] final   67.70 input    0.55 | X-H torsion
[  641  637  636  633 ] final  156.29 input  179.99 | X-H torsion
[ 1886 1878 1877 1875 ] final  131.72 input    1.60 | X-H torsion
[  965  957  956  954 ] final -131.38 input    0.45 | X-H torsion

>  <Gold.Protein.ActiveResidues>  (210) 
 LYS47   THR48   LEU49   GLY50   THR51   GLY52   SER53   PHE54   GLY55   ARG56  
 VAL57   MET58   LEU59   TYR69   ALA70   MET71   LYS72   ILE73   LEU74   GLU91  
 LEU95   VAL104  LYS105  MET118  VAL119  MET120  GLU121  TYR122  VAL123  PRO124 
 GLY125  GLY126  GLU127  MET128  PHE129  TYR164  ASP166  LEU167  LYS168  PRO169 
 GLU170  ASN171  LEU172  LEU173  ILE174  GLN181  VAL182  THR183  ASP184  PHE185 
 GLY186  PHE187  GLY200  THR201  ASN326  PHE327  TYR330  ARG18   ARG19   ASN20  
 ALA21   ILE22   HIS23  

>  <Gold.Protein.RotatedAtoms>  (210) 
   11.2180   19.5368    8.5183 H   0  0  0  0  0  0  0  0  0  0  0  0  # atno 641  bound_to 637 
   16.7240   12.7696    6.0573 H   0  0  0  0  0  0  0  0  0  0  0  0  # atno 681  bound_to 677 
   20.3208   11.6713   -0.2437 H   0  0  0  0  0  0  0  0  0  0  0  0  # atno 702  bound_to 698 
   -6.5927   17.0118   -1.2452 H   0  0  0  0  0  0  0  0  0  0  0  0  # atno 965  bound_to 957 
    1.0142   12.1567   10.9966 H   0  0  0  0  0  0  0  0  0  0  0  0  # atno 1886 bound_to 1878
   11.0689    2.7253   -2.8966 H   0  0  0  0  0  0  0  0  0  0  0  0  # atno 2577 bound_to 2569
    7.4556    6.7460    1.3996 H   0  0  0  0  0  0  0  0  0  0  0  0  # atno 2891 bound_to 2887
   18.7916    2.7050    0.3392 H   0  0  0  0  0  0  0  0  0  0  0  0  # atno 3175 bound_to 3171
   12.9891   10.1913    8.9194 H   0  0  0  0  0  0  0  0  0  0  0  0  # atno 5278 bound_to 5270
   15.5873   13.1061    7.1207 LP  0  0  0  0  0  0  0  0  0  0  0  0  # atno 5914 bound_to 677 
   16.9844   13.9510    7.0929 LP  0  0  0  0  0  0  0  0  0  0  0  0  # atno 5915 bound_to 677 
   20.9835   11.5649   -1.6883 LP  0  0  0  0  0  0  0  0  0  0  0  0  # atno 5920 bound_to 698 
   19.3836   11.8453   -1.5200 LP  0  0  0  0  0  0  0  0  0  0  0  0  # atno 5921 bound_to 698 
    9.7738    1.9312   -2.4197 LP  0  0  0  0  0  0  0  0  0  0  0  0  # atno 5950 bound_to 2569
    9.6421    3.2636   -3.3546 LP  0  0  0  0  0  0  0  0  0  0  0  0  # atno 5951 bound_to 2569
    8.3862    6.2167    0.2204 LP  0  0  0  0  0  0  0  0  0  0  0  0  # atno 5982 bound_to 2887
    7.4420    5.1884    1.0676 LP  0  0  0  0  0  0  0  0  0  0  0  0  # atno 5983 bound_to 2887
   17.9117    1.9336   -0.7409 LP  0  0  0  0  0  0  0  0  0  0  0  0  # atno 6000 bound_to 3171
   19.2000    2.8284   -1.1950 LP  0  0  0  0  0  0  0  0  0  0  0  0  # atno 6001 bound_to 3171
   13.1643    9.7977   10.4528 LP  0  0  0  0  0  0  0  0  0  0  0  0  # atno 6004 bound_to 5270
   14.4658   10.0467    9.4985 LP  0  0  0  0  0  0  0  0  0  0  0  0  # atno 6005 bound_to 5270
    9.6299   19.5938    8.4198 LP  0  0  0  0  0  0  0  0  0  0  0  0  # atno 6055 bound_to 637 
   10.5201   18.9321    7.2213 LP  0  0  0  0  0  0  0  0  0  0  0  0  # atno 6056 bound_to 637 
    2.3035   11.4972   10.3346 LP  0  0  0  0  0  0  0  0  0  0  0  0  # atno 6063 bound_to 1878
    1.0141   10.5841   10.7473 LP  0  0  0  0  0  0  0  0  0  0  0  0  # atno 6064 bound_to 1878
   -7.2094   16.3331    0.0563 LP  0  0  0  0  0  0  0  0  0  0  0  0  # atno 6067 bound_to 957 
   -6.6553   15.4221   -1.1804 LP  0  0  0  0  0  0  0  0  0  0  0  0  # atno 6068 bound_to 957 

>  <STRIFE_LigEff_Score>  (210) 
2.66912

$$$$
unknown|pharmsElabsTestMulti|sdf|211|dock10
     RDKit          3D

 17 17  0  0  0  0  0  0  0  0999 V2000
   14.9687    7.9562    3.1029 C   0  0  0  0  0  0  0  0  0  0  0  0
   13.6885    7.8263    2.2795 C   0  0  0  0  0  0  0  0  0  0  0  0
   13.7167    8.6622    1.0776 N   0  0  0  0  0  0  0  0  0  0  0  0
   12.3281    7.8935    3.0162 C   0  0  0  0  0  0  0  0  0  0  0  0
   11.1640    7.2901    2.2170 C   0  0  0  0  0  0  0  0  0  0  0  0
    9.7660    7.7101    2.6373 C   0  0  0  0  0  0  0  0  0  0  0  0
    9.6767    9.1770    2.9718 C   0  0  0  0  0  0  0  0  0  0  0  0
    8.2728    9.6882    3.0829 C   0  0  0  0  0  0  0  0  0  0  0  0
    7.9715   10.1715    4.2009 O   0  0  0  0  0  0  0  0  0  0  0  0
    7.2804    9.6504    2.0445 N   0  0  0  0  0  0  0  0  0  0  0  0
    5.8942   10.0453    2.3263 C   0  0  0  0  0  0  0  0  0  0  0  0
    4.9694    8.8147    2.3138 C   0  0  0  0  0  0  0  0  0  0  0  0
    3.7504    8.9877    3.2299 C   0  0  0  0  0  0  0  0  0  0  0  0
    4.1357    9.1762    4.6977 C   0  0  0  0  0  0  0  0  0  0  0  0
    3.0015    9.5001    5.4523 O   0  0  0  0  0  0  0  0  0  0  0  0
   10.6747    9.6978    3.9684 C   0  0  0  0  0  0  0  0  0  0  0  0
   12.1066    9.3117    3.6061 C   0  0  0  0  0  0  0  0  0  0  0  0
  1  2  1  0
  2  3  1  0
  2  4  1  0
  4  5  1  0
  5  6  1  0
  6  7  1  0
  7  8  1  0
  8  9  2  0
  8 10  1  0
 10 11  1  0
 11 12  1  0
 12 13  1  0
 13 14  1  0
 14 15  1  0
  7 16  1  0
 16 17  1  0
 17  4  1  0
M  CHG  1   3   1
M  END
>  <EmbedRMS>  (211) 
0.3028787039700591

>  <Gold.Version>  (211) 
2020.3.0

>  <Gold.Id.Protein>  (211) 
unknown|1q8t_protein|pdb

>  <Gold.PLP.Fitness>  (211) 
49.9361

>  <Gold.PLP.PLP>  (211) 
-38.9358

>  <Gold.PLP.part.hbond>  (211) 
-3.0000

>  <Gold.PLP.part.metal>  (211) 
0.0000

>  <Gold.PLP.part.buried>  (211) 
-5.3239

>  <Gold.PLP.part.nonpolar>  (211) 
-30.9827

>  <Gold.PLP.part.repulsive>  (211) 
0.0285

>  <Gold.PLP.ligand.clash>  (211) 
0.0000

>  <Gold.PLP.ligand.torsion>  (211) 
0.6499

>  <Gold.PLP.Chemscore.Hbond>  (211) 
3.8880

>  <Gold.PLP.Chemscore.CHOScore>  (211) 
0.0000

>  <Gold.PLP.Chemscore.Metal>  (211) 
0.0000

>  <Gold.Chemscore.Hbonds>  (211) 
donor molecule, donor type, donor heavy atom, donor atom, acceptor molecule, acceptor atom, score
      L1  H     3    23       P1  2902  2.00
      L1  H    15    40       P1  1891  0.91
      P1  H  1888  1903       L1    15  0.98

>  <Gold.PLP.Chemscore.Internal.Correction>  (211) 
0.6360

>  <Gold.PLP.Constraint>  (211) 
-0.0000

>  <Gold.Protein.RotatedTorsions>  (211) 
[  681  677  676  673 ] final  -20.21 input -179.99 | X-H torsion
[  702  698  697  694 ] final  119.98 input  179.99 | X-H torsion
[ 2577 2569 2568 2566 ] final -150.69 input   -0.13 | X-H torsion
[ 2891 2887 2886 2883 ] final  148.96 input  179.98 | X-H torsion
[ 3175 3171 3170 3167 ] final -165.70 input -179.99 | X-H torsion
[ 5278 5270 5269 5267 ] final -169.66 input    0.55 | X-H torsion
[  641  637  636  633 ] final   23.26 input  179.99 | X-H torsion
[ 1886 1878 1877 1875 ] final  -28.24 input    1.60 | X-H torsion
[  965  957  956  954 ] final  -27.70 input    0.45 | X-H torsion

>  <Gold.Protein.ActiveResidues>  (211) 
 LYS47   THR48   LEU49   GLY50   THR51   GLY52   SER53   PHE54   GLY55   ARG56  
 VAL57   MET58   LEU59   TYR69   ALA70   MET71   LYS72   ILE73   LEU74   GLU91  
 LEU95   VAL104  LYS105  MET118  VAL119  MET120  GLU121  TYR122  VAL123  PRO124 
 GLY125  GLY126  GLU127  MET128  PHE129  TYR164  ASP166  LEU167  LYS168  PRO169 
 GLU170  ASN171  LEU172  LEU173  ILE174  GLN181  VAL182  THR183  ASP184  PHE185 
 GLY186  PHE187  GLY200  THR201  ASN326  PHE327  TYR330  ARG18   ARG19   ASN20  
 ALA21   ILE22   HIS23  

>  <Gold.Protein.RotatedAtoms>  (211) 
    9.6007   19.4840    8.2379 H   0  0  0  0  0  0  0  0  0  0  0  0  # atno 641  bound_to 637 
   15.6985   12.7630    6.6860 H   0  0  0  0  0  0  0  0  0  0  0  0  # atno 681  bound_to 677 
   20.1811   11.7306   -2.0294 H   0  0  0  0  0  0  0  0  0  0  0  0  # atno 702  bound_to 698 
   -6.5606   15.6076   -1.3452 H   0  0  0  0  0  0  0  0  0  0  0  0  # atno 965  bound_to 957 
    2.0669   10.9135   10.3205 H   0  0  0  0  0  0  0  0  0  0  0  0  # atno 1886 bound_to 1878
   10.9291    2.2623   -2.5854 H   0  0  0  0  0  0  0  0  0  0  0  0  # atno 2577 bound_to 2569
    7.7142    6.9249    1.1430 H   0  0  0  0  0  0  0  0  0  0  0  0  # atno 2891 bound_to 2887
   18.3024    2.3374    0.2989 H   0  0  0  0  0  0  0  0  0  0  0  0  # atno 3175 bound_to 3171
   14.4234   10.0512    9.5478 H   0  0  0  0  0  0  0  0  0  0  0  0  # atno 5278 bound_to 5270
   16.4923   13.9479    7.3946 LP  0  0  0  0  0  0  0  0  0  0  0  0  # atno 5914 bound_to 677 
   17.1586   13.1162    6.1573 LP  0  0  0  0  0  0  0  0  0  0  0  0  # atno 5915 bound_to 677 
   19.4544   11.8152   -0.6144 LP  0  0  0  0  0  0  0  0  0  0  0  0  # atno 5920 bound_to 698 
   21.0596   11.5326   -0.7154 LP  0  0  0  0  0  0  0  0  0  0  0  0  # atno 5921 bound_to 698 
    9.3397    2.2624   -2.6815 LP  0  0  0  0  0  0  0  0  0  0  0  0  # atno 5950 bound_to 2569
   10.2234    3.4198   -3.4205 LP  0  0  0  0  0  0  0  0  0  0  0  0  # atno 5951 bound_to 2569
    8.3192    5.7955    0.1970 LP  0  0  0  0  0  0  0  0  0  0  0  0  # atno 5982 bound_to 2887
    7.2368    5.4213    1.3611 LP  0  0  0  0  0  0  0  0  0  0  0  0  # atno 5983 bound_to 2887
   18.2335    2.1021   -1.2745 LP  0  0  0  0  0  0  0  0  0  0  0  0  # atno 6000 bound_to 3171
   19.3931    3.0468   -0.6191 LP  0  0  0  0  0  0  0  0  0  0  0  0  # atno 6001 bound_to 3171
   12.9962   10.1901    8.8546 LP  0  0  0  0  0  0  0  0  0  0  0  0  # atno 6004 bound_to 5270
   13.1248    9.8016   10.4355 LP  0  0  0  0  0  0  0  0  0  0  0  0  # atno 6005 bound_to 5270
   10.7309   18.9390    7.2578 LP  0  0  0  0  0  0  0  0  0  0  0  0  # atno 6055 bound_to 637 
   11.1224   19.6425    8.6785 LP  0  0  0  0  0  0  0  0  0  0  0  0  # atno 6056 bound_to 637 
    0.6296   11.0382   10.9943 LP  0  0  0  0  0  0  0  0  0  0  0  0  # atno 6063 bound_to 1878
    1.5799   12.3518   10.7994 LP  0  0  0  0  0  0  0  0  0  0  0  0  # atno 6064 bound_to 1878
   -6.6951   17.1676   -1.0562 LP  0  0  0  0  0  0  0  0  0  0  0  0  # atno 6067 bound_to 957 
   -7.2034   16.0665    0.0374 LP  0  0  0  0  0  0  0  0  0  0  0  0  # atno 6068 bound_to 957 

>  <STRIFE_LigEff_Score>  (211) 
2.937417647058824

$$$$
unknown|pharmsElabsTestMulti|sdf|212|dock1
     RDKit          3D

 18 19  0  0  0  0  0  0  0  0999 V2000
   14.2463    9.0893    1.4027 C   0  0  0  0  0  0  0  0  0  0  0  0
   13.9726    7.6660    1.8885 C   0  0  0  0  0  0  0  0  0  0  0  0
   14.1903    6.6916    0.8107 N   0  0  0  0  0  0  0  0  0  0  0  0
   12.6651    7.3999    2.6583 C   0  0  0  0  0  0  0  0  0  0  0  0
   11.4546    6.7705    1.9194 C   0  0  0  0  0  0  0  0  0  0  0  0
   10.1740    7.5863    1.9514 C   0  0  0  0  0  0  0  0  0  0  0  0
    9.8894    8.1242    3.3513 C   0  0  0  0  0  0  0  0  0  0  0  0
    8.5532    8.8003    3.3664 C   0  0  0  0  0  0  0  0  0  0  0  0
    7.7627    8.6553    2.3918 O   0  0  0  0  0  0  0  0  0  0  0  0
    8.1728    9.6096    4.4782 N   0  0  0  0  0  0  0  0  0  0  0  0
    6.9511   10.3914    4.4208 C   0  0  0  0  0  0  0  0  0  0  0  0
    5.7249    9.5812    4.0225 C   0  0  0  0  0  0  0  0  0  0  0  0
    4.5784    9.5493    4.9945 C   0  0  0  0  0  0  0  0  0  0  0  0
    3.6013    8.6024    4.3161 C   0  0  0  0  0  0  0  0  0  0  0  0
    3.8520    8.7422    2.8055 C   0  0  0  0  0  0  0  0  0  0  0  0
    5.1576    9.5288    2.6300 C   0  0  0  0  0  0  0  0  0  0  0  0
   10.9846    9.1120    3.7400 C   0  0  0  0  0  0  0  0  0  0  0  0
   12.3635    8.4567    3.7651 C   0  0  0  0  0  0  0  0  0  0  0  0
  1  2  1  0
  2  3  1  0
  2  4  1  0
  4  5  1  0
  5  6  1  0
  6  7  1  0
  7  8  1  0
  8  9  2  0
  8 10  1  0
 10 11  1  0
 11 12  1  0
 12 13  1  0
 13 14  1  0
 14 15  1  0
 15 16  1  0
  7 17  1  0
 17 18  1  0
 18  4  1  0
 16 12  1  0
M  CHG  1   3   1
M  END
>  <EmbedRMS>  (212) 
0.2701286003923815

>  <Gold.Version>  (212) 
2020.3.0

>  <Gold.Id.Protein>  (212) 
unknown|1q8t_protein|pdb

>  <Gold.PLP.Fitness>  (212) 
53.5272

>  <Gold.PLP.PLP>  (212) 
-43.8434

>  <Gold.PLP.part.hbond>  (212) 
-3.0000

>  <Gold.PLP.part.metal>  (212) 
0.0000

>  <Gold.PLP.part.buried>  (212) 
0.2140

>  <Gold.PLP.part.nonpolar>  (212) 
-40.5686

>  <Gold.PLP.part.repulsive>  (212) 
0.1067

>  <Gold.PLP.ligand.clash>  (212) 
0.0000

>  <Gold.PLP.ligand.torsion>  (212) 
1.4535

>  <Gold.PLP.Chemscore.Hbond>  (212) 
3.9588

>  <Gold.PLP.Chemscore.CHOScore>  (212) 
0.0000

>  <Gold.PLP.Chemscore.Metal>  (212) 
0.0000

>  <Gold.Chemscore.Hbonds>  (212) 
donor molecule, donor type, donor heavy atom, donor atom, acceptor molecule, acceptor atom, score
      L1  H     3    23       P1  2902  2.00
      L1  H     3    24       P1  2691  1.00
      P1  H  2887  2891       L1     9  0.96

>  <Gold.PLP.Chemscore.Internal.Correction>  (212) 
0.7146

>  <Gold.PLP.Constraint>  (212) 
-0.0000

>  <Gold.Protein.RotatedTorsions>  (212) 
[  681  677  676  673 ] final  -93.69 input -179.99 | X-H torsion
[  702  698  697  694 ] final   60.28 input  179.99 | X-H torsion
[ 2577 2569 2568 2566 ] final -152.70 input   -0.13 | X-H torsion
[ 2891 2887 2886 2883 ] final  159.45 input  179.98 | X-H torsion
[ 3175 3171 3170 3167 ] final  -92.30 input -179.99 | X-H torsion
[ 5278 5270 5269 5267 ] final  150.13 input    0.55 | X-H torsion
[  641  637  636  633 ] final -152.86 input  179.99 | X-H torsion
[ 1886 1878 1877 1875 ] final -129.71 input    1.60 | X-H torsion
[  965  957  956  954 ] final  -37.45 input    0.45 | X-H torsion

>  <Gold.Protein.ActiveResidues>  (212) 
 LYS47   THR48   LEU49   GLY50   THR51   GLY52   SER53   PHE54   GLY55   ARG56  
 VAL57   MET58   LEU59   TYR69   ALA70   MET71   LYS72   ILE73   LEU74   GLU91  
 LEU95   VAL104  LYS105  MET118  VAL119  MET120  GLU121  TYR122  VAL123  PRO124 
 GLY125  GLY126  GLU127  MET128  PHE129  TYR164  ASP166  LEU167  LYS168  PRO169 
 GLU170  ASN171  LEU172  LEU173  ILE174  GLN181  VAL182  THR183  ASP184  PHE185 
 GLY186  PHE187  GLY200  THR201  ASN326  PHE327  TYR330  ARG18   ARG19   ASN20  
 ALA21   ILE22   HIS23  

>  <Gold.Protein.RotatedAtoms>  (212) 
   11.3203   19.1857    7.8420 H   0  0  0  0  0  0  0  0  0  0  0  0  # atno 641  bound_to 637 
   15.8734   13.5660    7.3738 H   0  0  0  0  0  0  0  0  0  0  0  0  # atno 681  bound_to 677 
   19.4461   11.8514   -1.5385 H   0  0  0  0  0  0  0  0  0  0  0  0  # atno 702  bound_to 698 
   -6.5169   15.7195   -1.4388 H   0  0  0  0  0  0  0  0  0  0  0  0  # atno 965  bound_to 957 
    0.7951   10.8234   10.8658 H   0  0  0  0  0  0  0  0  0  0  0  0  # atno 1886 bound_to 1878
   10.9116    2.2403   -2.5714 H   0  0  0  0  0  0  0  0  0  0  0  0  # atno 2577 bound_to 2569
    7.6066    6.8732    1.2552 H   0  0  0  0  0  0  0  0  0  0  0  0  # atno 2891 bound_to 2887
   19.1559    2.9384    0.0613 H   0  0  0  0  0  0  0  0  0  0  0  0  # atno 3175 bound_to 3171
   14.1668   10.1828    9.0036 H   0  0  0  0  0  0  0  0  0  0  0  0  # atno 5278 bound_to 5270
   17.2801   13.6742    6.6352 LP  0  0  0  0  0  0  0  0  0  0  0  0  # atno 5914 bound_to 677 
   16.1868   12.5447    6.1928 LP  0  0  0  0  0  0  0  0  0  0  0  0  # atno 5915 bound_to 677 
   20.2792   11.6609   -0.1942 LP  0  0  0  0  0  0  0  0  0  0  0  0  # atno 5920 bound_to 698 
   21.0080   11.5598   -1.6520 LP  0  0  0  0  0  0  0  0  0  0  0  0  # atno 5921 bound_to 698 
    9.3252    2.2863   -2.6992 LP  0  0  0  0  0  0  0  0  0  0  0  0  # atno 5950 bound_to 2569
   10.2563    3.4192   -3.4176 LP  0  0  0  0  0  0  0  0  0  0  0  0  # atno 5951 bound_to 2569
    8.3612    5.9625    0.1885 LP  0  0  0  0  0  0  0  0  0  0  0  0  # atno 5982 bound_to 2887
    7.3081    5.3088    1.2516 LP  0  0  0  0  0  0  0  0  0  0  0  0  # atno 5983 bound_to 2887
   17.9002    1.9955   -0.2034 LP  0  0  0  0  0  0  0  0  0  0  0  0  # atno 6000 bound_to 3171
   18.8282    2.5209   -1.4401 LP  0  0  0  0  0  0  0  0  0  0  0  0  # atno 6001 bound_to 3171
   12.6209   10.0599    9.3667 LP  0  0  0  0  0  0  0  0  0  0  0  0  # atno 6004 bound_to 5270
   13.7700    9.7933   10.4961 LP  0  0  0  0  0  0  0  0  0  0  0  0  # atno 6005 bound_to 5270
   10.2701   19.7903    8.8748 LP  0  0  0  0  0  0  0  0  0  0  0  0  # atno 6055 bound_to 637 
    9.7722   19.1052    7.4786 LP  0  0  0  0  0  0  0  0  0  0  0  0  # atno 6056 bound_to 637 
    1.3014   12.3321   10.9188 LP  0  0  0  0  0  0  0  0  0  0  0  0  # atno 6063 bound_to 1878
    2.2469   11.1528   10.3008 LP  0  0  0  0  0  0  0  0  0  0  0  0  # atno 6064 bound_to 1878
   -6.7596   17.2029   -0.9138 LP  0  0  0  0  0  0  0  0  0  0  0  0  # atno 6067 bound_to 957 
   -7.1848   15.9134   -0.0065 LP  0  0  0  0  0  0  0  0  0  0  0  0  # atno 6068 bound_to 957 

>  <STRIFE_LigEff_Score>  (212) 
2.9737333333333336

$$$$
unknown|pharmsElabsTestMulti|sdf|213|dock2
     RDKit          3D

 20 21  0  0  0  0  0  0  0  0999 V2000
    3.3191    8.5966    2.0677 C   0  0  0  0  0  0  0  0  0  0  0  0
    4.0031    9.1548    3.2811 C   0  0  0  0  0  0  0  0  0  0  0  0
    3.3021    9.2088    4.4473 N   0  0  0  0  0  0  0  0  0  0  0  0
    3.8489    9.6662    5.6031 C   0  0  0  0  0  0  0  0  0  0  0  0
    5.1732   10.0982    5.6251 C   0  0  0  0  0  0  0  0  0  0  0  0
    5.9229   10.0584    4.4505 C   0  0  0  0  0  0  0  0  0  0  0  0
    5.3500    9.5859    3.2586 C   0  0  0  0  0  0  0  0  0  0  0  0
    6.1940    9.5549    2.0090 C   0  0  0  0  0  0  0  0  0  0  0  0
    7.4138    8.7915    2.2444 N   0  0  0  0  0  0  0  0  0  0  0  0
    8.5177    9.3037    3.0008 C   0  0  0  0  0  0  0  0  0  0  0  0
    8.4707   10.4630    3.4964 O   0  0  0  0  0  0  0  0  0  0  0  0
    9.7292    8.4416    3.2209 C   0  0  0  0  0  0  0  0  0  0  0  0
    9.9339    7.4986    2.0370 C   0  0  0  0  0  0  0  0  0  0  0  0
   11.0641    6.5136    2.2973 C   0  0  0  0  0  0  0  0  0  0  0  0
   12.3533    7.1204    2.9130 C   0  0  0  0  0  0  0  0  0  0  0  0
   13.7000    6.9495    2.1828 C   0  0  0  0  0  0  0  0  0  0  0  0
   14.9666    6.8169    3.0282 C   0  0  0  0  0  0  0  0  0  0  0  0
   13.8826    7.9405    1.1135 N   0  0  0  0  0  0  0  0  0  0  0  0
   12.2200    8.4781    3.6690 C   0  0  0  0  0  0  0  0  0  0  0  0
   10.9710    9.3104    3.3862 C   0  0  0  0  0  0  0  0  0  0  0  0
  1  2  1  0
  2  3  2  0
  3  4  1  0
  4  5  2  0
  5  6  1  0
  6  7  2  0
  7  8  1  0
  8  9  1  0
  9 10  1  0
 10 11  2  0
 10 12  1  0
 12 13  1  0
 13 14  1  0
 14 15  1  0
 15 16  1  0
 16 17  1  0
 16 18  1  0
 15 19  1  0
 19 20  1  0
  7  2  1  0
 20 12  1  0
M  CHG  1  18   1
M  END
>  <EmbedRMS>  (213) 
0.19202172219904787

>  <Gold.Version>  (213) 
2020.3.0

>  <Gold.Id.Protein>  (213) 
unknown|1q8t_protein|pdb

>  <Gold.PLP.Fitness>  (213) 
58.5128

>  <Gold.PLP.PLP>  (213) 
-46.0514

>  <Gold.PLP.part.hbond>  (213) 
-3.0000

>  <Gold.PLP.part.metal>  (213) 
0.0000

>  <Gold.PLP.part.buried>  (213) 
7.0130

>  <Gold.PLP.part.nonpolar>  (213) 
-50.1321

>  <Gold.PLP.part.repulsive>  (213) 
0.1300

>  <Gold.PLP.ligand.clash>  (213) 
0.0000

>  <Gold.PLP.ligand.torsion>  (213) 
1.2133

>  <Gold.PLP.Chemscore.Hbond>  (213) 
3.9913

>  <Gold.PLP.Chemscore.CHOScore>  (213) 
0.8177

>  <Gold.PLP.Chemscore.Metal>  (213) 
0.0000

>  <Gold.Chemscore.Hbonds>  (213) 
donor molecule, donor type, donor heavy atom, donor atom, acceptor molecule, acceptor atom, score
      L1  H     9    29       P1  2887  1.00
      L1  H    18    41       P1  2902  2.00
      P1  H  1888  1903       L1     3  0.99
      L1  C     4    24       P1  1891  0.82

>  <Gold.PLP.Chemscore.Internal.Correction>  (213) 
0.4612

>  <Gold.PLP.Constraint>  (213) 
-0.0000

>  <Gold.Protein.RotatedTorsions>  (213) 
[  681  677  676  673 ] final   78.35 input -179.99 | X-H torsion
[  702  698  697  694 ] final -176.56 input  179.99 | X-H torsion
[ 2577 2569 2568 2566 ] final   50.19 input   -0.13 | X-H torsion
[ 2891 2887 2886 2883 ] final   37.51 input  179.98 | X-H torsion
[ 3175 3171 3170 3167 ] final  151.41 input -179.99 | X-H torsion
[ 5278 5270 5269 5267 ] final  -15.38 input    0.55 | X-H torsion
[  641  637  636  633 ] final  147.55 input  179.99 | X-H torsion
[ 1886 1878 1877 1875 ] final  117.39 input    1.60 | X-H torsion
[  965  957  956  954 ] final -109.97 input    0.45 | X-H torsion

>  <Gold.Protein.ActiveResidues>  (213) 
 LYS47   THR48   LEU49   GLY50   THR51   GLY52   SER53   PHE54   GLY55   ARG56  
 VAL57   MET58   LEU59   TYR69   ALA70   MET71   LYS72   ILE73   LEU74   GLU91  
 LEU95   VAL104  LYS105  MET118  VAL119  MET120  GLU121  TYR122  VAL123  PRO124 
 GLY125  GLY126  GLU127  MET128  PHE129  TYR164  ASP166  LEU167  LYS168  PRO169 
 GLU170  ASN171  LEU172  LEU173  ILE174  GLN181  VAL182  THR183  ASP184  PHE185 
 GLY186  PHE187  GLY200  THR201  ASN326  PHE327  TYR330  ARG18   ARG19   ASN20  
 ALA21   ILE22   HIS23  

>  <Gold.Protein.RotatedAtoms>  (213) 
   11.1352   19.5897    8.6128 H   0  0  0  0  0  0  0  0  0  0  0  0  # atno 641  bound_to 637 
   16.9031   12.8988    6.0744 H   0  0  0  0  0  0  0  0  0  0  0  0  # atno 681  bound_to 677 
   20.9978   11.5772   -1.5842 H   0  0  0  0  0  0  0  0  0  0  0  0  # atno 702  bound_to 698 
   -6.4964   16.7781   -1.4616 H   0  0  0  0  0  0  0  0  0  0  0  0  # atno 965  bound_to 957 
    1.2023   12.2580   10.9309 H   0  0  0  0  0  0  0  0  0  0  0  0  # atno 1886 bound_to 1878
    9.3035    2.7575   -3.0483 H   0  0  0  0  0  0  0  0  0  0  0  0  # atno 2577 bound_to 2569
    8.3130    5.9402    0.2135 H   0  0  0  0  0  0  0  0  0  0  0  0  # atno 2891 bound_to 2887
   17.9608    2.0238   -0.1636 H   0  0  0  0  0  0  0  0  0  0  0  0  # atno 3175 bound_to 3171
   12.7561    9.9099   10.0503 H   0  0  0  0  0  0  0  0  0  0  0  0  # atno 5278 bound_to 5270
   15.5796   12.9382    6.9591 LP  0  0  0  0  0  0  0  0  0  0  0  0  # atno 5914 bound_to 677 
   16.8036   13.9830    7.2366 LP  0  0  0  0  0  0  0  0  0  0  0  0  # atno 5915 bound_to 677 
   19.4267   11.8393   -1.6054 LP  0  0  0  0  0  0  0  0  0  0  0  0  # atno 5920 bound_to 698 
   20.2281   11.6699   -0.1927 LP  0  0  0  0  0  0  0  0  0  0  0  0  # atno 5921 bound_to 698 
   10.8060    3.2424   -3.2545 LP  0  0  0  0  0  0  0  0  0  0  0  0  # atno 5950 bound_to 2569
   10.4686    1.9185   -2.3600 LP  0  0  0  0  0  0  0  0  0  0  0  0  # atno 5951 bound_to 2569
    7.2937    5.3278    1.2729 LP  0  0  0  0  0  0  0  0  0  0  0  0  # atno 5982 bound_to 2887
    7.6322    6.9253    1.2635 LP  0  0  0  0  0  0  0  0  0  0  0  0  # atno 5983 bound_to 2887
   18.7802    2.4841   -1.4491 LP  0  0  0  0  0  0  0  0  0  0  0  0  # atno 6000 bound_to 3171
   19.2059    2.9948    0.0424 LP  0  0  0  0  0  0  0  0  0  0  0  0  # atno 6001 bound_to 3171
   14.3487    9.9053   10.0667 LP  0  0  0  0  0  0  0  0  0  0  0  0  # atno 6004 bound_to 5270
   13.5266   10.2351    8.6948 LP  0  0  0  0  0  0  0  0  0  0  0  0  # atno 6005 bound_to 5270
    9.5749   19.5359    8.3004 LP  0  0  0  0  0  0  0  0  0  0  0  0  # atno 6055 bound_to 637 
   10.6623   18.9342    7.2411 LP  0  0  0  0  0  0  0  0  0  0  0  0  # atno 6056 bound_to 637 
    2.2788   11.2650   10.3059 LP  0  0  0  0  0  0  0  0  0  0  0  0  # atno 6063 bound_to 1878
    0.8409   10.7096   10.8451 LP  0  0  0  0  0  0  0  0  0  0  0  0  # atno 6064 bound_to 1878
   -7.1702   16.6721   -0.0229 LP  0  0  0  0  0  0  0  0  0  0  0  0  # atno 6067 bound_to 957 
   -6.7959   15.3292   -0.8733 LP  0  0  0  0  0  0  0  0  0  0  0  0  # atno 6068 bound_to 957 

>  <STRIFE_LigEff_Score>  (213) 
2.92564

$$$$
unknown|pharmsElabsTestMulti|sdf|214|dock3
     RDKit          3D

 17 17  0  0  0  0  0  0  0  0999 V2000
    3.5896    9.5689    2.1186 C   0  0  0  0  0  0  0  0  0  0  0  0
    4.6734    8.7104    2.7668 C   0  0  0  0  0  0  0  0  0  0  0  0
    5.4166    9.4352    3.9104 C   0  0  0  0  0  0  0  0  0  0  0  0
    4.7126    9.2141    5.2581 C   0  0  0  0  0  0  0  0  0  0  0  0
    3.3240    9.2797    5.0954 O   0  0  0  0  0  0  0  0  0  0  0  0
    6.8436    9.0415    3.9629 N   0  0  0  0  0  0  0  0  0  0  0  0
    7.7014    9.3323    2.8419 C   0  0  0  0  0  0  0  0  0  0  0  0
    7.2032    9.8589    1.8175 O   0  0  0  0  0  0  0  0  0  0  0  0
    9.1792    9.0738    2.7525 C   0  0  0  0  0  0  0  0  0  0  0  0
    9.5384    7.6163    2.5887 C   0  0  0  0  0  0  0  0  0  0  0  0
   10.9938    7.3997    2.2013 C   0  0  0  0  0  0  0  0  0  0  0  0
   11.9993    8.2943    2.9250 C   0  0  0  0  0  0  0  0  0  0  0  0
   13.4972    8.0146    2.5422 C   0  0  0  0  0  0  0  0  0  0  0  0
   14.3865    7.4259    3.6505 C   0  0  0  0  0  0  0  0  0  0  0  0
   13.6253    7.2189    1.3176 N   0  0  0  0  0  0  0  0  0  0  0  0
   11.5735    9.7553    3.1706 C   0  0  0  0  0  0  0  0  0  0  0  0
   10.1042    9.9287    3.5889 C   0  0  0  0  0  0  0  0  0  0  0  0
  1  2  1  0
  2  3  1  0
  3  4  1  0
  4  5  1  0
  3  6  1  0
  6  7  1  0
  7  8  2  0
  7  9  1  0
  9 10  1  0
 10 11  1  0
 11 12  1  0
 12 13  1  0
 13 14  1  0
 13 15  1  0
 12 16  1  0
 16 17  1  0
 17  9  1  0
M  CHG  1  15   1
M  END
>  <EmbedRMS>  (214) 
0.2685532704936459

>  <Gold.Version>  (214) 
2020.3.0

>  <Gold.Id.Protein>  (214) 
unknown|1q8t_protein|pdb

>  <Gold.PLP.Fitness>  (214) 
49.5566

>  <Gold.PLP.PLP>  (214) 
-41.0025

>  <Gold.PLP.part.hbond>  (214) 
-4.0000

>  <Gold.PLP.part.metal>  (214) 
0.0000

>  <Gold.PLP.part.buried>  (214) 
-5.4089

>  <Gold.PLP.part.nonpolar>  (214) 
-31.4857

>  <Gold.PLP.part.repulsive>  (214) 
0.0331

>  <Gold.PLP.ligand.clash>  (214) 
0.0000

>  <Gold.PLP.ligand.torsion>  (214) 
2.2002

>  <Gold.PLP.Chemscore.Hbond>  (214) 
3.9920

>  <Gold.PLP.Chemscore.CHOScore>  (214) 
0.0000

>  <Gold.PLP.Chemscore.Metal>  (214) 
0.0000

>  <Gold.Chemscore.Hbonds>  (214) 
donor molecule, donor type, donor heavy atom, donor atom, acceptor molecule, acceptor atom, score
      L1  H     5    26       P1  1891  1.00
      L1  H    15    38       P1  2902  2.00
      L1  H    15    40       P1  2691  0.99

>  <Gold.PLP.Chemscore.Internal.Correction>  (214) 
0.9784

>  <Gold.PLP.Constraint>  (214) 
-0.0000

>  <Gold.Protein.RotatedTorsions>  (214) 
[  681  677  676  673 ] final  -81.05 input -179.99 | X-H torsion
[  702  698  697  694 ] final -140.23 input  179.99 | X-H torsion
[ 2577 2569 2568 2566 ] final   73.35 input   -0.13 | X-H torsion
[ 2891 2887 2886 2883 ] final  -14.74 input  179.98 | X-H torsion
[ 3175 3171 3170 3167 ] final  -13.14 input -179.99 | X-H torsion
[ 5278 5270 5269 5267 ] final -113.45 input    0.55 | X-H torsion
[  641  637  636  633 ] final  171.08 input  179.99 | X-H torsion
[ 1886 1878 1877 1875 ] final    9.32 input    1.60 | X-H torsion
[  965  957  956  954 ] final   74.41 input    0.45 | X-H torsion

>  <Gold.Protein.ActiveResidues>  (214) 
 LYS47   THR48   LEU49   GLY50   THR51   GLY52   SER53   PHE54   GLY55   ARG56  
 VAL57   MET58   LEU59   TYR69   ALA70   MET71   LYS72   ILE73   LEU74   GLU91  
 LEU95   VAL104  LYS105  MET118  VAL119  MET120  GLU121  TYR122  VAL123  PRO124 
 GLY125  GLY126  GLU127  MET128  PHE129  TYR164  ASP166  LEU167  LYS168  PRO169 
 GLU170  ASN171  LEU172  LEU173  ILE174  GLN181  VAL182  THR183  ASP184  PHE185 
 GLY186  PHE187  GLY200  THR201  ASN326  PHE327  TYR330  ARG18   ARG19   ASN20  
 ALA21   ILE22   HIS23  

>  <Gold.Protein.RotatedAtoms>  (214) 
   11.3178   19.4378    8.3354 H   0  0  0  0  0  0  0  0  0  0  0  0  # atno 641  bound_to 637 
   15.7557   13.4234    7.3053 H   0  0  0  0  0  0  0  0  0  0  0  0  # atno 681  bound_to 677 
   21.1097   11.5468   -1.0376 H   0  0  0  0  0  0  0  0  0  0  0  0  # atno 702  bound_to 698 
   -7.1292   15.8171   -0.0913 H   0  0  0  0  0  0  0  0  0  0  0  0  # atno 965  bound_to 957 
    2.2530   11.4591   10.3315 H   0  0  0  0  0  0  0  0  0  0  0  0  # atno 1886 bound_to 1878
    9.3012    2.4622   -2.8435 H   0  0  0  0  0  0  0  0  0  0  0  0  # atno 2577 bound_to 2569
    7.9470    5.2952    0.4829 H   0  0  0  0  0  0  0  0  0  0  0  0  # atno 2891 bound_to 2887
   19.2401    2.8521   -1.0738 H   0  0  0  0  0  0  0  0  0  0  0  0  # atno 3175 bound_to 3171
   14.0856    9.8626   10.2982 H   0  0  0  0  0  0  0  0  0  0  0  0  # atno 5278 bound_to 5270
   17.2173   13.7938    6.7927 LP  0  0  0  0  0  0  0  0  0  0  0  0  # atno 5914 bound_to 677 
   16.3735   12.5752    6.1074 LP  0  0  0  0  0  0  0  0  0  0  0  0  # atno 5915 bound_to 677 
   19.8587   11.7703   -1.9981 LP  0  0  0  0  0  0  0  0  0  0  0  0  # atno 5920 bound_to 698 
   19.6785   11.7709   -0.3751 LP  0  0  0  0  0  0  0  0  0  0  0  0  # atno 5921 bound_to 698 
   10.4802    3.3883   -3.3798 LP  0  0  0  0  0  0  0  0  0  0  0  0  # atno 5950 bound_to 2569
   10.7970    2.0834   -2.4505 LP  0  0  0  0  0  0  0  0  0  0  0  0  # atno 5951 bound_to 2569
    7.1447    6.0662    1.6223 LP  0  0  0  0  0  0  0  0  0  0  0  0  # atno 5982 bound_to 2887
    8.1663    6.8658    0.6305 LP  0  0  0  0  0  0  0  0  0  0  0  0  # atno 5983 bound_to 2887
   18.6911    2.6614    0.4087 LP  0  0  0  0  0  0  0  0  0  0  0  0  # atno 6000 bound_to 3171
   17.9488    1.9458   -0.8576 LP  0  0  0  0  0  0  0  0  0  0  0  0  # atno 6001 bound_to 3171
   13.8789   10.2226    8.7605 LP  0  0  0  0  0  0  0  0  0  0  0  0  # atno 6004 bound_to 5270
   12.5975    9.9676    9.7401 LP  0  0  0  0  0  0  0  0  0  0  0  0  # atno 6005 bound_to 5270
    9.7667   19.6789    8.6015 LP  0  0  0  0  0  0  0  0  0  0  0  0  # atno 6055 bound_to 637 
   10.2782   18.9511    7.2321 LP  0  0  0  0  0  0  0  0  0  0  0  0  # atno 6056 bound_to 637 
    0.9830   10.6016   10.7641 LP  0  0  0  0  0  0  0  0  0  0  0  0  # atno 6063 bound_to 1878
    1.0306   12.2140   11.0181 LP  0  0  0  0  0  0  0  0  0  0  0  0  # atno 6064 bound_to 1878
   -6.4847   15.8018   -1.5471 LP  0  0  0  0  0  0  0  0  0  0  0  0  # atno 6067 bound_to 957 
   -6.8148   17.2117   -0.7923 LP  0  0  0  0  0  0  0  0  0  0  0  0  # atno 6068 bound_to 957 

>  <STRIFE_LigEff_Score>  (214) 
2.915094117647059

$$$$
unknown|pharmsElabsTestMulti|sdf|215|dock2
     RDKit          3D

 18 18  0  0  0  0  0  0  0  0999 V2000
   14.5584    9.2320    1.4138 C   0  0  0  0  0  0  0  0  0  0  0  0
   13.6531    8.0453    1.6983 C   0  0  0  0  0  0  0  0  0  0  0  0
   13.9801    6.8341    0.9534 N   0  0  0  0  0  0  0  0  0  0  0  0
   12.1428    8.3504    1.9447 C   0  0  0  0  0  0  0  0  0  0  0  0
   11.2743    7.2335    2.5448 C   0  0  0  0  0  0  0  0  0  0  0  0
    9.7724    7.5411    2.3717 C   0  0  0  0  0  0  0  0  0  0  0  0
    9.4419    9.0311    2.2452 C   0  0  0  0  0  0  0  0  0  0  0  0
    7.9751    9.3572    2.2472 C   0  0  0  0  0  0  0  0  0  0  0  0
    7.4284    9.3239    1.1172 O   0  0  0  0  0  0  0  0  0  0  0  0
    7.1891    9.7092    3.4045 N   0  0  0  0  0  0  0  0  0  0  0  0
    5.8075   10.1303    3.2850 C   0  0  0  0  0  0  0  0  0  0  0  0
    5.2416   10.1781    2.1569 O   0  0  0  0  0  0  0  0  0  0  0  0
    5.0058   10.4894    4.4964 C   0  0  0  0  0  0  0  0  0  0  0  0
    3.7988    9.6152    4.5881 C   0  0  0  0  0  0  0  0  0  0  0  0
    2.8822    9.7002    3.7266 O   0  0  0  0  0  0  0  0  0  0  0  0
    3.7083    8.6777    5.6105 O   0  0  0  0  0  0  0  0  0  0  0  0
   10.4053   10.0823    2.7722 C   0  0  0  0  0  0  0  0  0  0  0  0
   11.8915    9.6675    2.7071 C   0  0  0  0  0  0  0  0  0  0  0  0
  1  2  1  0
  2  3  1  0
  2  4  1  0
  4  5  1  0
  5  6  1  0
  6  7  1  0
  7  8  1  0
  8  9  2  0
  8 10  1  0
 10 11  1  0
 11 12  2  0
 11 13  1  0
 13 14  1  0
 14 15  2  0
 14 16  1  0
  7 17  1  0
 17 18  1  0
 18  4  1  0
M  CHG  1   3   1
M  END
>  <EmbedRMS>  (215) 
0.2494386337486485

>  <Gold.Version>  (215) 
2020.3.0

>  <Gold.Id.Protein>  (215) 
unknown|1q8t_protein|pdb

>  <Gold.PLP.Fitness>  (215) 
49.1251

>  <Gold.PLP.PLP>  (215) 
-34.8190

>  <Gold.PLP.part.hbond>  (215) 
-4.5338

>  <Gold.PLP.part.metal>  (215) 
0.0000

>  <Gold.PLP.part.buried>  (215) 
-3.3695

>  <Gold.PLP.part.nonpolar>  (215) 
-28.7290

>  <Gold.PLP.part.repulsive>  (215) 
0.2370

>  <Gold.PLP.ligand.clash>  (215) 
0.0000

>  <Gold.PLP.ligand.torsion>  (215) 
0.6271

>  <Gold.PLP.Chemscore.Hbond>  (215) 
4.8480

>  <Gold.PLP.Chemscore.CHOScore>  (215) 
0.0000

>  <Gold.PLP.Chemscore.Metal>  (215) 
0.0000

>  <Gold.Chemscore.Hbonds>  (215) 
donor molecule, donor type, donor heavy atom, donor atom, acceptor molecule, acceptor atom, score
      L1  H     3    23       P1  2691  0.91
      L1  H     3    25       P1  2902  1.98
      L1  H    16    35       P1  1891  0.96
      P1  H  1888  1903       L1    15  0.99

>  <Gold.PLP.Chemscore.Internal.Correction>  (215) 
1.0164

>  <Gold.PLP.Constraint>  (215) 
-0.0000

>  <Gold.Protein.RotatedTorsions>  (215) 
[  681  677  676  673 ] final -121.48 input -179.99 | X-H torsion
[  702  698  697  694 ] final   23.70 input  179.99 | X-H torsion
[ 2577 2569 2568 2566 ] final  -39.02 input   -0.13 | X-H torsion
[ 2891 2887 2886 2883 ] final  -17.11 input  179.98 | X-H torsion
[ 3175 3171 3170 3167 ] final   19.45 input -179.99 | X-H torsion
[ 5278 5270 5269 5267 ] final   42.79 input    0.55 | X-H torsion
[  641  637  636  633 ] final  -62.18 input  179.99 | X-H torsion
[ 1886 1878 1877 1875 ] final  -45.96 input    1.60 | X-H torsion
[  965  957  956  954 ] final -155.55 input    0.45 | X-H torsion

>  <Gold.Protein.ActiveResidues>  (215) 
 LYS47   THR48   LEU49   GLY50   THR51   GLY52   SER53   PHE54   GLY55   ARG56  
 VAL57   MET58   LEU59   TYR69   ALA70   MET71   LYS72   ILE73   LEU74   GLU91  
 LEU95   VAL104  LYS105  MET118  VAL119  MET120  GLU121  TYR122  VAL123  PRO124 
 GLY125  GLY126  GLU127  MET128  PHE129  TYR164  ASP166  LEU167  LYS168  PRO169 
 GLU170  ASN171  LEU172  LEU173  ILE174  GLN181  VAL182  THR183  ASP184  PHE185 
 GLY186  PHE187  GLY200  THR201  ASN326  PHE327  TYR330  ARG18   ARG19   ASN20  
 ALA21   ILE22   HIS23  

>  <Gold.Protein.RotatedAtoms>  (215) 
   10.1856   18.9741    7.3034 H   0  0  0  0  0  0  0  0  0  0  0  0  # atno 641  bound_to 637 
   16.2175   13.8212    7.4136 H   0  0  0  0  0  0  0  0  0  0  0  0  # atno 681  bound_to 677 
   19.3626   11.8554   -0.9822 H   0  0  0  0  0  0  0  0  0  0  0  0  # atno 702  bound_to 698 
   -6.7357   17.1511   -0.9280 H   0  0  0  0  0  0  0  0  0  0  0  0  # atno 965  bound_to 957 
    1.8781   10.7186   10.3704 H   0  0  0  0  0  0  0  0  0  0  0  0  # atno 1886 bound_to 1878
   10.3510    3.3628   -3.3919 H   0  0  0  0  0  0  0  0  0  0  0  0  # atno 2577 bound_to 2569
    7.9237    5.2778    0.5057 H   0  0  0  0  0  0  0  0  0  0  0  0  # atno 2891 bound_to 2887
   18.9270    2.5827   -1.3601 H   0  0  0  0  0  0  0  0  0  0  0  0  # atno 3175 bound_to 3171
   12.7386   10.1183    9.2047 H   0  0  0  0  0  0  0  0  0  0  0  0  # atno 5278 bound_to 5270
   17.2736   13.3506    6.3185 LP  0  0  0  0  0  0  0  0  0  0  0  0  # atno 5914 bound_to 677 
   15.8312   12.5997    6.4676 LP  0  0  0  0  0  0  0  0  0  0  0  0  # atno 5915 bound_to 677 
   20.8219   11.5689   -0.4113 LP  0  0  0  0  0  0  0  0  0  0  0  0  # atno 5920 bound_to 698 
   20.5530   11.6476   -2.0201 LP  0  0  0  0  0  0  0  0  0  0  0  0  # atno 5921 bound_to 698 
   10.8855    2.1594   -2.4967 LP  0  0  0  0  0  0  0  0  0  0  0  0  # atno 5950 bound_to 2569
    9.2863    2.3641   -2.7561 LP  0  0  0  0  0  0  0  0  0  0  0  0  # atno 5951 bound_to 2569
    7.1499    6.1047    1.6255 LP  0  0  0  0  0  0  0  0  0  0  0  0  # atno 5982 bound_to 2887
    8.1856    6.8457    0.6033 LP  0  0  0  0  0  0  0  0  0  0  0  0  # atno 5983 bound_to 2887
   19.0901    2.9278    0.1859 LP  0  0  0  0  0  0  0  0  0  0  0  0  # atno 6000 bound_to 3171
   17.8793    1.9629   -0.3335 LP  0  0  0  0  0  0  0  0  0  0  0  0  # atno 6001 bound_to 3171
   13.5644    9.7841   10.5250 LP  0  0  0  0  0  0  0  0  0  0  0  0  # atno 6004 bound_to 5270
   14.3293   10.1371    9.1261 LP  0  0  0  0  0  0  0  0  0  0  0  0  # atno 6005 bound_to 5270
   11.3922   19.4074    8.2476 LP  0  0  0  0  0  0  0  0  0  0  0  0  # atno 6055 bound_to 637 
    9.8451   19.7111    8.6730 LP  0  0  0  0  0  0  0  0  0  0  0  0  # atno 6056 bound_to 637 
    0.5753   11.3145   11.0654 LP  0  0  0  0  0  0  0  0  0  0  0  0  # atno 6063 bound_to 1878
    1.8329   12.2807   10.6758 LP  0  0  0  0  0  0  0  0  0  0  0  0  # atno 6064 bound_to 1878
   -7.1893   15.9424    0.0038 LP  0  0  0  0  0  0  0  0  0  0  0  0  # atno 6067 bound_to 957 
   -6.5248   15.6661   -1.4620 LP  0  0  0  0  0  0  0  0  0  0  0  0  # atno 6068 bound_to 957 

>  <STRIFE_LigEff_Score>  (215) 
2.7291722222222226

$$$$
unknown|pharmsElabsTestMulti|sdf|216|dock3
     RDKit          3D

 20 21  0  0  0  0  0  0  0  0999 V2000
    5.1696   10.4014    5.7425 C   0  0  0  0  0  0  0  0  0  0  0  0
    4.8504    9.9002    4.3663 C   0  0  0  0  0  0  0  0  0  0  0  0
    3.6065    9.3082    4.1052 C   0  0  0  0  0  0  0  0  0  0  0  0
    3.2969    8.8639    2.8183 C   0  0  0  0  0  0  0  0  0  0  0  0
    4.2166    9.0238    1.7796 C   0  0  0  0  0  0  0  0  0  0  0  0
    5.4606    9.6245    2.0197 C   0  0  0  0  0  0  0  0  0  0  0  0
    6.4210    9.8269    0.8733 C   0  0  0  0  0  0  0  0  0  0  0  0
    7.8036    9.9335    1.3644 N   0  0  0  0  0  0  0  0  0  0  0  0
    8.3416    8.9325    2.2457 C   0  0  0  0  0  0  0  0  0  0  0  0
    7.5956    8.0073    2.6459 O   0  0  0  0  0  0  0  0  0  0  0  0
    9.7501    8.8761    2.7604 C   0  0  0  0  0  0  0  0  0  0  0  0
   10.7176    8.1868    1.8111 C   0  0  0  0  0  0  0  0  0  0  0  0
   12.0846    7.8912    2.4183 C   0  0  0  0  0  0  0  0  0  0  0  0
   12.4778    8.8521    3.5555 C   0  0  0  0  0  0  0  0  0  0  0  0
   13.9349    8.5230    4.0217 C   0  0  0  0  0  0  0  0  0  0  0  0
   14.0220    7.0739    4.5342 C   0  0  0  0  0  0  0  0  0  0  0  0
   14.9250    8.7177    2.9535 N   0  0  0  0  0  0  0  0  0  0  0  0
   11.4377    8.7334    4.6985 C   0  0  0  0  0  0  0  0  0  0  0  0
    9.9594    8.8383    4.2624 C   0  0  0  0  0  0  0  0  0  0  0  0
    5.7725   10.0652    3.3192 C   0  0  0  0  0  0  0  0  0  0  0  0
  1  2  1  0
  2  3  2  0
  3  4  1  0
  4  5  2  0
  5  6  1  0
  6  7  1  0
  7  8  1  0
  8  9  1  0
  9 10  2  0
  9 11  1  0
 11 12  1  0
 12 13  1  0
 13 14  1  0
 14 15  1  0
 15 16  1  0
 15 17  1  0
 14 18  1  0
 18 19  1  0
  6 20  2  0
 20  2  1  0
 19 11  1  0
M  CHG  1  17   1
M  END
>  <EmbedRMS>  (216) 
0.16810927383701896

>  <Gold.Version>  (216) 
2020.3.0

>  <Gold.Id.Protein>  (216) 
unknown|1q8t_protein|pdb

>  <Gold.PLP.Fitness>  (216) 
50.1785

>  <Gold.PLP.PLP>  (216) 
-45.5740

>  <Gold.PLP.part.hbond>  (216) 
-2.0000

>  <Gold.PLP.part.metal>  (216) 
0.0000

>  <Gold.PLP.part.buried>  (216) 
0.6851

>  <Gold.PLP.part.nonpolar>  (216) 
-45.6216

>  <Gold.PLP.part.repulsive>  (216) 
0.0129

>  <Gold.PLP.ligand.clash>  (216) 
0.0000

>  <Gold.PLP.ligand.torsion>  (216) 
0.7464

>  <Gold.PLP.Chemscore.Hbond>  (216) 
1.7840

>  <Gold.PLP.Chemscore.CHOScore>  (216) 
0.0000

>  <Gold.PLP.Chemscore.Metal>  (216) 
0.0000

>  <Gold.Chemscore.Hbonds>  (216) 
donor molecule, donor type, donor heavy atom, donor atom, acceptor molecule, acceptor atom, score
      L1  H    17    42       P1   675  0.78
      P1  H  2887  2891       L1    10  1.00

>  <Gold.PLP.Chemscore.Internal.Correction>  (216) 
0.7455

>  <Gold.PLP.Constraint>  (216) 
-0.0000

>  <Gold.Protein.RotatedTorsions>  (216) 
[  681  677  676  673 ] final -142.69 input -179.99 | X-H torsion
[  702  698  697  694 ] final  -91.28 input  179.99 | X-H torsion
[ 2577 2569 2568 2566 ] final  -30.40 input   -0.13 | X-H torsion
[ 2891 2887 2886 2883 ] final -169.02 input  179.98 | X-H torsion
[ 3175 3171 3170 3167 ] final  137.99 input -179.99 | X-H torsion
[ 5278 5270 5269 5267 ] final  -39.89 input    0.55 | X-H torsion
[  641  637  636  633 ] final -163.10 input  179.99 | X-H torsion
[ 1886 1878 1877 1875 ] final  117.37 input    1.60 | X-H torsion
[  965  957  956  954 ] final   47.49 input    0.45 | X-H torsion

>  <Gold.Protein.ActiveResidues>  (216) 
 LYS47   THR48   LEU49   GLY50   THR51   GLY52   SER53   PHE54   GLY55   ARG56  
 VAL57   MET58   LEU59   TYR69   ALA70   MET71   LYS72   ILE73   LEU74   GLU91  
 LEU95   VAL104  LYS105  MET118  VAL119  MET120  GLU121  TYR122  VAL123  PRO124 
 GLY125  GLY126  GLU127  MET128  PHE129  TYR164  ASP166  LEU167  LYS168  PRO169 
 GLU170  ASN171  LEU172  LEU173  ILE174  GLN181  VAL182  THR183  ASP184  PHE185 
 GLY186  PHE187  GLY200  THR201  ASN326  PHE327  TYR330  ARG18   ARG19   ASN20  
 ALA21   ILE22   HIS23  

>  <Gold.Protein.RotatedAtoms>  (216) 
   11.3552   19.2551    7.9816 H   0  0  0  0  0  0  0  0  0  0  0  0  # atno 641  bound_to 637 
   16.5184   13.9331    7.3382 H   0  0  0  0  0  0  0  0  0  0  0  0  # atno 681  bound_to 677 
   20.7339   11.6011   -0.3992 H   0  0  0  0  0  0  0  0  0  0  0  0  # atno 702  bound_to 698 
   -7.0122   15.5161   -0.3547 H   0  0  0  0  0  0  0  0  0  0  0  0  # atno 965  bound_to 957 
    1.2025   12.2580   10.9309 H   0  0  0  0  0  0  0  0  0  0  0  0  # atno 1886 bound_to 1878
   10.2176    3.3714   -3.4077 H   0  0  0  0  0  0  0  0  0  0  0  0  # atno 2577 bound_to 2569
    7.3254    6.5662    1.5074 H   0  0  0  0  0  0  0  0  0  0  0  0  # atno 2891 bound_to 2887
   17.9253    1.9713   -0.3630 H   0  0  0  0  0  0  0  0  0  0  0  0  # atno 3175 bound_to 3171
   13.0130    9.8453   10.3233 H   0  0  0  0  0  0  0  0  0  0  0  0  # atno 5278 bound_to 5270
   17.1373   13.0858    6.1403 LP  0  0  0  0  0  0  0  0  0  0  0  0  # atno 5914 bound_to 677 
   15.6508   12.7467    6.7251 LP  0  0  0  0  0  0  0  0  0  0  0  0  # atno 5915 bound_to 677 
   20.6279   11.6337   -1.9882 LP  0  0  0  0  0  0  0  0  0  0  0  0  # atno 5920 bound_to 698 
   19.3045   11.8503   -1.0565 LP  0  0  0  0  0  0  0  0  0  0  0  0  # atno 5921 bound_to 698 
   10.9703    2.2555   -2.5572 LP  0  0  0  0  0  0  0  0  0  0  0  0  # atno 5950 bound_to 2569
    9.3419    2.2590   -2.6790 LP  0  0  0  0  0  0  0  0  0  0  0  0  # atno 5951 bound_to 2569
    8.3641    6.4615    0.3046 LP  0  0  0  0  0  0  0  0  0  0  0  0  # atno 5982 bound_to 2887
    7.6012    5.1329    0.8700 LP  0  0  0  0  0  0  0  0  0  0  0  0  # atno 5983 bound_to 2887
   18.9491    2.6159   -1.3984 LP  0  0  0  0  0  0  0  0  0  0  0  0  # atno 6000 bound_to 3171
   19.0744    2.9182    0.2015 LP  0  0  0  0  0  0  0  0  0  0  0  0  # atno 6001 bound_to 3171
   14.4692    9.9979    9.6964 LP  0  0  0  0  0  0  0  0  0  0  0  0  # atno 6004 bound_to 5270
   13.1358   10.2105    8.7779 LP  0  0  0  0  0  0  0  0  0  0  0  0  # atno 6005 bound_to 5270
   10.1098   19.7746    8.8265 LP  0  0  0  0  0  0  0  0  0  0  0  0  # atno 6055 bound_to 637 
    9.8958   19.0479    7.3798 LP  0  0  0  0  0  0  0  0  0  0  0  0  # atno 6056 bound_to 637 
    2.2787   11.2648   10.3059 LP  0  0  0  0  0  0  0  0  0  0  0  0  # atno 6063 bound_to 1878
    0.8407   10.7098   10.8452 LP  0  0  0  0  0  0  0  0  0  0  0  0  # atno 6064 bound_to 1878
   -6.4306   16.2231   -1.6573 LP  0  0  0  0  0  0  0  0  0  0  0  0  # atno 6067 bound_to 957 
   -6.9923   17.1074   -0.4046 LP  0  0  0  0  0  0  0  0  0  0  0  0  # atno 6068 bound_to 957 

>  <STRIFE_LigEff_Score>  (216) 
2.508925

$$$$
unknown|pharmsElabsTestMulti|sdf|217|dock9
     RDKit          3D

 17 17  0  0  0  0  0  0  0  0999 V2000
   14.6134    7.6803    3.4918 C   0  0  0  0  0  0  0  0  0  0  0  0
   13.3980    7.5960    2.5697 C   0  0  0  0  0  0  0  0  0  0  0  0
   13.5452    8.4405    1.3825 N   0  0  0  0  0  0  0  0  0  0  0  0
   11.9867    7.6984    3.1988 C   0  0  0  0  0  0  0  0  0  0  0  0
   10.8773    7.0953    2.3250 C   0  0  0  0  0  0  0  0  0  0  0  0
    9.4577    7.5435    2.6295 C   0  0  0  0  0  0  0  0  0  0  0  0
    9.3652    9.0181    2.9290 C   0  0  0  0  0  0  0  0  0  0  0  0
    7.9645    9.5530    2.9208 C   0  0  0  0  0  0  0  0  0  0  0  0
    7.5542    9.9763    4.0284 O   0  0  0  0  0  0  0  0  0  0  0  0
    7.0849    9.5987    1.7839 N   0  0  0  0  0  0  0  0  0  0  0  0
    5.6812   10.0049    1.9483 C   0  0  0  0  0  0  0  0  0  0  0  0
    4.9150    8.9714    2.7881 C   0  0  0  0  0  0  0  0  0  0  0  0
    4.9971    9.2819    4.2144 N   0  0  0  0  0  0  0  0  0  0  0  0
    3.8454    9.6879    4.9602 C   0  0  0  0  0  0  0  0  0  0  0  0
    2.7208    9.8000    4.4030 O   0  0  0  0  0  0  0  0  0  0  0  0
   10.2942    9.5457    3.9868 C   0  0  0  0  0  0  0  0  0  0  0  0
   11.7434    9.1318    3.7413 C   0  0  0  0  0  0  0  0  0  0  0  0
  1  2  1  0
  2  3  1  0
  2  4  1  0
  4  5  1  0
  5  6  1  0
  6  7  1  0
  7  8  1  0
  8  9  2  0
  8 10  1  0
 10 11  1  0
 11 12  1  0
 12 13  1  0
 13 14  1  0
 14 15  2  0
  7 16  1  0
 16 17  1  0
 17  4  1  0
M  CHG  1   3   1
M  END
>  <EmbedRMS>  (217) 
0.30207850723488733

>  <Gold.Version>  (217) 
2020.3.0

>  <Gold.Id.Protein>  (217) 
unknown|1q8t_protein|pdb

>  <Gold.PLP.Fitness>  (217) 
44.6277

>  <Gold.PLP.PLP>  (217) 
-36.4976

>  <Gold.PLP.part.hbond>  (217) 
-1.9339

>  <Gold.PLP.part.metal>  (217) 
0.0000

>  <Gold.PLP.part.buried>  (217) 
-4.7678

>  <Gold.PLP.part.nonpolar>  (217) 
-29.8642

>  <Gold.PLP.part.repulsive>  (217) 
0.1856

>  <Gold.PLP.ligand.clash>  (217) 
0.0000

>  <Gold.PLP.ligand.torsion>  (217) 
0.7450

>  <Gold.PLP.Chemscore.Hbond>  (217) 
2.9913

>  <Gold.PLP.Chemscore.CHOScore>  (217) 
0.0000

>  <Gold.PLP.Chemscore.Metal>  (217) 
0.0000

>  <Gold.Chemscore.Hbonds>  (217) 
donor molecule, donor type, donor heavy atom, donor atom, acceptor molecule, acceptor atom, score
      L1  H     3    23       P1  2902  2.00
      P1  H  1888  1903       L1    15  0.99

>  <Gold.PLP.Chemscore.Internal.Correction>  (217) 
0.6463

>  <Gold.PLP.Constraint>  (217) 
-0.0000

>  <Gold.Protein.RotatedTorsions>  (217) 
[  681  677  676  673 ] final  -92.57 input -179.99 | X-H torsion
[  702  698  697  694 ] final   18.80 input  179.99 | X-H torsion
[ 2577 2569 2568 2566 ] final    4.20 input   -0.13 | X-H torsion
[ 2891 2887 2886 2883 ] final   25.63 input  179.98 | X-H torsion
[ 3175 3171 3170 3167 ] final   -2.44 input -179.99 | X-H torsion
[ 5278 5270 5269 5267 ] final   -5.14 input    0.55 | X-H torsion
[  641  637  636  633 ] final -106.97 input  179.99 | X-H torsion
[ 1886 1878 1877 1875 ] final  -36.22 input    1.60 | X-H torsion
[  965  957  956  954 ] final   22.15 input    0.45 | X-H torsion

>  <Gold.Protein.ActiveResidues>  (217) 
 LYS47   THR48   LEU49   GLY50   THR51   GLY52   SER53   PHE54   GLY55   ARG56  
 VAL57   MET58   LEU59   TYR69   ALA70   MET71   LYS72   ILE73   LEU74   GLU91  
 LEU95   VAL104  LYS105  MET118  VAL119  MET120  GLU121  TYR122  VAL123  PRO124 
 GLY125  GLY126  GLU127  MET128  PHE129  TYR164  ASP166  LEU167  LYS168  PRO169 
 GLU170  ASN171  LEU172  LEU173  ILE174  GLN181  VAL182  THR183  ASP184  PHE185 
 GLY186  PHE187  GLY200  THR201  ASN326  PHE327  TYR330  ARG18   ARG19   ASN20  
 ALA21   ILE22   HIS23  

>  <Gold.Protein.RotatedAtoms>  (217) 
   10.8654   18.9653    7.3605 H   0  0  0  0  0  0  0  0  0  0  0  0  # atno 641  bound_to 637 
   15.8618   13.5539    7.3690 H   0  0  0  0  0  0  0  0  0  0  0  0  # atno 681  bound_to 677 
   19.3785   11.8512   -0.9072 H   0  0  0  0  0  0  0  0  0  0  0  0  # atno 702  bound_to 698 
   -6.8605   15.3810   -0.6909 H   0  0  0  0  0  0  0  0  0  0  0  0  # atno 965  bound_to 957 
    1.9883   10.8184   10.3389 H   0  0  0  0  0  0  0  0  0  0  0  0  # atno 1886 bound_to 1878
    9.7035    3.2423   -3.3557 H   0  0  0  0  0  0  0  0  0  0  0  0  # atno 2577 bound_to 2569
    8.2627    5.7624    0.2292 H   0  0  0  0  0  0  0  0  0  0  0  0  # atno 2891 bound_to 2887
   19.1542    2.7729   -1.1930 H   0  0  0  0  0  0  0  0  0  0  0  0  # atno 3175 bound_to 3171
   12.6882    9.9439    9.9096 H   0  0  0  0  0  0  0  0  0  0  0  0  # atno 5278 bound_to 5270
   17.2762   13.6856    6.6490 LP  0  0  0  0  0  0  0  0  0  0  0  0  # atno 5914 bound_to 677 
   16.2030   12.5460    6.1841 LP  0  0  0  0  0  0  0  0  0  0  0  0  # atno 5915 bound_to 677 
   20.8809   11.5595   -0.4656 LP  0  0  0  0  0  0  0  0  0  0  0  0  # atno 5920 bound_to 698 
   20.4774   11.6615   -2.0447 LP  0  0  0  0  0  0  0  0  0  0  0  0  # atno 5921 bound_to 698 
   11.1175    2.7049   -2.8585 LP  0  0  0  0  0  0  0  0  0  0  0  0  # atno 5950 bound_to 2569
    9.7360    1.9455   -2.4324 LP  0  0  0  0  0  0  0  0  0  0  0  0  # atno 5951 bound_to 2569
    7.2178    5.4617    1.3929 LP  0  0  0  0  0  0  0  0  0  0  0  0  # atno 5982 bound_to 2887
    7.7611    6.9785    1.1270 LP  0  0  0  0  0  0  0  0  0  0  0  0  # atno 5983 bound_to 2887
   18.8306    2.7592    0.3661 LP  0  0  0  0  0  0  0  0  0  0  0  0  # atno 6000 bound_to 3171
   17.8996    1.9314   -0.6895 LP  0  0  0  0  0  0  0  0  0  0  0  0  # atno 6001 bound_to 3171
   14.2525    9.8713   10.2004 LP  0  0  0  0  0  0  0  0  0  0  0  0  # atno 6004 bound_to 5270
   13.6942   10.2333    8.7091 LP  0  0  0  0  0  0  0  0  0  0  0  0  # atno 6005 bound_to 5270
   10.9916   19.6962    8.7693 LP  0  0  0  0  0  0  0  0  0  0  0  0  # atno 6055 bound_to 637 
    9.5298   19.4316    8.0911 LP  0  0  0  0  0  0  0  0  0  0  0  0  # atno 6056 bound_to 637 
    0.5952   11.1597   11.0302 LP  0  0  0  0  0  0  0  0  0  0  0  0  # atno 6063 bound_to 1878
    1.6970   12.3304   10.7441 LP  0  0  0  0  0  0  0  0  0  0  0  0  # atno 6064 bound_to 1878
   -6.4568   16.6306   -1.5912 LP  0  0  0  0  0  0  0  0  0  0  0  0  # atno 6067 bound_to 957 
   -7.1258   16.8421   -0.1167 LP  0  0  0  0  0  0  0  0  0  0  0  0  # atno 6068 bound_to 957 

>  <STRIFE_LigEff_Score>  (217) 
2.6251588235294117

$$$$
unknown|pharmsElabsTestMulti|sdf|218|dock3
     RDKit          3D

 20 21  0  0  0  0  0  0  0  0999 V2000
   15.3340    7.9660    2.8726 C   0  0  0  0  0  0  0  0  0  0  0  0
   14.3120    8.0217    1.7245 C   0  0  0  0  0  0  0  0  0  0  0  0
   14.5905    6.9622    0.7504 N   0  0  0  0  0  0  0  0  0  0  0  0
   12.7982    8.0744    2.1409 C   0  0  0  0  0  0  0  0  0  0  0  0
   11.8395    7.5619    1.0670 C   0  0  0  0  0  0  0  0  0  0  0  0
   10.3704    7.5585    1.4603 C   0  0  0  0  0  0  0  0  0  0  0  0
    9.9595    8.7942    2.2240 C   0  0  0  0  0  0  0  0  0  0  0  0
    8.4742    8.9491    2.3729 C   0  0  0  0  0  0  0  0  0  0  0  0
    7.9540    8.2165    3.2482 O   0  0  0  0  0  0  0  0  0  0  0  0
    7.6337    9.8370    1.6172 N   0  0  0  0  0  0  0  0  0  0  0  0
    6.1712    9.7683    1.7585 C   0  0  0  0  0  0  0  0  0  0  0  0
    5.7742    9.9593    3.2012 C   0  0  0  0  0  0  0  0  0  0  0  0
    6.6477   10.5569    4.1284 C   0  0  0  0  0  0  0  0  0  0  0  0
    6.2758   10.6730    5.4727 C   0  0  0  0  0  0  0  0  0  0  0  0
    5.0322   10.1980    5.8991 C   0  0  0  0  0  0  0  0  0  0  0  0
    4.1574    9.6037    4.9833 C   0  0  0  0  0  0  0  0  0  0  0  0
    2.9200    9.1339    5.4153 O   0  0  0  0  0  0  0  0  0  0  0  0
    4.5313    9.4817    3.6396 C   0  0  0  0  0  0  0  0  0  0  0  0
   10.8351    9.2173    3.3821 C   0  0  0  0  0  0  0  0  0  0  0  0
   12.3181    9.2737    2.9819 C   0  0  0  0  0  0  0  0  0  0  0  0
  1  2  1  0
  2  3  1  0
  2  4  1  0
  4  5  1  0
  5  6  1  0
  6  7  1  0
  7  8  1  0
  8  9  2  0
  8 10  1  0
 10 11  1  0
 11 12  1  0
 12 13  2  0
 13 14  1  0
 14 15  2  0
 15 16  1  0
 16 17  1  0
 16 18  2  0
  7 19  1  0
 19 20  1  0
 20  4  1  0
 18 12  1  0
M  CHG  1   3   1
M  END
>  <EmbedRMS>  (218) 
0.24874902131530774

>  <Gold.Version>  (218) 
2020.3.0

>  <Gold.Id.Protein>  (218) 
unknown|1q8t_protein|pdb

>  <Gold.PLP.Fitness>  (218) 
48.7281

>  <Gold.PLP.PLP>  (218) 
-36.0549

>  <Gold.PLP.part.hbond>  (218) 
-4.1828

>  <Gold.PLP.part.metal>  (218) 
0.0000

>  <Gold.PLP.part.buried>  (218) 
4.3580

>  <Gold.PLP.part.nonpolar>  (218) 
-38.2010

>  <Gold.PLP.part.repulsive>  (218) 
0.1045

>  <Gold.PLP.ligand.clash>  (218) 
0.0000

>  <Gold.PLP.ligand.torsion>  (218) 
0.9285

>  <Gold.PLP.Chemscore.Hbond>  (218) 
4.5680

>  <Gold.PLP.Chemscore.CHOScore>  (218) 
0.0000

>  <Gold.PLP.Chemscore.Metal>  (218) 
0.0000

>  <Gold.Chemscore.Hbonds>  (218) 
donor molecule, donor type, donor heavy atom, donor atom, acceptor molecule, acceptor atom, score
      L1  H     3    25       P1  2902  2.00
      L1  H     3    26       P1  2691  1.00
      L1  H    17    40       P1  1891  0.77
      P1  H  1888  1903       L1    17  0.80

>  <Gold.PLP.Chemscore.Internal.Correction>  (218) 
0.8262

>  <Gold.PLP.Constraint>  (218) 
-0.0000

>  <Gold.Protein.RotatedTorsions>  (218) 
[  681  677  676  673 ] final  126.46 input -179.99 | X-H torsion
[  702  698  697  694 ] final  -42.25 input  179.99 | X-H torsion
[ 2577 2569 2568 2566 ] final  -32.78 input   -0.13 | X-H torsion
[ 2891 2887 2886 2883 ] final   40.11 input  179.98 | X-H torsion
[ 3175 3171 3170 3167 ] final  164.05 input -179.99 | X-H torsion
[ 5278 5270 5269 5267 ] final -177.18 input    0.55 | X-H torsion
[  641  637  636  633 ] final -162.23 input  179.99 | X-H torsion
[ 1886 1878 1877 1875 ] final   59.79 input    1.60 | X-H torsion
[  965  957  956  954 ] final   81.54 input    0.45 | X-H torsion

>  <Gold.Protein.ActiveResidues>  (218) 
 LYS47   THR48   LEU49   GLY50   THR51   GLY52   SER53   PHE54   GLY55   ARG56  
 VAL57   MET58   LEU59   TYR69   ALA70   MET71   LYS72   ILE73   LEU74   GLU91  
 LEU95   VAL104  LYS105  MET118  VAL119  MET120  GLU121  TYR122  VAL123  PRO124 
 GLY125  GLY126  GLU127  MET128  PHE129  TYR164  ASP166  LEU167  LYS168  PRO169 
 GLU170  ASN171  LEU172  LEU173  ILE174  GLN181  VAL182  THR183  ASP184  PHE185 
 GLY186  PHE187  GLY200  THR201  ASN326  PHE327  TYR330  ARG18   ARG19   ASN20  
 ALA21   ILE22   HIS23  

>  <Gold.Protein.RotatedAtoms>  (218) 
   11.3533   19.2490    7.9696 H   0  0  0  0  0  0  0  0  0  0  0  0  # atno 641  bound_to 637 
   17.2466   13.4501    6.4082 H   0  0  0  0  0  0  0  0  0  0  0  0  # atno 681  bound_to 677 
   20.0129   11.7263   -0.2664 H   0  0  0  0  0  0  0  0  0  0  0  0  # atno 702  bound_to 698 
   -7.1492   15.9165   -0.0454 H   0  0  0  0  0  0  0  0  0  0  0  0  # atno 965  bound_to 957 
    1.9747   12.1295   10.5685 H   0  0  0  0  0  0  0  0  0  0  0  0  # atno 1886 bound_to 1878
   10.2546    3.3707   -3.4044 H   0  0  0  0  0  0  0  0  0  0  0  0  # atno 2577 bound_to 2569
    8.3209    5.9802    0.2139 H   0  0  0  0  0  0  0  0  0  0  0  0  # atno 2891 bound_to 2887
   18.0285    2.0962    0.0069 H   0  0  0  0  0  0  0  0  0  0  0  0  # atno 3175 bound_to 3171
   14.4065   10.0789    9.4349 H   0  0  0  0  0  0  0  0  0  0  0  0  # atno 5278 bound_to 5270
   15.9216   12.5671    6.3793 LP  0  0  0  0  0  0  0  0  0  0  0  0  # atno 5914 bound_to 677 
   16.1001   13.7738    7.4650 LP  0  0  0  0  0  0  0  0  0  0  0  0  # atno 5915 bound_to 677 
   21.1241   11.5342   -1.3915 LP  0  0  0  0  0  0  0  0  0  0  0  0  # atno 5920 bound_to 698 
   19.5668   11.8180   -1.7929 LP  0  0  0  0  0  0  0  0  0  0  0  0  # atno 5921 bound_to 698 
   10.9486    2.2280   -2.5397 LP  0  0  0  0  0  0  0  0  0  0  0  0  # atno 5950 bound_to 2569
    9.3246    2.2872   -2.6999 LP  0  0  0  0  0  0  0  0  0  0  0  0  # atno 5951 bound_to 2569
    7.3131    5.3025    1.2443 LP  0  0  0  0  0  0  0  0  0  0  0  0  # atno 5982 bound_to 2887
    7.6045    6.9086    1.2916 LP  0  0  0  0  0  0  0  0  0  0  0  0  # atno 5983 bound_to 2887
   18.6134    2.3604   -1.4504 LP  0  0  0  0  0  0  0  0  0  0  0  0  # atno 6000 bound_to 3171
   19.3015    3.0422   -0.1358 LP  0  0  0  0  0  0  0  0  0  0  0  0  # atno 6001 bound_to 3171
   12.8991   10.1708    8.9288 LP  0  0  0  0  0  0  0  0  0  0  0  0  # atno 6004 bound_to 5270
   13.2396    9.7917   10.4802 LP  0  0  0  0  0  0  0  0  0  0  0  0  # atno 6005 bound_to 5270
   10.1230   19.7765    8.8315 LP  0  0  0  0  0  0  0  0  0  0  0  0  # atno 6055 bound_to 637 
    9.8845   19.0524    7.3874 LP  0  0  0  0  0  0  0  0  0  0  0  0  # atno 6056 bound_to 637 
    1.7154   10.5642   10.4348 LP  0  0  0  0  0  0  0  0  0  0  0  0  # atno 6063 bound_to 1878
    0.5912   11.5456   11.0978 LP  0  0  0  0  0  0  0  0  0  0  0  0  # atno 6064 bound_to 1878
   -6.5121   15.7038   -1.4890 LP  0  0  0  0  0  0  0  0  0  0  0  0  # atno 6067 bound_to 957 
   -6.7664   17.2050   -0.8988 LP  0  0  0  0  0  0  0  0  0  0  0  0  # atno 6068 bound_to 957 

>  <STRIFE_LigEff_Score>  (218) 
2.4364049999999997

$$$$
unknown|pharmsElabsTestMulti|sdf|219|dock7
     RDKit          3D

 17 17  0  0  0  0  0  0  0  0999 V2000
   14.2327    7.2929    3.4010 C   0  0  0  0  0  0  0  0  0  0  0  0
   12.9943    7.3962    2.5123 C   0  0  0  0  0  0  0  0  0  0  0  0
   13.1835    8.3388    1.4077 N   0  0  0  0  0  0  0  0  0  0  0  0
   11.6104    7.5481    3.1906 C   0  0  0  0  0  0  0  0  0  0  0  0
   10.4382    7.0984    2.3066 C   0  0  0  0  0  0  0  0  0  0  0  0
    9.0635    7.6207    2.6890 C   0  0  0  0  0  0  0  0  0  0  0  0
    9.0874    9.0691    3.1065 C   0  0  0  0  0  0  0  0  0  0  0  0
    7.7302    9.7017    3.1837 C   0  0  0  0  0  0  0  0  0  0  0  0
    7.4196   10.1496    4.3138 O   0  0  0  0  0  0  0  0  0  0  0  0
    6.7879    9.8127    2.1028 N   0  0  0  0  0  0  0  0  0  0  0  0
    5.4292   10.3166    2.3527 C   0  0  0  0  0  0  0  0  0  0  0  0
    4.3892    9.2152    2.0958 C   0  0  0  0  0  0  0  0  0  0  0  0
    3.1425    9.4869    2.8096 N   0  0  0  0  0  0  0  0  0  0  0  0
    3.1304    9.7872    4.2086 C   0  0  0  0  0  0  0  0  0  0  0  0
    4.2008    9.8165    4.8728 O   0  0  0  0  0  0  0  0  0  0  0  0
   10.0789    9.4418    4.1735 C   0  0  0  0  0  0  0  0  0  0  0  0
   11.4871    8.9466    3.8516 C   0  0  0  0  0  0  0  0  0  0  0  0
  1  2  1  0
  2  3  1  0
  2  4  1  0
  4  5  1  0
  5  6  1  0
  6  7  1  0
  7  8  1  0
  8  9  2  0
  8 10  1  0
 10 11  1  0
 11 12  1  0
 12 13  1  0
 13 14  1  0
 14 15  2  0
  7 16  1  0
 16 17  1  0
 17  4  1  0
M  CHG  1   3   1
M  END
>  <EmbedRMS>  (219) 
0.30207850723488733

>  <Gold.Version>  (219) 
2020.3.0

>  <Gold.Id.Protein>  (219) 
unknown|1q8t_protein|pdb

>  <Gold.PLP.Fitness>  (219) 
44.1393

>  <Gold.PLP.PLP>  (219) 
-35.7683

>  <Gold.PLP.part.hbond>  (219) 
-2.0000

>  <Gold.PLP.part.metal>  (219) 
0.0000

>  <Gold.PLP.part.buried>  (219) 
-2.0813

>  <Gold.PLP.part.nonpolar>  (219) 
-32.0959

>  <Gold.PLP.part.repulsive>  (219) 
0.1606

>  <Gold.PLP.ligand.clash>  (219) 
0.0000

>  <Gold.PLP.ligand.torsion>  (219) 
0.6174

>  <Gold.PLP.Chemscore.Hbond>  (219) 
2.9913

>  <Gold.PLP.Chemscore.CHOScore>  (219) 
0.0000

>  <Gold.PLP.Chemscore.Metal>  (219) 
0.0000

>  <Gold.Chemscore.Hbonds>  (219) 
donor molecule, donor type, donor heavy atom, donor atom, acceptor molecule, acceptor atom, score
      L1  H     3    24       P1  2902  2.00
      L1  H    13    36       P1  1855  0.99

>  <Gold.PLP.Chemscore.Internal.Correction>  (219) 
0.6320

>  <Gold.PLP.Constraint>  (219) 
-0.0000

>  <Gold.Protein.RotatedTorsions>  (219) 
[  681  677  676  673 ] final  -51.50 input -179.99 | X-H torsion
[  702  698  697  694 ] final -148.76 input  179.99 | X-H torsion
[ 2577 2569 2568 2566 ] final -165.88 input   -0.13 | X-H torsion
[ 2891 2887 2886 2883 ] final  172.35 input  179.98 | X-H torsion
[ 3175 3171 3170 3167 ] final   68.78 input -179.99 | X-H torsion
[ 5278 5270 5269 5267 ] final  126.75 input    0.55 | X-H torsion
[  641  637  636  633 ] final   14.48 input  179.99 | X-H torsion
[ 1886 1878 1877 1875 ] final -170.55 input    1.60 | X-H torsion
[  965  957  956  954 ] final   48.57 input    0.45 | X-H torsion

>  <Gold.Protein.ActiveResidues>  (219) 
 LYS47   THR48   LEU49   GLY50   THR51   GLY52   SER53   PHE54   GLY55   ARG56  
 VAL57   MET58   LEU59   TYR69   ALA70   MET71   LYS72   ILE73   LEU74   GLU91  
 LEU95   VAL104  LYS105  MET118  VAL119  MET120  GLU121  TYR122  VAL123  PRO124 
 GLY125  GLY126  GLU127  MET128  PHE129  TYR164  ASP166  LEU167  LYS168  PRO169 
 GLU170  ASN171  LEU172  LEU173  ILE174  GLN181  VAL182  THR183  ASP184  PHE185 
 GLY186  PHE187  GLY200  THR201  ASN326  PHE327  TYR330  ARG18   ARG19   ASN20  
 ALA21   ILE22   HIS23  

>  <Gold.Protein.RotatedAtoms>  (219) 
    9.5781   19.4235    8.1171 H   0  0  0  0  0  0  0  0  0  0  0  0  # atno 641  bound_to 637 
   15.6155   13.0742    7.0460 H   0  0  0  0  0  0  0  0  0  0  0  0  # atno 681  bound_to 677 
   21.1146   11.5485   -1.1707 H   0  0  0  0  0  0  0  0  0  0  0  0  # atno 702  bound_to 698 
   -7.0180   15.5253   -0.3419 H   0  0  0  0  0  0  0  0  0  0  0  0  # atno 965  bound_to 957 
    0.6111   11.3934   11.0441 H   0  0  0  0  0  0  0  0  0  0  0  0  # atno 1886 bound_to 1878
   10.7759    2.1091   -2.4902 H   0  0  0  0  0  0  0  0  0  0  0  0  # atno 2577 bound_to 2569
    7.4812    6.7727    1.3764 H   0  0  0  0  0  0  0  0  0  0  0  0  # atno 2891 bound_to 2887
   18.3246    2.1468   -1.2822 H   0  0  0  0  0  0  0  0  0  0  0  0  # atno 3175 bound_to 3171
   13.8643   10.2279    8.8078 H   0  0  0  0  0  0  0  0  0  0  0  0  # atno 5278 bound_to 5270
   16.9319   13.9655    7.1397 LP  0  0  0  0  0  0  0  0  0  0  0  0  # atno 5914 bound_to 677 
   16.8065   12.7710    6.0333 LP  0  0  0  0  0  0  0  0  0  0  0  0  # atno 5915 bound_to 677 
   19.7367   11.7906   -1.9323 LP  0  0  0  0  0  0  0  0  0  0  0  0  # atno 5920 bound_to 698 
   19.7953   11.7487   -0.3009 LP  0  0  0  0  0  0  0  0  0  0  0  0  # atno 5921 bound_to 698 
    9.2564    2.4524   -2.8196 LP  0  0  0  0  0  0  0  0  0  0  0  0  # atno 5950 bound_to 2569
   10.4680    3.3912   -3.3827 LP  0  0  0  0  0  0  0  0  0  0  0  0  # atno 5951 bound_to 2569
    8.3851    6.1718    0.2109 LP  0  0  0  0  0  0  0  0  0  0  0  0  # atno 5982 bound_to 2887
    7.4162    5.2052    1.1016 LP  0  0  0  0  0  0  0  0  0  0  0  0  # atno 5983 bound_to 2887
   19.3918    3.0576   -0.5291 LP  0  0  0  0  0  0  0  0  0  0  0  0  # atno 6000 bound_to 3171
   18.2114    2.2918    0.2995 LP  0  0  0  0  0  0  0  0  0  0  0  0  # atno 6001 bound_to 3171
   12.5970    9.9683    9.7370 LP  0  0  0  0  0  0  0  0  0  0  0  0  # atno 6004 bound_to 5270
   14.1122    9.8374   10.3318 LP  0  0  0  0  0  0  0  0  0  0  0  0  # atno 6005 bound_to 5270
   10.8659   18.9560    7.3059 LP  0  0  0  0  0  0  0  0  0  0  0  0  # atno 6055 bound_to 637 
   11.0112   19.6892    8.7577 LP  0  0  0  0  0  0  0  0  0  0  0  0  # atno 6056 bound_to 637 
    1.8932   12.2485   10.6437 LP  0  0  0  0  0  0  0  0  0  0  0  0  # atno 6063 bound_to 1878
    1.8488   10.6363   10.3883 LP  0  0  0  0  0  0  0  0  0  0  0  0  # atno 6064 bound_to 1878
   -6.4311   16.2054   -1.6565 LP  0  0  0  0  0  0  0  0  0  0  0  0  # atno 6067 bound_to 957 
   -6.9856   17.1153   -0.4191 LP  0  0  0  0  0  0  0  0  0  0  0  0  # atno 6068 bound_to 957 

>  <STRIFE_LigEff_Score>  (219) 
2.596429411764706

$$$$
unknown|pharmsElabsTestMulti|sdf|220|dock3
     RDKit          3D

 17 17  0  0  0  0  0  0  0  0999 V2000
   14.5251    7.5835    3.4200 C   0  0  0  0  0  0  0  0  0  0  0  0
   13.3246    7.6022    2.4751 C   0  0  0  0  0  0  0  0  0  0  0  0
   13.5084    8.5408    1.3662 N   0  0  0  0  0  0  0  0  0  0  0  0
   11.9047    7.6800    3.0884 C   0  0  0  0  0  0  0  0  0  0  0  0
   10.8102    7.0939    2.1847 C   0  0  0  0  0  0  0  0  0  0  0  0
    9.3842    7.5258    2.4826 C   0  0  0  0  0  0  0  0  0  0  0  0
    9.2790    8.9914    2.8195 C   0  0  0  0  0  0  0  0  0  0  0  0
    7.8753    9.5184    2.8073 C   0  0  0  0  0  0  0  0  0  0  0  0
    7.4497    9.9136    3.9195 O   0  0  0  0  0  0  0  0  0  0  0  0
    7.0087    9.5854    1.6615 N   0  0  0  0  0  0  0  0  0  0  0  0
    5.6008    9.9797    1.8189 C   0  0  0  0  0  0  0  0  0  0  0  0
    4.8544    8.9731    2.7078 C   0  0  0  0  0  0  0  0  0  0  0  0
    4.9885    9.3148    4.1230 N   0  0  0  0  0  0  0  0  0  0  0  0
    3.8613    9.7187    4.9063 C   0  0  0  0  0  0  0  0  0  0  0  0
    2.7136    9.8017    4.3928 O   0  0  0  0  0  0  0  0  0  0  0  0
   10.1912    9.4962    3.9027 C   0  0  0  0  0  0  0  0  0  0  0  0
   11.6459    9.0972    3.6652 C   0  0  0  0  0  0  0  0  0  0  0  0
  1  2  1  0
  2  3  1  0
  2  4  1  0
  4  5  1  0
  5  6  1  0
  6  7  1  0
  7  8  1  0
  8  9  2  0
  8 10  1  0
 10 11  1  0
 11 12  1  0
 12 13  1  0
 13 14  1  0
 14 15  2  0
  7 16  1  0
 16 17  1  0
 17  4  1  0
M  CHG  1   3   1
M  END
>  <EmbedRMS>  (220) 
0.30207850723488733

>  <Gold.Version>  (220) 
2020.3.0

>  <Gold.Id.Protein>  (220) 
unknown|1q8t_protein|pdb

>  <Gold.PLP.Fitness>  (220) 
44.3612

>  <Gold.PLP.PLP>  (220) 
-36.2763

>  <Gold.PLP.part.hbond>  (220) 
-1.9220

>  <Gold.PLP.part.metal>  (220) 
0.0000

>  <Gold.PLP.part.buried>  (220) 
-4.1621

>  <Gold.PLP.part.nonpolar>  (220) 
-30.4637

>  <Gold.PLP.part.repulsive>  (220) 
0.1856

>  <Gold.PLP.ligand.clash>  (220) 
0.0000

>  <Gold.PLP.ligand.torsion>  (220) 
0.7541

>  <Gold.PLP.Chemscore.Hbond>  (220) 
2.9753

>  <Gold.PLP.Chemscore.CHOScore>  (220) 
0.0000

>  <Gold.PLP.Chemscore.Metal>  (220) 
0.0000

>  <Gold.Chemscore.Hbonds>  (220) 
donor molecule, donor type, donor heavy atom, donor atom, acceptor molecule, acceptor atom, score
      L1  H     3    24       P1  2902  1.98
      P1  H  1888  1903       L1    15  0.99

>  <Gold.PLP.Chemscore.Internal.Correction>  (220) 
0.6674

>  <Gold.PLP.Constraint>  (220) 
-0.0000

>  <Gold.Protein.RotatedTorsions>  (220) 
[  681  677  676  673 ] final  135.28 input -179.99 | X-H torsion
[  702  698  697  694 ] final   15.08 input  179.99 | X-H torsion
[ 2577 2569 2568 2566 ] final  143.31 input   -0.13 | X-H torsion
[ 2891 2887 2886 2883 ] final   88.16 input  179.98 | X-H torsion
[ 3175 3171 3170 3167 ] final   18.60 input -179.99 | X-H torsion
[ 5278 5270 5269 5267 ] final -145.31 input    0.55 | X-H torsion
[  641  637  636  633 ] final  177.19 input  179.99 | X-H torsion
[ 1886 1878 1877 1875 ] final  -27.71 input    1.60 | X-H torsion
[  965  957  956  954 ] final -157.93 input    0.45 | X-H torsion

>  <Gold.Protein.ActiveResidues>  (220) 
 LYS47   THR48   LEU49   GLY50   THR51   GLY52   SER53   PHE54   GLY55   ARG56  
 VAL57   MET58   LEU59   TYR69   ALA70   MET71   LYS72   ILE73   LEU74   GLU91  
 LEU95   VAL104  LYS105  MET118  VAL119  MET120  GLU121  TYR122  VAL123  PRO124 
 GLY125  GLY126  GLU127  MET128  PHE129  TYR164  ASP166  LEU167  LYS168  PRO169 
 GLU170  ASN171  LEU172  LEU173  ILE174  GLN181  VAL182  THR183  ASP184  PHE185 
 GLY186  PHE187  GLY200  THR201  ASN326  PHE327  TYR330  ARG18   ARG19   ASN20  
 ALA21   ILE22   HIS23  

>  <Gold.Protein.RotatedAtoms>  (220) 
   11.3428   19.3949    8.2540 H   0  0  0  0  0  0  0  0  0  0  0  0  # atno 641  bound_to 637 
   17.2520   13.5495    6.5034 H   0  0  0  0  0  0  0  0  0  0  0  0  # atno 681  bound_to 677 
   19.3946   11.8472   -0.8515 H   0  0  0  0  0  0  0  0  0  0  0  0  # atno 702  bound_to 698 
   -6.7509   17.1567   -0.8945 H   0  0  0  0  0  0  0  0  0  0  0  0  # atno 965  bound_to 957 
    2.0717   10.9202   10.3195 H   0  0  0  0  0  0  0  0  0  0  0  0  # atno 1886 bound_to 1878
   10.0408    1.9038   -2.4015 H   0  0  0  0  0  0  0  0  0  0  0  0  # atno 2577 bound_to 2569
    8.2499    6.6632    0.4598 H   0  0  0  0  0  0  0  0  0  0  0  0  # atno 2891 bound_to 2887
   18.9368    2.5905   -1.3557 H   0  0  0  0  0  0  0  0  0  0  0  0  # atno 3175 bound_to 3171
   14.3730    9.9610    9.9115 H   0  0  0  0  0  0  0  0  0  0  0  0  # atno 5278 bound_to 5270
   16.0335   12.5466    6.2896 LP  0  0  0  0  0  0  0  0  0  0  0  0  # atno 5914 bound_to 677 
   15.9825   13.6897    7.4546 LP  0  0  0  0  0  0  0  0  0  0  0  0  # atno 5915 bound_to 677 
   20.9224   11.5530   -0.5101 LP  0  0  0  0  0  0  0  0  0  0  0  0  # atno 5920 bound_to 698 
   20.4188   11.6721   -2.0589 LP  0  0  0  0  0  0  0  0  0  0  0  0  # atno 5921 bound_to 698 
    9.4438    3.1052   -3.2591 LP  0  0  0  0  0  0  0  0  0  0  0  0  # atno 5950 bound_to 2569
   11.0545    2.9546   -3.0365 LP  0  0  0  0  0  0  0  0  0  0  0  0  # atno 5951 bound_to 2569
    7.7870    5.1524    0.6594 LP  0  0  0  0  0  0  0  0  0  0  0  0  # atno 5982 bound_to 2887
    7.2053    6.3398    1.6177 LP  0  0  0  0  0  0  0  0  0  0  0  0  # atno 5983 bound_to 2887
   19.0810    2.9222    0.1950 LP  0  0  0  0  0  0  0  0  0  0  0  0  # atno 6000 bound_to 3171
   17.8780    1.9602   -0.3471 LP  0  0  0  0  0  0  0  0  0  0  0  0  # atno 6001 bound_to 3171
   13.3641   10.2299    8.7088 LP  0  0  0  0  0  0  0  0  0  0  0  0  # atno 6004 bound_to 5270
   12.8099    9.8567   10.1988 LP  0  0  0  0  0  0  0  0  0  0  0  0  # atno 6005 bound_to 5270
    9.8373   19.7082    8.6666 LP  0  0  0  0  0  0  0  0  0  0  0  0  # atno 6055 bound_to 637 
   10.1812   18.9671    7.2527 LP  0  0  0  0  0  0  0  0  0  0  0  0  # atno 6056 bound_to 637 
    0.6325   11.0304   10.9917 LP  0  0  0  0  0  0  0  0  0  0  0  0  # atno 6063 bound_to 1878
    1.5720   12.3526   10.8030 LP  0  0  0  0  0  0  0  0  0  0  0  0  # atno 6064 bound_to 1878
   -7.1836   15.9060   -0.0093 LP  0  0  0  0  0  0  0  0  0  0  0  0  # atno 6067 bound_to 957 
   -6.5144   15.6967   -1.4841 LP  0  0  0  0  0  0  0  0  0  0  0  0  # atno 6068 bound_to 957 

>  <STRIFE_LigEff_Score>  (220) 
2.609482352941176

$$$$
unknown|pharmsElabsTestMulti|sdf|221|dock4
     RDKit          3D

 20 21  0  0  0  0  0  0  0  0999 V2000
    4.4193    9.6855    5.6971 C   0  0  0  0  0  0  0  0  0  0  0  0
    4.4139    9.5108    4.2015 C   0  0  0  0  0  0  0  0  0  0  0  0
    3.3547    8.8024    3.6090 C   0  0  0  0  0  0  0  0  0  0  0  0
    3.2867    8.6514    2.2238 C   0  0  0  0  0  0  0  0  0  0  0  0
    4.2741    9.2050    1.4105 C   0  0  0  0  0  0  0  0  0  0  0  0
    5.3351    9.9100    1.9807 C   0  0  0  0  0  0  0  0  0  0  0  0
    5.4200   10.0724    3.3756 C   0  0  0  0  0  0  0  0  0  0  0  0
    6.5875   10.8475    3.9358 C   0  0  0  0  0  0  0  0  0  0  0  0
    7.7563    9.9834    4.0530 N   0  0  0  0  0  0  0  0  0  0  0  0
    8.4547    9.4613    2.9159 C   0  0  0  0  0  0  0  0  0  0  0  0
    8.0688    9.7353    1.7466 O   0  0  0  0  0  0  0  0  0  0  0  0
    9.6687    8.5995    3.1228 C   0  0  0  0  0  0  0  0  0  0  0  0
   10.0456    7.8903    1.8236 C   0  0  0  0  0  0  0  0  0  0  0  0
   11.1798    6.8989    2.0382 C   0  0  0  0  0  0  0  0  0  0  0  0
   12.3644    7.4120    2.9001 C   0  0  0  0  0  0  0  0  0  0  0  0
   13.7910    7.4045    2.3164 C   0  0  0  0  0  0  0  0  0  0  0  0
   14.9684    7.4619    3.2895 C   0  0  0  0  0  0  0  0  0  0  0  0
   13.9543    8.3853    1.2346 N   0  0  0  0  0  0  0  0  0  0  0  0
   12.0892    8.6078    3.8628 C   0  0  0  0  0  0  0  0  0  0  0  0
   10.8461    9.4506    3.5853 C   0  0  0  0  0  0  0  0  0  0  0  0
  1  2  1  0
  2  3  2  0
  3  4  1  0
  4  5  2  0
  5  6  1  0
  6  7  2  0
  7  8  1  0
  8  9  1  0
  9 10  1  0
 10 11  2  0
 10 12  1  0
 12 13  1  0
 13 14  1  0
 14 15  1  0
 15 16  1  0
 16 17  1  0
 16 18  1  0
 15 19  1  0
 19 20  1  0
  7  2  1  0
 20 12  1  0
M  CHG  1  18   1
M  END
>  <EmbedRMS>  (221) 
0.19204016474732244

>  <Gold.Version>  (221) 
2020.3.0

>  <Gold.Id.Protein>  (221) 
unknown|1q8t_protein|pdb

>  <Gold.PLP.Fitness>  (221) 
51.7917

>  <Gold.PLP.PLP>  (221) 
-47.0401

>  <Gold.PLP.part.hbond>  (221) 
-1.0000

>  <Gold.PLP.part.metal>  (221) 
0.0000

>  <Gold.PLP.part.buried>  (221) 
-1.2922

>  <Gold.PLP.part.nonpolar>  (221) 
-45.7718

>  <Gold.PLP.part.repulsive>  (221) 
0.0000

>  <Gold.PLP.ligand.clash>  (221) 
0.0237

>  <Gold.PLP.ligand.torsion>  (221) 
0.8754

>  <Gold.PLP.Chemscore.Hbond>  (221) 
2.0000

>  <Gold.PLP.Chemscore.CHOScore>  (221) 
0.0000

>  <Gold.PLP.Chemscore.Metal>  (221) 
0.0000

>  <Gold.Chemscore.Hbonds>  (221) 
donor molecule, donor type, donor heavy atom, donor atom, acceptor molecule, acceptor atom, score
      L1  H    18    43       P1  2902  2.00

>  <Gold.PLP.Chemscore.Internal.Correction>  (221) 
0.5260

>  <Gold.PLP.Constraint>  (221) 
-0.0000

>  <Gold.Protein.RotatedTorsions>  (221) 
[  681  677  676  673 ] final  -80.49 input -179.99 | X-H torsion
[  702  698  697  694 ] final -124.57 input  179.99 | X-H torsion
[ 2577 2569 2568 2566 ] final -142.95 input   -0.13 | X-H torsion
[ 2891 2887 2886 2883 ] final  146.95 input  179.98 | X-H torsion
[ 3175 3171 3170 3167 ] final  -56.93 input -179.99 | X-H torsion
[ 5278 5270 5269 5267 ] final -114.99 input    0.55 | X-H torsion
[  641  637  636  633 ] final -146.73 input  179.99 | X-H torsion
[ 1886 1878 1877 1875 ] final   -3.15 input    1.60 | X-H torsion
[  965  957  956  954 ] final  178.65 input    0.45 | X-H torsion

>  <Gold.Protein.ActiveResidues>  (221) 
 LYS47   THR48   LEU49   GLY50   THR51   GLY52   SER53   PHE54   GLY55   ARG56  
 VAL57   MET58   LEU59   TYR69   ALA70   MET71   LYS72   ILE73   LEU74   GLU91  
 LEU95   VAL104  LYS105  MET118  VAL119  MET120  GLU121  TYR122  VAL123  PRO124 
 GLY125  GLY126  GLU127  MET128  PHE129  TYR164  ASP166  LEU167  LYS168  PRO169 
 GLU170  ASN171  LEU172  LEU173  ILE174  GLN181  VAL182  THR183  ASP184  PHE185 
 GLY186  PHE187  GLY200  THR201  ASN326  PHE327  TYR330  ARG18   ARG19   ASN20  
 ALA21   ILE22   HIS23  

>  <Gold.Protein.RotatedAtoms>  (221) 
   11.2862   19.1465    7.7615 H   0  0  0  0  0  0  0  0  0  0  0  0  # atno 641  bound_to 637 
   15.7512   13.4169    7.3016 H   0  0  0  0  0  0  0  0  0  0  0  0  # atno 681  bound_to 677 
   21.0504   11.5527   -0.8008 H   0  0  0  0  0  0  0  0  0  0  0  0  # atno 702  bound_to 698 
   -6.9012   17.1291   -0.5649 H   0  0  0  0  0  0  0  0  0  0  0  0  # atno 965  bound_to 957 
    2.2280   11.2675   10.3098 H   0  0  0  0  0  0  0  0  0  0  0  0  # atno 1886 bound_to 1878
   10.9875    2.3512   -2.6428 H   0  0  0  0  0  0  0  0  0  0  0  0  # atno 2577 bound_to 2569
    7.7351    6.9316    1.1204 H   0  0  0  0  0  0  0  0  0  0  0  0  # atno 2891 bound_to 2887
   19.3560    3.0212   -0.4380 H   0  0  0  0  0  0  0  0  0  0  0  0  # atno 3175 bound_to 3171
   14.1043    9.8665   10.2835 H   0  0  0  0  0  0  0  0  0  0  0  0  # atno 5278 bound_to 5270
   17.2136   13.7985    6.7997 LP  0  0  0  0  0  0  0  0  0  0  0  0  # atno 5914 bound_to 677 
   16.3819   12.5774    6.1043 LP  0  0  0  0  0  0  0  0  0  0  0  0  # atno 5915 bound_to 677 
   20.1022   11.7285   -2.0686 LP  0  0  0  0  0  0  0  0  0  0  0  0  # atno 5920 bound_to 698 
   19.4973   11.8064   -0.5537 LP  0  0  0  0  0  0  0  0  0  0  0  0  # atno 5921 bound_to 698 
    9.4053    2.1750   -2.6161 LP  0  0  0  0  0  0  0  0  0  0  0  0  # atno 5950 bound_to 2569
   10.0963    3.4136   -3.4254 LP  0  0  0  0  0  0  0  0  0  0  0  0  # atno 5951 bound_to 2569
    8.3090    5.7643    0.2014 LP  0  0  0  0  0  0  0  0  0  0  0  0  # atno 5982 bound_to 2887
    7.2251    5.4454    1.3805 LP  0  0  0  0  0  0  0  0  0  0  0  0  # atno 5983 bound_to 2887
   18.1507    2.2404    0.2499 LP  0  0  0  0  0  0  0  0  0  0  0  0  # atno 6000 bound_to 3171
   18.3671    2.1888   -1.3679 LP  0  0  0  0  0  0  0  0  0  0  0  0  # atno 6001 bound_to 3171
   13.8552   10.2245    8.7517 LP  0  0  0  0  0  0  0  0  0  0  0  0  # atno 6004 bound_to 5270
   12.6015    9.9616    9.7644 LP  0  0  0  0  0  0  0  0  0  0  0  0  # atno 6005 bound_to 5270
   10.3695   19.7932    8.8913 LP  0  0  0  0  0  0  0  0  0  0  0  0  # atno 6055 bound_to 637 
    9.7086   19.1436    7.5467 LP  0  0  0  0  0  0  0  0  0  0  0  0  # atno 6056 bound_to 637 
    0.8351   10.7152   10.8486 LP  0  0  0  0  0  0  0  0  0  0  0  0  # atno 6063 bound_to 1878
    1.2048   12.3021   10.9563 LP  0  0  0  0  0  0  0  0  0  0  0  0  # atno 6064 bound_to 1878
   -7.0967   15.5901   -0.2070 LP  0  0  0  0  0  0  0  0  0  0  0  0  # atno 6067 bound_to 957 
   -6.4431   16.0416   -1.6337 LP  0  0  0  0  0  0  0  0  0  0  0  0  # atno 6068 bound_to 957 

>  <STRIFE_LigEff_Score>  (221) 
2.589585

$$$$
unknown|pharmsElabsTestMulti|sdf|222|dock3
     RDKit          3D

 20 20  0  0  0  0  0  0  0  0999 V2000
   14.6557    6.5524    4.6844 C   0  0  0  0  0  0  0  0  0  0  0  0
   14.1666    8.0105    4.7029 C   0  0  0  0  0  0  0  0  0  0  0  0
   15.0260    8.8410    3.8539 N   0  0  0  0  0  0  0  0  0  0  0  0
   12.6386    8.2369    4.4175 C   0  0  0  0  0  0  0  0  0  0  0  0
   12.0578    7.2987    3.3606 C   0  0  0  0  0  0  0  0  0  0  0  0
   10.5696    7.4650    3.0966 C   0  0  0  0  0  0  0  0  0  0  0  0
   10.1344    8.9098    3.0560 C   0  0  0  0  0  0  0  0  0  0  0  0
    8.7476    9.1090    2.5209 C   0  0  0  0  0  0  0  0  0  0  0  0
    8.4092    8.3008    1.6241 O   0  0  0  0  0  0  0  0  0  0  0  0
    7.8149   10.1175    2.9413 N   0  0  0  0  0  0  0  0  0  0  0  0
    6.5587   10.3240    2.2051 C   0  0  0  0  0  0  0  0  0  0  0  0
    5.4296    9.5038    2.8156 C   0  0  0  0  0  0  0  0  0  0  0  0
    4.5160    8.9266    1.9988 C   0  0  0  0  0  0  0  0  0  0  0  0
    3.3210    8.1400    2.4684 C   0  0  0  0  0  0  0  0  0  0  0  0
    3.3046    6.4905    1.6975 S   0  0  0  0  0  0  0  0  0  0  0  0
    5.3126    9.4240    4.3268 C   0  0  0  0  0  0  0  0  0  0  0  0
    3.7390   10.0548    4.8680 Cl  0  0  0  0  0  0  0  0  0  0  0  0
    6.7589   10.3784    5.1938 Br  0  0  0  0  0  0  0  0  0  0  0  0
   10.5918    9.8046    4.1857 C   0  0  0  0  0  0  0  0  0  0  0  0
   12.1046    9.6831    4.4284 C   0  0  0  0  0  0  0  0  0  0  0  0
  1  2  1  0
  2  3  1  0
  2  4  1  0
  4  5  1  0
  5  6  1  0
  6  7  1  0
  7  8  1  0
  8  9  2  0
  8 10  1  0
 10 11  1  0
 11 12  1  0
 12 13  2  0
 13 14  1  0
 14 15  1  0
 12 16  1  0
 16 17  1  0
 16 18  1  0
  7 19  1  0
 19 20  1  0
 20  4  1  0
M  CHG  1   3   1
M  END
>  <EmbedRMS>  (222) 
0.24927478121552069

>  <Gold.Version>  (222) 
2020.3.0

>  <Gold.Id.Protein>  (222) 
unknown|1q8t_protein|pdb

>  <Gold.PLP.Fitness>  (222) 
51.5810

>  <Gold.PLP.PLP>  (222) 
-47.0420

>  <Gold.PLP.part.hbond>  (222) 
-1.8057

>  <Gold.PLP.part.metal>  (222) 
0.0000

>  <Gold.PLP.part.buried>  (222) 
-5.0116

>  <Gold.PLP.part.nonpolar>  (222) 
-40.1043

>  <Gold.PLP.part.repulsive>  (222) 
0.0303

>  <Gold.PLP.ligand.clash>  (222) 
0.0000

>  <Gold.PLP.ligand.torsion>  (222) 
1.1969

>  <Gold.PLP.Chemscore.Hbond>  (222) 
1.9440

>  <Gold.PLP.Chemscore.CHOScore>  (222) 
0.0000

>  <Gold.PLP.Chemscore.Metal>  (222) 
0.0000

>  <Gold.Chemscore.Hbonds>  (222) 
donor molecule, donor type, donor heavy atom, donor atom, acceptor molecule, acceptor atom, score
      L1  H     3    26       P1   675  0.94
      P1  H  2887  2891       L1     9  1.00

>  <Gold.PLP.Chemscore.Internal.Correction>  (222) 
1.1008

>  <Gold.PLP.Constraint>  (222) 
-0.0000

>  <Gold.Protein.RotatedTorsions>  (222) 
[  681  677  676  673 ] final  158.36 input -179.99 | X-H torsion
[  702  698  697  694 ] final -144.92 input  179.99 | X-H torsion
[ 2577 2569 2568 2566 ] final -110.78 input   -0.13 | X-H torsion
[ 2891 2887 2886 2883 ] final  131.78 input  179.98 | X-H torsion
[ 3175 3171 3170 3167 ] final -132.60 input -179.99 | X-H torsion
[ 5278 5270 5269 5267 ] final  -37.10 input    0.55 | X-H torsion
[  641  637  636  633 ] final  -42.41 input  179.99 | X-H torsion
[ 1886 1878 1877 1875 ] final  172.34 input    1.60 | X-H torsion
[  965  957  956  954 ] final  179.62 input    0.45 | X-H torsion

>  <Gold.Protein.ActiveResidues>  (222) 
 LYS47   THR48   LEU49   GLY50   THR51   GLY52   SER53   PHE54   GLY55   ARG56  
 VAL57   MET58   LEU59   TYR69   ALA70   MET71   LYS72   ILE73   LEU74   GLU91  
 LEU95   VAL104  LYS105  MET118  VAL119  MET120  GLU121  TYR122  VAL123  PRO124 
 GLY125  GLY126  GLU127  MET128  PHE129  TYR164  ASP166  LEU167  LYS168  PRO169 
 GLU170  ASN171  LEU172  LEU173  ILE174  GLN181  VAL182  THR183  ASP184  PHE185 
 GLY186  PHE187  GLY200  THR201  ASN326  PHE327  TYR330  ARG18   ARG19   ASN20  
 ALA21   ILE22   HIS23  

>  <Gold.Protein.RotatedAtoms>  (222) 
    9.9155   19.0524    7.4272 H   0  0  0  0  0  0  0  0  0  0  0  0  # atno 641  bound_to 637 
   17.1754   13.7733    6.7727 H   0  0  0  0  0  0  0  0  0  0  0  0  # atno 681  bound_to 677 
   21.1148   11.5473   -1.1107 H   0  0  0  0  0  0  0  0  0  0  0  0  # atno 702  bound_to 698 
   -6.8951   17.1332   -0.5781 H   0  0  0  0  0  0  0  0  0  0  0  0  # atno 965  bound_to 957 
    0.6546   11.6550   11.0696 H   0  0  0  0  0  0  0  0  0  0  0  0  # atno 1886 bound_to 1878
   11.0650    2.7564   -2.9185 H   0  0  0  0  0  0  0  0  0  0  0  0  # atno 2577 bound_to 2569
    7.8911    6.9472    0.9434 H   0  0  0  0  0  0  0  0  0  0  0  0  # atno 2891 bound_to 2887
   18.7052    2.6441    0.3630 H   0  0  0  0  0  0  0  0  0  0  0  0  # atno 3175 bound_to 3171
   12.9781    9.8511   10.2980 H   0  0  0  0  0  0  0  0  0  0  0  0  # atno 5278 bound_to 5270
   16.3646   12.5730    6.1107 LP  0  0  0  0  0  0  0  0  0  0  0  0  # atno 5914 bound_to 677 
   15.7320   13.4278    7.3500 LP  0  0  0  0  0  0  0  0  0  0  0  0  # atno 5915 bound_to 677 
   19.7904   11.7817   -1.9642 LP  0  0  0  0  0  0  0  0  0  0  0  0  # atno 5920 bound_to 698 
   19.7413   11.7589   -0.3321 LP  0  0  0  0  0  0  0  0  0  0  0  0  # atno 5921 bound_to 698 
    9.8105    1.9189   -2.4085 LP  0  0  0  0  0  0  0  0  0  0  0  0  # atno 5950 bound_to 2569
    9.6095    3.2431   -3.3427 LP  0  0  0  0  0  0  0  0  0  0  0  0  # atno 5951 bound_to 2569
    8.2110    5.5436    0.2620 LP  0  0  0  0  0  0  0  0  0  0  0  0  # atno 5982 bound_to 2887
    7.1588    5.6497    1.5062 LP  0  0  0  0  0  0  0  0  0  0  0  0  # atno 5983 bound_to 2887
   17.9456    1.9446   -0.8492 LP  0  0  0  0  0  0  0  0  0  0  0  0  # atno 6000 bound_to 3171
   19.2571    2.8815   -1.1117 LP  0  0  0  0  0  0  0  0  0  0  0  0  # atno 6001 bound_to 3171
   14.4639    9.9869    9.7405 LP  0  0  0  0  0  0  0  0  0  0  0  0  # atno 6004 bound_to 5270
   13.1779   10.2153    8.7603 LP  0  0  0  0  0  0  0  0  0  0  0  0  # atno 6005 bound_to 5270
   11.4015   19.2599    7.9596 LP  0  0  0  0  0  0  0  0  0  0  0  0  # atno 6055 bound_to 637 
   10.1203   19.7761    8.8305 LP  0  0  0  0  0  0  0  0  0  0  0  0  # atno 6056 bound_to 637 
    2.0895   12.0843   10.5291 LP  0  0  0  0  0  0  0  0  0  0  0  0  # atno 6063 bound_to 1878
    1.6068   10.5252   10.4760 LP  0  0  0  0  0  0  0  0  0  0  0  0  # atno 6064 bound_to 1878
   -7.1013   15.6012   -0.1965 LP  0  0  0  0  0  0  0  0  0  0  0  0  # atno 6067 bound_to 957 
   -6.4448   16.0261   -1.6301 LP  0  0  0  0  0  0  0  0  0  0  0  0  # atno 6068 bound_to 957 

>  <STRIFE_LigEff_Score>  (222) 
2.57905

$$$$
unknown|pharmsElabsTestMulti|sdf|223|dock10
     RDKit          3D

 17 17  0  0  0  0  0  0  0  0999 V2000
    4.1141   10.0692    5.6002 C   0  0  0  0  0  0  0  0  0  0  0  0
    4.3670    9.7522    4.2014 N   0  0  0  0  0  0  0  0  0  0  0  0
    5.6137    9.1970    3.7684 C   0  0  0  0  0  0  0  0  0  0  0  0
    6.5329    8.9644    4.5994 O   0  0  0  0  0  0  0  0  0  0  0  0
    5.8369    8.8986    2.3227 C   0  0  0  0  0  0  0  0  0  0  0  0
    7.2111    8.4451    2.0597 N   0  0  0  0  0  0  0  0  0  0  0  0
    8.2988    9.2717    2.5078 C   0  0  0  0  0  0  0  0  0  0  0  0
    8.0390   10.3800    3.0400 O   0  0  0  0  0  0  0  0  0  0  0  0
    9.7576    8.9293    2.4296 C   0  0  0  0  0  0  0  0  0  0  0  0
   10.1008    7.4827    2.7951 C   0  0  0  0  0  0  0  0  0  0  0  0
   11.6127    7.1902    2.8861 C   0  0  0  0  0  0  0  0  0  0  0  0
   12.4206    8.1684    2.0189 C   0  0  0  0  0  0  0  0  0  0  0  0
   13.9029    7.8028    1.6976 C   0  0  0  0  0  0  0  0  0  0  0  0
   14.8776    8.9571    1.5358 C   0  0  0  0  0  0  0  0  0  0  0  0
   14.1366    6.6747    0.8024 N   0  0  0  0  0  0  0  0  0  0  0  0
   12.2363    9.6048    2.5501 C   0  0  0  0  0  0  0  0  0  0  0  0
   10.7614   10.0450    2.6709 C   0  0  0  0  0  0  0  0  0  0  0  0
  1  2  1  0
  2  3  1  0
  3  4  2  0
  3  5  1  0
  5  6  1  0
  6  7  1  0
  7  8  2  0
  7  9  1  0
  9 10  1  0
 10 11  1  0
 11 12  1  0
 12 13  1  0
 13 14  1  0
 13 15  1  0
 12 16  1  0
 16 17  1  0
 17  9  1  0
M  CHG  1  15   1
M  END
>  <EmbedRMS>  (223) 
0.2569057114362328

>  <Gold.Version>  (223) 
2020.3.0

>  <Gold.Id.Protein>  (223) 
unknown|1q8t_protein|pdb

>  <Gold.PLP.Fitness>  (223) 
41.3341

>  <Gold.PLP.PLP>  (223) 
-30.4702

>  <Gold.PLP.part.hbond>  (223) 
-2.8784

>  <Gold.PLP.part.metal>  (223) 
0.0000

>  <Gold.PLP.part.buried>  (223) 
-1.8738

>  <Gold.PLP.part.nonpolar>  (223) 
-26.9604

>  <Gold.PLP.part.repulsive>  (223) 
0.1532

>  <Gold.PLP.ligand.clash>  (223) 
0.0000

>  <Gold.PLP.ligand.torsion>  (223) 
1.0573

>  <Gold.PLP.Chemscore.Hbond>  (223) 
3.9913

>  <Gold.PLP.Chemscore.CHOScore>  (223) 
0.0000

>  <Gold.PLP.Chemscore.Metal>  (223) 
0.0000

>  <Gold.Chemscore.Hbonds>  (223) 
donor molecule, donor type, donor heavy atom, donor atom, acceptor molecule, acceptor atom, score
      L1  H     6    24       P1  2887  1.00
      L1  H    15    35       P1  2691  0.99
      L1  H    15    36       P1  2902  2.00

>  <Gold.PLP.Chemscore.Internal.Correction>  (223) 
1.0047

>  <Gold.PLP.Constraint>  (223) 
-0.0000

>  <Gold.Protein.RotatedTorsions>  (223) 
[  681  677  676  673 ] final  -30.73 input -179.99 | X-H torsion
[  702  698  697  694 ] final  -10.65 input  179.99 | X-H torsion
[ 2577 2569 2568 2566 ] final   89.25 input   -0.13 | X-H torsion
[ 2891 2887 2886 2883 ] final  -51.90 input  179.98 | X-H torsion
[ 3175 3171 3170 3167 ] final   59.83 input -179.99 | X-H torsion
[ 5278 5270 5269 5267 ] final -127.36 input    0.55 | X-H torsion
[  641  637  636  633 ] final   64.38 input  179.99 | X-H torsion
[ 1886 1878 1877 1875 ] final   40.24 input    1.60 | X-H torsion
[  965  957  956  954 ] final  -57.32 input    0.45 | X-H torsion

>  <Gold.Protein.ActiveResidues>  (223) 
 LYS47   THR48   LEU49   GLY50   THR51   GLY52   SER53   PHE54   GLY55   ARG56  
 VAL57   MET58   LEU59   TYR69   ALA70   MET71   LYS72   ILE73   LEU74   GLU91  
 LEU95   VAL104  LYS105  MET118  VAL119  MET120  GLU121  TYR122  VAL123  PRO124 
 GLY125  GLY126  GLU127  MET128  PHE129  TYR164  ASP166  LEU167  LYS168  PRO169 
 GLU170  ASN171  LEU172  LEU173  ILE174  GLN181  VAL182  THR183  ASP184  PHE185 
 GLY186  PHE187  GLY200  THR201  ASN326  PHE327  TYR330  ARG18   ARG19   ASN20  
 ALA21   ILE22   HIS23  

>  <Gold.Protein.RotatedAtoms>  (223) 
    9.9561   19.7041    8.7079 H   0  0  0  0  0  0  0  0  0  0  0  0  # atno 641  bound_to 637 
   15.6442   12.8549    6.8108 H   0  0  0  0  0  0  0  0  0  0  0  0  # atno 681  bound_to 677 
   19.5977   11.8047   -0.5105 H   0  0  0  0  0  0  0  0  0  0  0  0  # atno 702  bound_to 698 
   -6.4548   15.9925   -1.5694 H   0  0  0  0  0  0  0  0  0  0  0  0  # atno 965  bound_to 957 
    2.1497   11.9089   10.4537 H   0  0  0  0  0  0  0  0  0  0  0  0  # atno 1886 bound_to 1878
    9.3824    2.2727   -2.7060 H   0  0  0  0  0  0  0  0  0  0  0  0  # atno 2577 bound_to 2569
    7.5681    5.1864    0.8957 H   0  0  0  0  0  0  0  0  0  0  0  0  # atno 2891 bound_to 2887
   18.4293    2.2162   -1.3435 H   0  0  0  0  0  0  0  0  0  0  0  0  # atno 3175 bound_to 3171
   14.2383    9.9011   10.1489 H   0  0  0  0  0  0  0  0  0  0  0  0  # atno 5278 bound_to 5270
   16.6487   13.9776    7.3272 LP  0  0  0  0  0  0  0  0  0  0  0  0  # atno 5914 bound_to 677 
   17.0595   12.9898    6.0934 LP  0  0  0  0  0  0  0  0  0  0  0  0  # atno 5915 bound_to 677 
   21.1221   11.5247   -0.8783 LP  0  0  0  0  0  0  0  0  0  0  0  0  # atno 5920 bound_to 698 
   20.0055   11.7452   -2.0492 LP  0  0  0  0  0  0  0  0  0  0  0  0  # atno 5921 bound_to 698 
   10.2244    3.4198   -3.4204 LP  0  0  0  0  0  0  0  0  0  0  0  0  # atno 5950 bound_to 2569
   10.9673    2.2514   -2.5547 LP  0  0  0  0  0  0  0  0  0  0  0  0  # atno 5951 bound_to 2569
    7.3383    6.6279    1.5327 LP  0  0  0  0  0  0  0  0  0  0  0  0  # atno 5982 bound_to 2887
    8.3716    6.4187    0.2857 LP  0  0  0  0  0  0  0  0  0  0  0  0  # atno 5983 bound_to 2887
   19.3749    3.0642   -0.3831 LP  0  0  0  0  0  0  0  0  0  0  0  0  # atno 6000 bound_to 3171
   18.1182    2.2122    0.2182 LP  0  0  0  0  0  0  0  0  0  0  0  0  # atno 6001 bound_to 3171
   13.6580   10.2343    8.7035 LP  0  0  0  0  0  0  0  0  0  0  0  0  # atno 6004 bound_to 5270
   12.6576    9.9154    9.9542 LP  0  0  0  0  0  0  0  0  0  0  0  0  # atno 6005 bound_to 5270
   10.0713   18.9916    7.2887 LP  0  0  0  0  0  0  0  0  0  0  0  0  # atno 6055 bound_to 637 
   11.4077   19.3581    8.1527 LP  0  0  0  0  0  0  0  0  0  0  0  0  # atno 6056 bound_to 637 
    1.4253   10.4943   10.5508 LP  0  0  0  0  0  0  0  0  0  0  0  0  # atno 6063 bound_to 1878
    0.6970   11.8477   11.1027 LP  0  0  0  0  0  0  0  0  0  0  0  0  # atno 6064 bound_to 1878
   -6.8944   17.1910   -0.6178 LP  0  0  0  0  0  0  0  0  0  0  0  0  # atno 6067 bound_to 957 
   -7.1154   15.6377   -0.1648 LP  0  0  0  0  0  0  0  0  0  0  0  0  # atno 6068 bound_to 957 

>  <STRIFE_LigEff_Score>  (223) 
2.4314176470588236

$$$$
unknown|pharmsElabsTestMulti|sdf|224|dock3
     RDKit          3D

 16 16  0  0  0  0  0  0  0  0999 V2000
    3.2846    8.8896    3.0986 C   0  0  0  0  0  0  0  0  0  0  0  0
    3.2890    9.6366    4.3552 N   0  0  0  0  0  0  0  0  0  0  0  0
    4.5925    9.4823    5.0043 C   0  0  0  0  0  0  0  0  0  0  0  0
    5.6862   10.1327    4.1666 C   0  0  0  0  0  0  0  0  0  0  0  0
    6.9759    9.4324    4.2787 N   0  0  0  0  0  0  0  0  0  0  0  0
    7.8864    9.5032    3.1677 C   0  0  0  0  0  0  0  0  0  0  0  0
    7.5270   10.1039    2.1256 O   0  0  0  0  0  0  0  0  0  0  0  0
    9.2737    8.9350    3.1183 C   0  0  0  0  0  0  0  0  0  0  0  0
    9.3183    7.4437    2.8999 C   0  0  0  0  0  0  0  0  0  0  0  0
   10.7054    6.9464    2.5282 C   0  0  0  0  0  0  0  0  0  0  0  0
   11.8830    7.5747    3.2875 C   0  0  0  0  0  0  0  0  0  0  0  0
   13.2463    7.4033    2.5730 C   0  0  0  0  0  0  0  0  0  0  0  0
   14.5115    7.3349    3.4266 C   0  0  0  0  0  0  0  0  0  0  0  0
   13.3980    8.3071    1.4308 N   0  0  0  0  0  0  0  0  0  0  0  0
   11.7040    9.0430    3.7571 C   0  0  0  0  0  0  0  0  0  0  0  0
   10.2833    9.5028    4.0761 C   0  0  0  0  0  0  0  0  0  0  0  0
  1  2  1  0
  2  3  1  0
  3  4  1  0
  4  5  1  0
  5  6  1  0
  6  7  2  0
  6  8  1  0
  8  9  1  0
  9 10  1  0
 10 11  1  0
 11 12  1  0
 12 13  1  0
 12 14  1  0
 11 15  1  0
 15 16  1  0
 16  8  1  0
M  CHG  1  14   1
M  END
>  <EmbedRMS>  (224) 
0.31072278256227437

>  <Gold.Version>  (224) 
2020.3.0

>  <Gold.Id.Protein>  (224) 
unknown|1q8t_protein|pdb

>  <Gold.PLP.Fitness>  (224) 
44.2937

>  <Gold.PLP.PLP>  (224) 
-37.5605

>  <Gold.PLP.part.hbond>  (224) 
-2.0000

>  <Gold.PLP.part.metal>  (224) 
0.0000

>  <Gold.PLP.part.buried>  (224) 
-2.6931

>  <Gold.PLP.part.nonpolar>  (224) 
-32.3363

>  <Gold.PLP.part.repulsive>  (224) 
0.0000

>  <Gold.PLP.ligand.clash>  (224) 
0.0000

>  <Gold.PLP.ligand.torsion>  (224) 
0.9559

>  <Gold.PLP.Chemscore.Hbond>  (224) 
2.6072

>  <Gold.PLP.Chemscore.CHOScore>  (224) 
0.0000

>  <Gold.PLP.Chemscore.Metal>  (224) 
0.0000

>  <Gold.Chemscore.Hbonds>  (224) 
donor molecule, donor type, donor heavy atom, donor atom, acceptor molecule, acceptor atom, score
      L1  H    14    36       P1  2902  1.98
      P1  H  1888  1903       L1     2  0.62

>  <Gold.PLP.Chemscore.Internal.Correction>  (224) 
0.8234

>  <Gold.PLP.Constraint>  (224) 
-0.0000

>  <Gold.Protein.RotatedTorsions>  (224) 
[  681  677  676  673 ] final -113.44 input -179.99 | X-H torsion
[  702  698  697  694 ] final   -8.70 input  179.99 | X-H torsion
[ 2577 2569 2568 2566 ] final  137.24 input   -0.13 | X-H torsion
[ 2891 2887 2886 2883 ] final  122.62 input  179.98 | X-H torsion
[ 3175 3171 3170 3167 ] final  141.63 input -179.99 | X-H torsion
[ 5278 5270 5269 5267 ] final  -83.22 input    0.55 | X-H torsion
[  641  637  636  633 ] final  140.34 input  179.99 | X-H torsion
[ 1886 1878 1877 1875 ] final  168.74 input    1.60 | X-H torsion
[  965  957  956  954 ] final  110.97 input    0.45 | X-H torsion

>  <Gold.Protein.ActiveResidues>  (224) 
 LYS47   THR48   LEU49   GLY50   THR51   GLY52   SER53   PHE54   GLY55   ARG56  
 VAL57   MET58   LEU59   TYR69   ALA70   MET71   LYS72   ILE73   LEU74   GLU91  
 LEU95   VAL104  LYS105  MET118  VAL119  MET120  GLU121  TYR122  VAL123  PRO124 
 GLY125  GLY126  GLU127  MET128  PHE129  TYR164  ASP166  LEU167  LYS168  PRO169 
 GLU170  ASN171  LEU172  LEU173  ILE174  GLN181  VAL182  THR183  ASP184  PHE185 
 GLY186  PHE187  GLY200  THR201  ASN326  PHE327  TYR330  ARG18   ARG19   ASN20  
 ALA21   ILE22   HIS23  

>  <Gold.Protein.RotatedAtoms>  (224) 
   11.0551   19.6292    8.6814 H   0  0  0  0  0  0  0  0  0  0  0  0  # atno 641  bound_to 637 
   16.1090   13.7582    7.4184 H   0  0  0  0  0  0  0  0  0  0  0  0  # atno 681  bound_to 677 
   19.5772   11.8087   -0.5329 H   0  0  0  0  0  0  0  0  0  0  0  0  # atno 702  bound_to 698 
   -7.1733   16.3665    0.0171 H   0  0  0  0  0  0  0  0  0  0  0  0  # atno 965  bound_to 957 
    0.6727   11.7081   11.0706 H   0  0  0  0  0  0  0  0  0  0  0  0  # atno 1886 bound_to 1878
    9.9481    1.9166   -2.4172 H   0  0  0  0  0  0  0  0  0  0  0  0  # atno 2577 bound_to 2569
    7.9811    6.9267    0.8342 H   0  0  0  0  0  0  0  0  0  0  0  0  # atno 2891 bound_to 2887
   17.9311    1.9829   -0.3076 H   0  0  0  0  0  0  0  0  0  0  0  0  # atno 3175 bound_to 3171
   13.6560    9.8143   10.4758 H   0  0  0  0  0  0  0  0  0  0  0  0  # atno 5278 bound_to 5270
   17.2962   13.4498    6.4028 LP  0  0  0  0  0  0  0  0  0  0  0  0  # atno 5914 bound_to 677 
   15.9228   12.5668    6.3782 LP  0  0  0  0  0  0  0  0  0  0  0  0  # atno 5915 bound_to 677 
   21.1129   11.5257   -0.8475 LP  0  0  0  0  0  0  0  0  0  0  0  0  # atno 5920 bound_to 698 
   20.0364   11.7399   -2.0566 LP  0  0  0  0  0  0  0  0  0  0  0  0  # atno 5921 bound_to 698 
    9.5104    3.1686   -3.2983 LP  0  0  0  0  0  0  0  0  0  0  0  0  # atno 5950 bound_to 2569
   11.0856    2.8777   -2.9808 LP  0  0  0  0  0  0  0  0  0  0  0  0  # atno 5951 bound_to 2569
    8.1362    5.4271    0.3207 LP  0  0  0  0  0  0  0  0  0  0  0  0  # atno 5982 bound_to 2887
    7.1389    5.7879    1.5624 LP  0  0  0  0  0  0  0  0  0  0  0  0  # atno 5983 bound_to 2887
   18.9046    2.5805   -1.4171 LP  0  0  0  0  0  0  0  0  0  0  0  0  # atno 6000 bound_to 3171
   19.1128    2.9415    0.1618 LP  0  0  0  0  0  0  0  0  0  0  0  0  # atno 6001 bound_to 3171
   14.2726   10.1559    9.0475 LP  0  0  0  0  0  0  0  0  0  0  0  0  # atno 6004 bound_to 5270
   12.6558   10.0851    9.2662 LP  0  0  0  0  0  0  0  0  0  0  0  0  # atno 6005 bound_to 5270
    9.5451   19.4850    8.1975 LP  0  0  0  0  0  0  0  0  0  0  0  0  # atno 6055 bound_to 637 
   10.7765   18.9435    7.2717 LP  0  0  0  0  0  0  0  0  0  0  0  0  # atno 6056 bound_to 637 
    2.1239   12.0417   10.5067 LP  0  0  0  0  0  0  0  0  0  0  0  0  # atno 6063 bound_to 1878
    1.5532   10.5117   10.4973 LP  0  0  0  0  0  0  0  0  0  0  0  0  # atno 6064 bound_to 1878
   -6.6699   15.4058   -1.1485 LP  0  0  0  0  0  0  0  0  0  0  0  0  # atno 6067 bound_to 957 
   -6.5832   17.0290   -1.3050 LP  0  0  0  0  0  0  0  0  0  0  0  0  # atno 6068 bound_to 957 

>  <STRIFE_LigEff_Score>  (224) 
2.76835625

$$$$
unknown|pharmsElabsTestMulti|sdf|225|dock8
     RDKit          3D

 17 17  0  0  0  0  0  0  0  0999 V2000
   14.6054    7.4336    2.7105 C   0  0  0  0  0  0  0  0  0  0  0  0
   13.3480    7.6937    1.8812 C   0  0  0  0  0  0  0  0  0  0  0  0
   13.4582    8.9586    1.1417 N   0  0  0  0  0  0  0  0  0  0  0  0
   11.9780    7.5379    2.5702 C   0  0  0  0  0  0  0  0  0  0  0  0
   10.7080    7.3007    1.7098 C   0  0  0  0  0  0  0  0  0  0  0  0
    9.5928    8.3205    1.8894 C   0  0  0  0  0  0  0  0  0  0  0  0
    9.3498    8.6295    3.3646 C   0  0  0  0  0  0  0  0  0  0  0  0
    8.1492    9.5217    3.5239 C   0  0  0  0  0  0  0  0  0  0  0  0
    7.5629    9.9909    2.5083 O   0  0  0  0  0  0  0  0  0  0  0  0
    7.6911    9.8535    4.8363 N   0  0  0  0  0  0  0  0  0  0  0  0
    6.5126   10.6853    5.0475 C   0  0  0  0  0  0  0  0  0  0  0  0
    5.2800    9.9112    4.7110 C   0  0  0  0  0  0  0  0  0  0  0  0
    5.2793    9.1424    3.7127 O   0  0  0  0  0  0  0  0  0  0  0  0
    4.1333    9.9861    5.5601 N   0  0  0  0  0  0  0  0  0  0  0  0
    3.0235    9.2610    5.2853 O   0  0  0  0  0  0  0  0  0  0  0  0
   10.5891    9.3013    3.9452 C   0  0  0  0  0  0  0  0  0  0  0  0
   11.8228    8.4050    3.8573 C   0  0  0  0  0  0  0  0  0  0  0  0
  1  2  1  0
  2  3  1  0
  2  4  1  0
  4  5  1  0
  5  6  1  0
  6  7  1  0
  7  8  1  0
  8  9  2  0
  8 10  1  0
 10 11  1  0
 11 12  1  0
 12 13  2  0
 12 14  1  0
 14 15  1  0
  7 16  1  0
 16 17  1  0
 17  4  1  0
M  CHG  1   3   1
M  END
>  <EmbedRMS>  (225) 
0.20786673572978834

>  <Gold.Version>  (225) 
2020.3.0

>  <Gold.Id.Protein>  (225) 
unknown|1q8t_protein|pdb

>  <Gold.PLP.Fitness>  (225) 
43.8980

>  <Gold.PLP.PLP>  (225) 
-33.0556

>  <Gold.PLP.part.hbond>  (225) 
-3.0000

>  <Gold.PLP.part.metal>  (225) 
0.0000

>  <Gold.PLP.part.buried>  (225) 
-6.0225

>  <Gold.PLP.part.nonpolar>  (225) 
-24.4559

>  <Gold.PLP.part.repulsive>  (225) 
0.0589

>  <Gold.PLP.ligand.clash>  (225) 
0.0000

>  <Gold.PLP.ligand.torsion>  (225) 
0.5661

>  <Gold.PLP.Chemscore.Hbond>  (225) 
3.8352

>  <Gold.PLP.Chemscore.CHOScore>  (225) 
0.0000

>  <Gold.PLP.Chemscore.Metal>  (225) 
0.0000

>  <Gold.Chemscore.Hbonds>  (225) 
donor molecule, donor type, donor heavy atom, donor atom, acceptor molecule, acceptor atom, score
      L1  H     3    23       P1  2902  2.00
      L1  H    15    35       P1  1891  1.00
      P1  H  1888  1903       L1    15  0.84

>  <Gold.PLP.Chemscore.Internal.Correction>  (225) 
0.4690

>  <Gold.PLP.Constraint>  (225) 
-0.0000

>  <Gold.Protein.RotatedTorsions>  (225) 
[  681  677  676  673 ] final  -27.27 input -179.99 | X-H torsion
[  702  698  697  694 ] final -110.90 input  179.99 | X-H torsion
[ 2577 2569 2568 2566 ] final  167.10 input   -0.13 | X-H torsion
[ 2891 2887 2886 2883 ] final  155.35 input  179.98 | X-H torsion
[ 3175 3171 3170 3167 ] final -162.92 input -179.99 | X-H torsion
[ 5278 5270 5269 5267 ] final -173.78 input    0.55 | X-H torsion
[  641  637  636  633 ] final -122.55 input  179.99 | X-H torsion
[ 1886 1878 1877 1875 ] final  135.55 input    1.60 | X-H torsion
[  965  957  956  954 ] final -167.03 input    0.45 | X-H torsion

>  <Gold.Protein.ActiveResidues>  (225) 
 LYS47   THR48   LEU49   GLY50   THR51   GLY52   SER53   PHE54   GLY55   ARG56  
 VAL57   MET58   LEU59   TYR69   ALA70   MET71   LYS72   ILE73   LEU74   GLU91  
 LEU95   VAL104  LYS105  MET118  VAL119  MET120  GLU121  TYR122  VAL123  PRO124 
 GLY125  GLY126  GLU127  MET128  PHE129  TYR164  ASP166  LEU167  LYS168  PRO169 
 GLU170  ASN171  LEU172  LEU173  ILE174  GLN181  VAL182  THR183  ASP184  PHE185 
 GLY186  PHE187  GLY200  THR201  ASN326  PHE327  TYR330  ARG18   ARG19   ASN20  
 ALA21   ILE22   HIS23  

>  <Gold.Protein.RotatedAtoms>  (225) 
   11.0661   19.0183    7.4863 H   0  0  0  0  0  0  0  0  0  0  0  0  # atno 641  bound_to 637 
   15.6592   12.8230    6.7698 H   0  0  0  0  0  0  0  0  0  0  0  0  # atno 681  bound_to 677 
   20.9488   11.5671   -0.6137 H   0  0  0  0  0  0  0  0  0  0  0  0  # atno 702  bound_to 698 
   -6.8096   17.1636   -0.7653 H   0  0  0  0  0  0  0  0  0  0  0  0  # atno 965  bound_to 957 
    0.9680   12.1216   11.0110 H   0  0  0  0  0  0  0  0  0  0  0  0  # atno 1886 bound_to 1878
   10.4088    1.9326   -2.3946 H   0  0  0  0  0  0  0  0  0  0  0  0  # atno 2577 bound_to 2569
    7.6483    6.8967    1.2125 H   0  0  0  0  0  0  0  0  0  0  0  0  # atno 2891 bound_to 2887
   18.3337    2.3627    0.3154 H   0  0  0  0  0  0  0  0  0  0  0  0  # atno 3175 bound_to 3171
   14.4160   10.0665    9.4857 H   0  0  0  0  0  0  0  0  0  0  0  0  # atno 5278 bound_to 5270
   16.5978   13.9704    7.3516 LP  0  0  0  0  0  0  0  0  0  0  0  0  # atno 5914 bound_to 677 
   17.0946   13.0306    6.1121 LP  0  0  0  0  0  0  0  0  0  0  0  0  # atno 5915 bound_to 677 
   20.3231   11.6894   -2.0735 LP  0  0  0  0  0  0  0  0  0  0  0  0  # atno 5920 bound_to 698 
   19.3833   11.8304   -0.7455 LP  0  0  0  0  0  0  0  0  0  0  0  0  # atno 5921 bound_to 698 
    9.2681    2.8145   -3.0702 LP  0  0  0  0  0  0  0  0  0  0  0  0  # atno 5950 bound_to 2569
   10.8429    3.2149   -3.2328 LP  0  0  0  0  0  0  0  0  0  0  0  0  # atno 5951 bound_to 2569
    8.3471    5.8965    0.1889 LP  0  0  0  0  0  0  0  0  0  0  0  0  # atno 5982 bound_to 2887
    7.2783    5.3499    1.2960 LP  0  0  0  0  0  0  0  0  0  0  0  0  # atno 5983 bound_to 2887
   18.2026    2.0828   -1.2467 LP  0  0  0  0  0  0  0  0  0  0  0  0  # atno 6000 bound_to 3171
   19.3911    3.0394   -0.6642 LP  0  0  0  0  0  0  0  0  0  0  0  0  # atno 6001 bound_to 3171
   12.9418   10.1799    8.8937 LP  0  0  0  0  0  0  0  0  0  0  0  0  # atno 6004 bound_to 5270
   13.1869    9.7957   10.4618 LP  0  0  0  0  0  0  0  0  0  0  0  0  # atno 6005 bound_to 5270
   10.7618   19.7571    8.8635 LP  0  0  0  0  0  0  0  0  0  0  0  0  # atno 6055 bound_to 637 
    9.5482   19.3148    7.8644 LP  0  0  0  0  0  0  0  0  0  0  0  0  # atno 6056 bound_to 637 
    2.3010   11.5590   10.3463 LP  0  0  0  0  0  0  0  0  0  0  0  0  # atno 6063 bound_to 1878
    1.0654   10.5591   10.7205 LP  0  0  0  0  0  0  0  0  0  0  0  0  # atno 6064 bound_to 1878
   -7.1564   15.7729   -0.0720 LP  0  0  0  0  0  0  0  0  0  0  0  0  # atno 6067 bound_to 957 
   -6.4798   15.8224   -1.5575 LP  0  0  0  0  0  0  0  0  0  0  0  0  # atno 6068 bound_to 957 

>  <STRIFE_LigEff_Score>  (225) 
2.5822352941176474

$$$$
unknown|pharmsElabsTestMulti|sdf|226|dock10
     RDKit          3D

 17 17  0  0  0  0  0  0  0  0999 V2000
   14.7101    7.5157    3.2024 C   0  0  0  0  0  0  0  0  0  0  0  0
   13.8178    7.8187    2.0108 C   0  0  0  0  0  0  0  0  0  0  0  0
   14.4653    8.5283    0.9149 N   0  0  0  0  0  0  0  0  0  0  0  0
   12.3372    8.1850    2.3208 C   0  0  0  0  0  0  0  0  0  0  0  0
   11.3061    7.0471    2.4289 C   0  0  0  0  0  0  0  0  0  0  0  0
    9.9054    7.6566    2.2522 C   0  0  0  0  0  0  0  0  0  0  0  0
    9.6400    8.7324    3.3216 C   0  0  0  0  0  0  0  0  0  0  0  0
    8.2978    9.3722    3.1118 C   0  0  0  0  0  0  0  0  0  0  0  0
    7.9445   10.3709    3.8014 O   0  0  0  0  0  0  0  0  0  0  0  0
    7.4169    8.8214    2.1293 N   0  0  0  0  0  0  0  0  0  0  0  0
    6.1006    9.3758    1.8610 C   0  0  0  0  0  0  0  0  0  0  0  0
    5.1448    9.0344    3.0060 C   0  0  0  0  0  0  0  0  0  0  0  0
    5.2303   10.0691    4.1319 C   0  0  0  0  0  0  0  0  0  0  0  0
    4.2850    9.7549    5.2930 C   0  0  0  0  0  0  0  0  0  0  0  0
    2.9989    9.5097    4.8114 O   0  0  0  0  0  0  0  0  0  0  0  0
   10.7429    9.8064    3.3809 C   0  0  0  0  0  0  0  0  0  0  0  0
   12.1386    9.1752    3.4818 C   0  0  0  0  0  0  0  0  0  0  0  0
  1  2  1  0
  2  3  1  0
  2  4  1  0
  4  5  1  0
  5  6  1  0
  6  7  1  0
  7  8  1  0
  8  9  2  0
  8 10  1  0
 10 11  1  0
 11 12  1  0
 12 13  1  0
 13 14  1  0
 14 15  1  0
  7 16  1  0
 16 17  1  0
 17  4  1  0
M  CHG  2   3   1  15  -1
M  END
>  <EmbedRMS>  (226) 
0.18860855158841386

>  <Gold.Version>  (226) 
2020.3.0

>  <Gold.Id.Protein>  (226) 
unknown|1q8t_protein|pdb

>  <Gold.PLP.Fitness>  (226) 
46.4881

>  <Gold.PLP.PLP>  (226) 
-36.5141

>  <Gold.PLP.part.hbond>  (226) 
-3.0000

>  <Gold.PLP.part.metal>  (226) 
0.0000

>  <Gold.PLP.part.buried>  (226) 
-2.8457

>  <Gold.PLP.part.nonpolar>  (226) 
-31.2546

>  <Gold.PLP.part.repulsive>  (226) 
0.1509

>  <Gold.PLP.ligand.clash>  (226) 
0.0000

>  <Gold.PLP.ligand.torsion>  (226) 
1.3159

>  <Gold.PLP.Chemscore.Hbond>  (226) 
4.0000

>  <Gold.PLP.Chemscore.CHOScore>  (226) 
0.0000

>  <Gold.PLP.Chemscore.Metal>  (226) 
0.0000

>  <Gold.Chemscore.Hbonds>  (226) 
donor molecule, donor type, donor heavy atom, donor atom, acceptor molecule, acceptor atom, score
      L1  H     3    22       P1  2902  2.00
      L1  H    10    31       P1  2887  1.00
      P1  H  1888  1903       L1    15  1.00

>  <Gold.PLP.Chemscore.Internal.Correction>  (226) 
0.6059

>  <Gold.PLP.Constraint>  (226) 
-0.0000

>  <Gold.Protein.RotatedTorsions>  (226) 
[  681  677  676  673 ] final -178.32 input -179.99 | X-H torsion
[  702  698  697  694 ] final   49.18 input  179.99 | X-H torsion
[ 2577 2569 2568 2566 ] final    4.61 input   -0.13 | X-H torsion
[ 2891 2887 2886 2883 ] final  -97.42 input  179.98 | X-H torsion
[ 3175 3171 3170 3167 ] final -173.68 input -179.99 | X-H torsion
[ 5278 5270 5269 5267 ] final -148.38 input    0.55 | X-H torsion
[  641  637  636  633 ] final -121.56 input  179.99 | X-H torsion
[ 1886 1878 1877 1875 ] final   31.14 input    1.60 | X-H torsion
[  965  957  956  954 ] final  102.55 input    0.45 | X-H torsion

>  <Gold.Protein.ActiveResidues>  (226) 
 LYS47   THR48   LEU49   GLY50   THR51   GLY52   SER53   PHE54   GLY55   ARG56  
 VAL57   MET58   LEU59   TYR69   ALA70   MET71   LYS72   ILE73   LEU74   GLU91  
 LEU95   VAL104  LYS105  MET118  VAL119  MET120  GLU121  TYR122  VAL123  PRO124 
 GLY125  GLY126  GLU127  MET128  PHE129  TYR164  ASP166  LEU167  LYS168  PRO169 
 GLU170  ASN171  LEU172  LEU173  ILE174  GLN181  VAL182  THR183  ASP184  PHE185 
 GLY186  PHE187  GLY200  THR201  ASN326  PHE327  TYR330  ARG18   ARG19   ASN20  
 ALA21   ILE22   HIS23  

>  <Gold.Protein.RotatedAtoms>  (226) 
   11.0544   19.0141    7.4769 H   0  0  0  0  0  0  0  0  0  0  0  0  # atno 641  bound_to 637 
   16.9773   13.9181    7.0390 H   0  0  0  0  0  0  0  0  0  0  0  0  # atno 681  bound_to 677 
   19.3838   11.8593   -1.3768 H   0  0  0  0  0  0  0  0  0  0  0  0  # atno 702  bound_to 698 
   -7.1763   16.2351    0.0209 H   0  0  0  0  0  0  0  0  0  0  0  0  # atno 965  bound_to 957 
    2.2038   11.7856   10.4088 H   0  0  0  0  0  0  0  0  0  0  0  0  # atno 1886 bound_to 1878
    9.6982    3.2394   -3.3540 H   0  0  0  0  0  0  0  0  0  0  0  0  # atno 2577 bound_to 2569
    7.2175    5.5309    1.3844 H   0  0  0  0  0  0  0  0  0  0  0  0  # atno 2891 bound_to 2887
   18.2174    2.2669    0.2411 H   0  0  0  0  0  0  0  0  0  0  0  0  # atno 3175 bound_to 3171
   14.3881    9.9721    9.8672 H   0  0  0  0  0  0  0  0  0  0  0  0  # atno 5278 bound_to 5270
   16.7111   12.7119    6.0338 LP  0  0  0  0  0  0  0  0  0  0  0  0  # atno 5914 bound_to 677 
   15.5940   13.1364    7.1466 LP  0  0  0  0  0  0  0  0  0  0  0  0  # atno 5915 bound_to 677 
   20.4568   11.6300   -0.2221 LP  0  0  0  0  0  0  0  0  0  0  0  0  # atno 5920 bound_to 698 
   20.8959   11.5825   -1.7942 LP  0  0  0  0  0  0  0  0  0  0  0  0  # atno 5921 bound_to 698 
   11.1172    2.7104   -2.8624 LP  0  0  0  0  0  0  0  0  0  0  0  0  # atno 5950 bound_to 2569
    9.7420    1.9431   -2.4304 LP  0  0  0  0  0  0  0  0  0  0  0  0  # atno 5951 bound_to 2569
    7.7944    6.9859    1.0902 LP  0  0  0  0  0  0  0  0  0  0  0  0  # atno 5982 bound_to 2887
    8.2845    5.6981    0.2139 LP  0  0  0  0  0  0  0  0  0  0  0  0  # atno 5983 bound_to 2887
   18.3271    2.1623   -1.3440 LP  0  0  0  0  0  0  0  0  0  0  0  0  # atno 6000 bound_to 3171
   19.3890    3.0608   -0.4887 LP  0  0  0  0  0  0  0  0  0  0  0  0  # atno 6001 bound_to 3171
   13.3145   10.2270    8.7186 LP  0  0  0  0  0  0  0  0  0  0  0  0  # atno 6004 bound_to 5270
   12.8436    9.8479   10.2356 LP  0  0  0  0  0  0  0  0  0  0  0  0  # atno 6005 bound_to 5270
   10.7773   19.7540    8.8592 LP  0  0  0  0  0  0  0  0  0  0  0  0  # atno 6055 bound_to 637 
    9.5449   19.3222    7.8787 LP  0  0  0  0  0  0  0  0  0  0  0  0  # atno 6056 bound_to 637 
    1.2888   10.4984   10.6116 LP  0  0  0  0  0  0  0  0  0  0  0  0  # atno 6063 bound_to 1878
    0.7765   11.9736   11.0891 LP  0  0  0  0  0  0  0  0  0  0  0  0  # atno 6064 bound_to 1878
   -6.6187   15.4707   -1.2596 LP  0  0  0  0  0  0  0  0  0  0  0  0  # atno 6067 bound_to 957 
   -6.6313   17.1025   -1.1980 LP  0  0  0  0  0  0  0  0  0  0  0  0  # atno 6068 bound_to 957 

>  <STRIFE_LigEff_Score>  (226) 
2.734594117647059

$$$$
unknown|pharmsElabsTestMulti|sdf|227|dock8
     RDKit          3D

 20 21  0  0  0  0  0  0  0  0999 V2000
   15.6124    6.4937    4.5176 C   0  0  0  0  0  0  0  0  0  0  0  0
   15.0256    7.9044    4.3404 C   0  0  0  0  0  0  0  0  0  0  0  0
   15.6885    8.5894    3.2266 N   0  0  0  0  0  0  0  0  0  0  0  0
   13.4597    8.0032    4.2620 C   0  0  0  0  0  0  0  0  0  0  0  0
   12.8512    7.2914    3.0547 C   0  0  0  0  0  0  0  0  0  0  0  0
   11.3328    7.3317    2.9781 C   0  0  0  0  0  0  0  0  0  0  0  0
   10.7570    8.6758    3.3535 C   0  0  0  0  0  0  0  0  0  0  0  0
    9.3028    8.8283    3.0155 C   0  0  0  0  0  0  0  0  0  0  0  0
    8.5420    8.0080    3.5826 O   0  0  0  0  0  0  0  0  0  0  0  0
    8.7364    9.8034    2.1242 N   0  0  0  0  0  0  0  0  0  0  0  0
    7.3124    9.7344    1.7624 C   0  0  0  0  0  0  0  0  0  0  0  0
    6.4527    9.8086    2.9998 C   0  0  0  0  0  0  0  0  0  0  0  0
    6.9683   10.2750    4.2231 C   0  0  0  0  0  0  0  0  0  0  0  0
    6.1647   10.2827    5.3690 C   0  0  0  0  0  0  0  0  0  0  0  0
    4.8441    9.8295    5.3015 C   0  0  0  0  0  0  0  0  0  0  0  0
    4.3234    9.3654    4.0888 C   0  0  0  0  0  0  0  0  0  0  0  0
    3.0068    8.9166    4.0291 O   0  0  0  0  0  0  0  0  0  0  0  0
    5.1287    9.3517    2.9435 C   0  0  0  0  0  0  0  0  0  0  0  0
   11.2577    9.3131    4.6301 C   0  0  0  0  0  0  0  0  0  0  0  0
   12.7934    9.3240    4.6952 C   0  0  0  0  0  0  0  0  0  0  0  0
  1  2  1  0
  2  3  1  0
  2  4  1  0
  4  5  1  0
  5  6  1  0
  6  7  1  0
  7  8  1  0
  8  9  2  0
  8 10  1  0
 10 11  1  0
 11 12  1  0
 12 13  2  0
 13 14  1  0
 14 15  2  0
 15 16  1  0
 16 17  1  0
 16 18  2  0
  7 19  1  0
 19 20  1  0
 20  4  1  0
 18 12  1  0
M  CHG  1   3   1
M  END
>  <EmbedRMS>  (227) 
0.24874902131530774

>  <Gold.Version>  (227) 
2020.3.0

>  <Gold.Id.Protein>  (227) 
unknown|1q8t_protein|pdb

>  <Gold.PLP.Fitness>  (227) 
51.4883

>  <Gold.PLP.PLP>  (227) 
-49.3108

>  <Gold.PLP.part.hbond>  (227) 
-2.0000

>  <Gold.PLP.part.metal>  (227) 
0.0000

>  <Gold.PLP.part.buried>  (227) 
-2.5714

>  <Gold.PLP.part.nonpolar>  (227) 
-45.3376

>  <Gold.PLP.part.repulsive>  (227) 
0.0880

>  <Gold.PLP.ligand.clash>  (227) 
0.0000

>  <Gold.PLP.ligand.torsion>  (227) 
0.8106

>  <Gold.PLP.Chemscore.Hbond>  (227) 
1.0000

>  <Gold.PLP.Chemscore.CHOScore>  (227) 
0.0000

>  <Gold.PLP.Chemscore.Metal>  (227) 
0.0000

>  <Gold.Chemscore.Hbonds>  (227) 
donor molecule, donor type, donor heavy atom, donor atom, acceptor molecule, acceptor atom, score
      L1  H     3    25       P1   675  1.00

>  <Gold.PLP.Chemscore.Internal.Correction>  (227) 
0.7987

>  <Gold.PLP.Constraint>  (227) 
-0.0000

>  <Gold.Protein.RotatedTorsions>  (227) 
[  681  677  676  673 ] final  -95.20 input -179.99 | X-H torsion
[  702  698  697  694 ] final  115.41 input  179.99 | X-H torsion
[ 2577 2569 2568 2566 ] final -132.78 input   -0.13 | X-H torsion
[ 2891 2887 2886 2883 ] final -176.24 input  179.98 | X-H torsion
[ 3175 3171 3170 3167 ] final -172.83 input -179.99 | X-H torsion
[ 5278 5270 5269 5267 ] final   12.66 input    0.55 | X-H torsion
[  641  637  636  633 ] final -159.61 input  179.99 | X-H torsion
[ 1886 1878 1877 1875 ] final  118.45 input    1.60 | X-H torsion
[  965  957  956  954 ] final -125.02 input    0.45 | X-H torsion

>  <Gold.Protein.ActiveResidues>  (227) 
 LYS47   THR48   LEU49   GLY50   THR51   GLY52   SER53   PHE54   GLY55   ARG56  
 VAL57   MET58   LEU59   TYR69   ALA70   MET71   LYS72   ILE73   LEU74   GLU91  
 LEU95   VAL104  LYS105  MET118  VAL119  MET120  GLU121  TYR122  VAL123  PRO124 
 GLY125  GLY126  GLU127  MET128  PHE129  TYR164  ASP166  LEU167  LYS168  PRO169 
 GLU170  ASN171  LEU172  LEU173  ILE174  GLN181  VAL182  THR183  ASP184  PHE185 
 GLY186  PHE187  GLY200  THR201  ASN326  PHE327  TYR330  ARG18   ARG19   ASN20  
 ALA21   ILE22   HIS23  

>  <Gold.Protein.RotatedAtoms>  (227) 
   11.3464   19.2310    7.9335 H   0  0  0  0  0  0  0  0  0  0  0  0  # atno 641  bound_to 637 
   15.8894   13.5823    7.3800 H   0  0  0  0  0  0  0  0  0  0  0  0  # atno 681  bound_to 677 
   20.1112   11.7428   -2.0221 H   0  0  0  0  0  0  0  0  0  0  0  0  # atno 702  bound_to 698 
   -6.5603   16.9518   -1.3176 H   0  0  0  0  0  0  0  0  0  0  0  0  # atno 965  bound_to 957 
    1.1877   12.2522   10.9364 H   0  0  0  0  0  0  0  0  0  0  0  0  # atno 1886 bound_to 1878
   11.0417    2.4755   -2.7252 H   0  0  0  0  0  0  0  0  0  0  0  0  # atno 2577 bound_to 2569
    7.3813    6.6537    1.4636 H   0  0  0  0  0  0  0  0  0  0  0  0  # atno 2891 bound_to 2887
   18.2261    2.2742    0.2480 H   0  0  0  0  0  0  0  0  0  0  0  0  # atno 3175 bound_to 3171
   12.6349   10.0085    9.6452 H   0  0  0  0  0  0  0  0  0  0  0  0  # atno 5278 bound_to 5270
   17.2849   13.6584    6.6166 LP  0  0  0  0  0  0  0  0  0  0  0  0  # atno 5914 bound_to 677 
   16.1652   12.5434    6.2049 LP  0  0  0  0  0  0  0  0  0  0  0  0  # atno 5915 bound_to 677 
   19.4975   11.8064   -0.5536 LP  0  0  0  0  0  0  0  0  0  0  0  0  # atno 5920 bound_to 698 
   21.0901   11.5285   -0.7839 LP  0  0  0  0  0  0  0  0  0  0  0  0  # atno 5921 bound_to 698 
    9.5124    2.0736   -2.5378 LP  0  0  0  0  0  0  0  0  0  0  0  0  # atno 5950 bound_to 2569
    9.9321    3.3841   -3.4170 LP  0  0  0  0  0  0  0  0  0  0  0  0  # atno 5951 bound_to 2569
    8.3800    6.3526    0.2601 LP  0  0  0  0  0  0  0  0  0  0  0  0  # atno 5982 bound_to 2887
    7.5264    5.1496    0.9606 LP  0  0  0  0  0  0  0  0  0  0  0  0  # atno 5983 bound_to 2887
   18.3168    2.1555   -1.3373 LP  0  0  0  0  0  0  0  0  0  0  0  0  # atno 6000 bound_to 3171
   19.3901    3.0599   -0.5026 LP  0  0  0  0  0  0  0  0  0  0  0  0  # atno 6001 bound_to 3171
   14.0326    9.8232   10.3861 LP  0  0  0  0  0  0  0  0  0  0  0  0  # atno 6004 bound_to 5270
   13.9702   10.2134    8.8016 LP  0  0  0  0  0  0  0  0  0  0  0  0  # atno 6005 bound_to 5270
   10.1633   19.7815    8.8457 LP  0  0  0  0  0  0  0  0  0  0  0  0  # atno 6055 bound_to 637 
    9.8515   19.0664    7.4112 LP  0  0  0  0  0  0  0  0  0  0  0  0  # atno 6056 bound_to 637 
    2.2824   11.2821   10.3072 LP  0  0  0  0  0  0  0  0  0  0  0  0  # atno 6063 bound_to 1878
    0.8526   10.6987   10.8381 LP  0  0  0  0  0  0  0  0  0  0  0  0  # atno 6064 bound_to 1878
   -7.2033   16.4370    0.0450 LP  0  0  0  0  0  0  0  0  0  0  0  0  # atno 6067 bound_to 957 
   -6.6955   15.3814   -1.0928 LP  0  0  0  0  0  0  0  0  0  0  0  0  # atno 6068 bound_to 957 

>  <STRIFE_LigEff_Score>  (227) 
2.574415

$$$$
unknown|pharmsElabsTestMulti|sdf|228|dock9
     RDKit          3D

 17 17  0  0  0  0  0  0  0  0999 V2000
    3.9454    9.6548    2.0730 C   0  0  0  0  0  0  0  0  0  0  0  0
    3.3103    8.8973    3.2371 C   0  0  0  0  0  0  0  0  0  0  0  0
    3.5961    9.5681    4.5823 C   0  0  0  0  0  0  0  0  0  0  0  0
    5.0574    9.3995    5.0013 C   0  0  0  0  0  0  0  0  0  0  0  0
    5.9382   10.4042    4.2648 C   0  0  0  0  0  0  0  0  0  0  0  0
    7.2925    9.8828    4.1382 N   0  0  0  0  0  0  0  0  0  0  0  0
    7.6397    8.8985    3.1600 C   0  0  0  0  0  0  0  0  0  0  0  0
    6.7781    8.5029    2.3233 O   0  0  0  0  0  0  0  0  0  0  0  0
    9.0472    8.3625    3.1098 C   0  0  0  0  0  0  0  0  0  0  0  0
    9.5174    8.3120    1.6607 C   0  0  0  0  0  0  0  0  0  0  0  0
   10.8873    7.6760    1.5150 C   0  0  0  0  0  0  0  0  0  0  0  0
   11.8989    8.0512    2.6144 C   0  0  0  0  0  0  0  0  0  0  0  0
   13.4109    8.0051    2.1963 C   0  0  0  0  0  0  0  0  0  0  0  0
   14.4079    7.6106    3.2962 C   0  0  0  0  0  0  0  0  0  0  0  0
   13.6326    7.1875    0.9981 N   0  0  0  0  0  0  0  0  0  0  0  0
   11.4776    9.0027    3.7537 C   0  0  0  0  0  0  0  0  0  0  0  0
    9.9700    9.2508    3.9511 C   0  0  0  0  0  0  0  0  0  0  0  0
  1  2  1  0
  2  3  1  0
  3  4  1  0
  4  5  1  0
  5  6  1  0
  6  7  1  0
  7  8  2  0
  7  9  1  0
  9 10  1  0
 10 11  1  0
 11 12  1  0
 12 13  1  0
 13 14  1  0
 13 15  1  0
 12 16  1  0
 16 17  1  0
 17  9  1  0
M  CHG  1  15   1
M  END
>  <EmbedRMS>  (228) 
0.16933320433084326

>  <Gold.Version>  (228) 
2020.3.0

>  <Gold.Id.Protein>  (228) 
unknown|1q8t_protein|pdb

>  <Gold.PLP.Fitness>  (228) 
55.4329

>  <Gold.PLP.PLP>  (228) 
-45.4343

>  <Gold.PLP.part.hbond>  (228) 
-3.0000

>  <Gold.PLP.part.metal>  (228) 
0.0000

>  <Gold.PLP.part.buried>  (228) 
-3.4814

>  <Gold.PLP.part.nonpolar>  (228) 
-39.5027

>  <Gold.PLP.part.repulsive>  (228) 
0.0459

>  <Gold.PLP.ligand.clash>  (228) 
0.0000

>  <Gold.PLP.ligand.torsion>  (228) 
1.3003

>  <Gold.PLP.Chemscore.Hbond>  (228) 
4.0000

>  <Gold.PLP.Chemscore.CHOScore>  (228) 
0.0000

>  <Gold.PLP.Chemscore.Metal>  (228) 
0.0000

>  <Gold.Chemscore.Hbonds>  (228) 
donor molecule, donor type, donor heavy atom, donor atom, acceptor molecule, acceptor atom, score
      L1  H    15    41       P1  2902  2.00
      L1  H    15    42       P1  2691  1.00
      P1  H  2887  2891       L1     8  1.00

>  <Gold.PLP.Chemscore.Internal.Correction>  (228) 
0.5992

>  <Gold.PLP.Constraint>  (228) 
-0.0000

>  <Gold.Protein.RotatedTorsions>  (228) 
[  681  677  676  673 ] final -159.96 input -179.99 | X-H torsion
[  702  698  697  694 ] final  -12.28 input  179.99 | X-H torsion
[ 2577 2569 2568 2566 ] final -106.90 input   -0.13 | X-H torsion
[ 2891 2887 2886 2883 ] final  170.91 input  179.98 | X-H torsion
[ 3175 3171 3170 3167 ] final    5.96 input -179.99 | X-H torsion
[ 5278 5270 5269 5267 ] final   85.42 input    0.55 | X-H torsion
[  641  637  636  633 ] final  -69.74 input  179.99 | X-H torsion
[ 1886 1878 1877 1875 ] final  123.54 input    1.60 | X-H torsion
[  965  957  956  954 ] final   19.35 input    0.45 | X-H torsion

>  <Gold.Protein.ActiveResidues>  (228) 
 LYS47   THR48   LEU49   GLY50   THR51   GLY52   SER53   PHE54   GLY55   ARG56  
 VAL57   MET58   LEU59   TYR69   ALA70   MET71   LYS72   ILE73   LEU74   GLU91  
 LEU95   VAL104  LYS105  MET118  VAL119  MET120  GLU121  TYR122  VAL123  PRO124 
 GLY125  GLY126  GLU127  MET128  PHE129  TYR164  ASP166  LEU167  LYS168  PRO169 
 GLU170  ASN171  LEU172  LEU173  ILE174  GLN181  VAL182  THR183  ASP184  PHE185 
 GLY186  PHE187  GLY200  THR201  ASN326  PHE327  TYR330  ARG18   ARG19   ASN20  
 ALA21   ILE22   HIS23  

>  <Gold.Protein.RotatedAtoms>  (228) 
   10.2997   18.9554    7.2793 H   0  0  0  0  0  0  0  0  0  0  0  0  # atno 641  bound_to 637 
   16.7565   13.9586    7.2160 H   0  0  0  0  0  0  0  0  0  0  0  0  # atno 681  bound_to 677 
   19.6154   11.8012   -0.4925 H   0  0  0  0  0  0  0  0  0  0  0  0  # atno 702  bound_to 698 
   -6.8425   15.3764   -0.7305 H   0  0  0  0  0  0  0  0  0  0  0  0  # atno 965  bound_to 957 
    1.1191   12.2205   10.9612 H   0  0  0  0  0  0  0  0  0  0  0  0  # atno 1886 bound_to 1878
   11.0555    2.8052   -2.9531 H   0  0  0  0  0  0  0  0  0  0  0  0  # atno 2577 bound_to 2569
    7.4947    6.7858    1.3639 H   0  0  0  0  0  0  0  0  0  0  0  0  # atno 2891 bound_to 2887
   19.0741    2.7034   -1.2703 H   0  0  0  0  0  0  0  0  0  0  0  0  # atno 3175 bound_to 3171
   13.2320   10.2250    8.7931 H   0  0  0  0  0  0  0  0  0  0  0  0  # atno 5278 bound_to 5270
   16.9553   12.8864    6.0554 LP  0  0  0  0  0  0  0  0  0  0  0  0  # atno 5914 bound_to 677 
   15.5822   12.9193    6.9387 LP  0  0  0  0  0  0  0  0  0  0  0  0  # atno 5915 bound_to 677 
   21.1290   11.5240   -0.9042 LP  0  0  0  0  0  0  0  0  0  0  0  0  # atno 5920 bound_to 698 
   19.9799   11.7496   -2.0423 LP  0  0  0  0  0  0  0  0  0  0  0  0  # atno 5921 bound_to 698 
    9.8699    1.9022   -2.3926 LP  0  0  0  0  0  0  0  0  0  0  0  0  # atno 5950 bound_to 2569
    9.5600    3.2084   -3.3223 LP  0  0  0  0  0  0  0  0  0  0  0  0  # atno 5951 bound_to 2569
    8.3840    6.1484    0.2066 LP  0  0  0  0  0  0  0  0  0  0  0  0  # atno 5982 bound_to 2887
    7.4030    5.2148    1.1191 LP  0  0  0  0  0  0  0  0  0  0  0  0  # atno 5983 bound_to 2887
   18.9357    2.8298    0.3110 LP  0  0  0  0  0  0  0  0  0  0  0  0  # atno 6000 bound_to 3171
   17.8788    1.9338   -0.5530 LP  0  0  0  0  0  0  0  0  0  0  0  0  # atno 6001 bound_to 3171
   12.9173    9.8318   10.3041 LP  0  0  0  0  0  0  0  0  0  0  0  0  # atno 6004 bound_to 5270
   14.4572    9.9771    9.7802 LP  0  0  0  0  0  0  0  0  0  0  0  0  # atno 6005 bound_to 5270
   11.3593   19.4634    8.3536 LP  0  0  0  0  0  0  0  0  0  0  0  0  # atno 6055 bound_to 637 
    9.7578   19.6747    8.5923 LP  0  0  0  0  0  0  0  0  0  0  0  0  # atno 6056 bound_to 637 
    2.2960   11.3644   10.3153 LP  0  0  0  0  0  0  0  0  0  0  0  0  # atno 6063 bound_to 1878
    0.9113   10.6497   10.8039 LP  0  0  0  0  0  0  0  0  0  0  0  0  # atno 6064 bound_to 1878
   -6.4642   16.6727   -1.5740 LP  0  0  0  0  0  0  0  0  0  0  0  0  # atno 6067 bound_to 957 
   -7.1374   16.8049   -0.0922 LP  0  0  0  0  0  0  0  0  0  0  0  0  # atno 6068 bound_to 957 

>  <STRIFE_LigEff_Score>  (228) 
3.2607588235294114

$$$$
unknown|pharmsElabsTestMulti|sdf|229|dock10
     RDKit          3D

 18 18  0  0  0  0  0  0  0  0999 V2000
    4.5795    9.2896    1.8403 C   0  0  0  0  0  0  0  0  0  0  0  0
    5.0565    9.2589    3.2947 C   0  0  0  0  0  0  0  0  0  0  0  0
    5.9613   10.4697    3.6008 C   0  0  0  0  0  0  0  0  0  0  0  0
    7.3731   10.0659    3.6953 N   0  0  0  0  0  0  0  0  0  0  0  0
    8.0020    9.3346    2.6300 C   0  0  0  0  0  0  0  0  0  0  0  0
    7.3004    8.9111    1.6804 O   0  0  0  0  0  0  0  0  0  0  0  0
    9.4664    9.0308    2.5186 C   0  0  0  0  0  0  0  0  0  0  0  0
    9.7801    7.5593    2.4209 C   0  0  0  0  0  0  0  0  0  0  0  0
   11.2125    7.2928    1.9889 C   0  0  0  0  0  0  0  0  0  0  0  0
   12.2917    8.1945    2.6060 C   0  0  0  0  0  0  0  0  0  0  0  0
   13.6186    8.2118    1.8075 C   0  0  0  0  0  0  0  0  0  0  0  0
   14.0445    9.5143    1.1322 C   0  0  0  0  0  0  0  0  0  0  0  0
   13.7514    7.0576    0.9163 N   0  0  0  0  0  0  0  0  0  0  0  0
   11.8647    9.6415    2.9694 C   0  0  0  0  0  0  0  0  0  0  0  0
   10.4029    9.8601    3.3527 C   0  0  0  0  0  0  0  0  0  0  0  0
    3.8692    9.1886    4.2232 C   0  0  0  0  0  0  0  0  0  0  0  0
    4.0584    8.9166    5.6115 N   0  0  0  0  0  0  0  0  0  0  0  0
    2.7017    9.3662    3.7795 O   0  0  0  0  0  0  0  0  0  0  0  0
  1  2  1  0
  2  3  1  0
  3  4  1  0
  4  5  1  0
  5  6  2  0
  5  7  1  0
  7  8  1  0
  8  9  1  0
  9 10  1  0
 10 11  1  0
 11 12  1  0
 11 13  1  0
 10 14  1  0
 14 15  1  0
  2 16  1  0
 16 17  1  0
 16 18  2  0
 15  7  1  0
M  CHG  1  13   1
M  END
>  <EmbedRMS>  (229) 
0.29404078451179205

>  <Gold.Version>  (229) 
2020.3.0

>  <Gold.Id.Protein>  (229) 
unknown|1q8t_protein|pdb

>  <Gold.PLP.Fitness>  (229) 
50.2092

>  <Gold.PLP.PLP>  (229) 
-36.8021

>  <Gold.PLP.part.hbond>  (229) 
-5.0000

>  <Gold.PLP.part.metal>  (229) 
0.0000

>  <Gold.PLP.part.buried>  (229) 
-1.2398

>  <Gold.PLP.part.nonpolar>  (229) 
-30.4356

>  <Gold.PLP.part.repulsive>  (229) 
0.3016

>  <Gold.PLP.ligand.clash>  (229) 
0.0000

>  <Gold.PLP.ligand.torsion>  (229) 
2.2074

>  <Gold.PLP.Chemscore.Hbond>  (229) 
5.7040

>  <Gold.PLP.Chemscore.CHOScore>  (229) 
0.0000

>  <Gold.PLP.Chemscore.Metal>  (229) 
0.0000

>  <Gold.Chemscore.Hbonds>  (229) 
donor molecule, donor type, donor heavy atom, donor atom, acceptor molecule, acceptor atom, score
      L1  H    13    37       P1  2902  2.00
      L1  H    13    38       P1  2691  0.90
      L1  H    17    43       P1  1891  0.96
      P1  H  2887  2891       L1     6  1.00
      P1  H  1888  1903       L1    18  0.85

>  <Gold.PLP.Chemscore.Internal.Correction>  (229) 
0.7099

>  <Gold.PLP.Constraint>  (229) 
-0.0000

>  <Gold.Protein.RotatedTorsions>  (229) 
[  681  677  676  673 ] final  158.88 input -179.99 | X-H torsion
[  702  698  697  694 ] final   51.24 input  179.99 | X-H torsion
[ 2577 2569 2568 2566 ] final -144.35 input   -0.13 | X-H torsion
[ 2891 2887 2886 2883 ] final  154.47 input  179.98 | X-H torsion
[ 3175 3171 3170 3167 ] final  142.00 input -179.99 | X-H torsion
[ 5278 5270 5269 5267 ] final  -96.91 input    0.55 | X-H torsion
[  641  637  636  633 ] final  -26.59 input  179.99 | X-H torsion
[ 1886 1878 1877 1875 ] final   98.82 input    1.60 | X-H torsion
[  965  957  956  954 ] final   15.62 input    0.45 | X-H torsion

>  <Gold.Protein.ActiveResidues>  (229) 
 LYS47   THR48   LEU49   GLY50   THR51   GLY52   SER53   PHE54   GLY55   ARG56  
 VAL57   MET58   LEU59   TYR69   ALA70   MET71   LYS72   ILE73   LEU74   GLU91  
 LEU95   VAL104  LYS105  MET118  VAL119  MET120  GLU121  TYR122  VAL123  PRO124 
 GLY125  GLY126  GLU127  MET128  PHE129  TYR164  ASP166  LEU167  LYS168  PRO169 
 GLU170  ASN171  LEU172  LEU173  ILE174  GLN181  VAL182  THR183  ASP184  PHE185 
 GLY186  PHE187  GLY200  THR201  ASN326  PHE327  TYR330  ARG18   ARG19   ASN20  
 ALA21   ILE22   HIS23  

>  <Gold.Protein.RotatedAtoms>  (229) 
    9.7449   19.1408    7.5816 H   0  0  0  0  0  0  0  0  0  0  0  0  # atno 641  bound_to 637 
   17.1722   13.7775    6.7789 H   0  0  0  0  0  0  0  0  0  0  0  0  # atno 681  bound_to 677 
   19.3930   11.8583   -1.4076 H   0  0  0  0  0  0  0  0  0  0  0  0  # atno 702  bound_to 698 
   -6.8184   15.3736   -0.7835 H   0  0  0  0  0  0  0  0  0  0  0  0  # atno 965  bound_to 957 
    1.4654   12.3117   10.8241 H   0  0  0  0  0  0  0  0  0  0  0  0  # atno 1886 bound_to 1878
   10.9780    2.3347   -2.6320 H   0  0  0  0  0  0  0  0  0  0  0  0  # atno 2577 bound_to 2569
    7.6573    6.9012    1.2032 H   0  0  0  0  0  0  0  0  0  0  0  0  # atno 2891 bound_to 2887
   17.9318    1.9842   -0.3021 H   0  0  0  0  0  0  0  0  0  0  0  0  # atno 3175 bound_to 3171
   13.8624    9.8295   10.4229 H   0  0  0  0  0  0  0  0  0  0  0  0  # atno 5278 bound_to 5270
   16.3724   12.5750    6.1078 LP  0  0  0  0  0  0  0  0  0  0  0  0  # atno 5914 bound_to 677 
   15.7275   13.4214    7.3464 LP  0  0  0  0  0  0  0  0  0  0  0  0  # atno 5915 bound_to 677 
   20.4244   11.6356   -0.2143 LP  0  0  0  0  0  0  0  0  0  0  0  0  # atno 5920 bound_to 698 
   20.9187   11.5779   -1.7696 LP  0  0  0  0  0  0  0  0  0  0  0  0  # atno 5921 bound_to 698 
    9.3923    2.1903   -2.6276 LP  0  0  0  0  0  0  0  0  0  0  0  0  # atno 5950 bound_to 2569
   10.1193    3.4158   -3.4253 LP  0  0  0  0  0  0  0  0  0  0  0  0  # atno 5951 bound_to 2569
    8.3437    5.8825    0.1895 LP  0  0  0  0  0  0  0  0  0  0  0  0  # atno 5982 bound_to 2887
    7.2722    5.3592    1.3052 LP  0  0  0  0  0  0  0  0  0  0  0  0  # atno 5983 bound_to 2887
   18.9001    2.5769   -1.4187 LP  0  0  0  0  0  0  0  0  0  0  0  0  # atno 6000 bound_to 3171
   19.1165    2.9437    0.1578 LP  0  0  0  0  0  0  0  0  0  0  0  0  # atno 6001 bound_to 3171
   14.1139   10.1924    8.8926 LP  0  0  0  0  0  0  0  0  0  0  0  0  # atno 6004 bound_to 5270
   12.5974   10.0325    9.4767 LP  0  0  0  0  0  0  0  0  0  0  0  0  # atno 6005 bound_to 5270
   11.3295   19.1497    7.7359 LP  0  0  0  0  0  0  0  0  0  0  0  0  # atno 6055 bound_to 637 
   10.3719   19.7932    8.8916 LP  0  0  0  0  0  0  0  0  0  0  0  0  # atno 6056 bound_to 637 
    2.1696   10.9810   10.3057 LP  0  0  0  0  0  0  0  0  0  0  0  0  # atno 6063 bound_to 1878
    0.6731   10.9370   10.9579 LP  0  0  0  0  0  0  0  0  0  0  0  0  # atno 6064 bound_to 1878
   -6.4754   16.7272   -1.5483 LP  0  0  0  0  0  0  0  0  0  0  0  0  # atno 6067 bound_to 957 
   -7.1515   16.7533   -0.0621 LP  0  0  0  0  0  0  0  0  0  0  0  0  # atno 6068 bound_to 957 

>  <STRIFE_LigEff_Score>  (229) 
2.7894

$$$$
unknown|pharmsElabsTestMulti|sdf|230|dock2
     RDKit          3D

 17 17  0  0  0  0  0  0  0  0999 V2000
    3.8983    9.5063    2.5003 C   0  0  0  0  0  0  0  0  0  0  0  0
    3.5662    8.7113    3.7525 C   0  0  0  0  0  0  0  0  0  0  0  0
    3.7874    9.5302    4.9495 N   0  0  0  0  0  0  0  0  0  0  0  0
    5.2090    9.4802    5.3023 C   0  0  0  0  0  0  0  0  0  0  0  0
    6.0201   10.4593    4.4471 C   0  0  0  0  0  0  0  0  0  0  0  0
    7.4237   10.0286    4.3702 N   0  0  0  0  0  0  0  0  0  0  0  0
    7.9789    9.5901    3.1184 C   0  0  0  0  0  0  0  0  0  0  0  0
    7.2367    9.5313    2.1068 O   0  0  0  0  0  0  0  0  0  0  0  0
    9.4092    9.2082    2.8828 C   0  0  0  0  0  0  0  0  0  0  0  0
    9.6792    7.7018    2.8577 C   0  0  0  0  0  0  0  0  0  0  0  0
   11.1740    7.3249    2.7959 C   0  0  0  0  0  0  0  0  0  0  0  0
   12.0061    8.4540    2.1669 C   0  0  0  0  0  0  0  0  0  0  0  0
   13.4522    8.1148    1.6908 C   0  0  0  0  0  0  0  0  0  0  0  0
   14.3722    9.2870    1.3948 C   0  0  0  0  0  0  0  0  0  0  0  0
   13.6142    6.9695    0.8015 N   0  0  0  0  0  0  0  0  0  0  0  0
   11.9240    9.7135    3.0535 C   0  0  0  0  0  0  0  0  0  0  0  0
   10.4825   10.1760    3.3533 C   0  0  0  0  0  0  0  0  0  0  0  0
  1  2  1  0
  2  3  1  0
  3  4  1  0
  4  5  1  0
  5  6  1  0
  6  7  1  0
  7  8  2  0
  7  9  1  0
  9 10  1  0
 10 11  1  0
 11 12  1  0
 12 13  1  0
 13 14  1  0
 13 15  1  0
 12 16  1  0
 16 17  1  0
 17  9  1  0
M  CHG  1  15   1
M  END
>  <EmbedRMS>  (230) 
0.25842907567579826

>  <Gold.Version>  (230) 
2020.3.0

>  <Gold.Id.Protein>  (230) 
unknown|1q8t_protein|pdb

>  <Gold.PLP.Fitness>  (230) 
47.6093

>  <Gold.PLP.PLP>  (230) 
-39.6262

>  <Gold.PLP.part.hbond>  (230) 
-1.7844

>  <Gold.PLP.part.metal>  (230) 
0.0000

>  <Gold.PLP.part.buried>  (230) 
-5.7820

>  <Gold.PLP.part.nonpolar>  (230) 
-32.7505

>  <Gold.PLP.part.repulsive>  (230) 
0.0690

>  <Gold.PLP.ligand.clash>  (230) 
0.0000

>  <Gold.PLP.ligand.torsion>  (230) 
0.9445

>  <Gold.PLP.Chemscore.Hbond>  (230) 
2.9120

>  <Gold.PLP.Chemscore.CHOScore>  (230) 
0.0000

>  <Gold.PLP.Chemscore.Metal>  (230) 
0.0000

>  <Gold.Chemscore.Hbonds>  (230) 
donor molecule, donor type, donor heavy atom, donor atom, acceptor molecule, acceptor atom, score
      L1  H    15    39       P1  2691  0.91
      L1  H    15    40       P1  2902  2.00

>  <Gold.PLP.Chemscore.Internal.Correction>  (230) 
1.1362

>  <Gold.PLP.Constraint>  (230) 
-0.0000

>  <Gold.Protein.RotatedTorsions>  (230) 
[  681  677  676  673 ] final  -60.66 input -179.99 | X-H torsion
[  702  698  697  694 ] final    9.09 input  179.99 | X-H torsion
[ 2577 2569 2568 2566 ] final  148.88 input   -0.13 | X-H torsion
[ 2891 2887 2886 2883 ] final -133.20 input  179.98 | X-H torsion
[ 3175 3171 3170 3167 ] final   19.18 input -179.99 | X-H torsion
[ 5278 5270 5269 5267 ] final  -42.67 input    0.55 | X-H torsion
[  641  637  636  633 ] final -159.98 input  179.99 | X-H torsion
[ 1886 1878 1877 1875 ] final   33.44 input    1.60 | X-H torsion
[  965  957  956  954 ] final  173.95 input    0.45 | X-H torsion

>  <Gold.Protein.ActiveResidues>  (230) 
 LYS47   THR48   LEU49   GLY50   THR51   GLY52   SER53   PHE54   GLY55   ARG56  
 VAL57   MET58   LEU59   TYR69   ALA70   MET71   LYS72   ILE73   LEU74   GLU91  
 LEU95   VAL104  LYS105  MET118  VAL119  MET120  GLU121  TYR122  VAL123  PRO124 
 GLY125  GLY126  GLU127  MET128  PHE129  TYR164  ASP166  LEU167  LYS168  PRO169 
 GLU170  ASN171  LEU172  LEU173  ILE174  GLN181  VAL182  THR183  ASP184  PHE185 
 GLY186  PHE187  GLY200  THR201  ASN326  PHE327  TYR330  ARG18   ARG19   ASN20  
 ALA21   ILE22   HIS23  

>  <Gold.Protein.RotatedAtoms>  (230) 
   11.3475   19.2336    7.9386 H   0  0  0  0  0  0  0  0  0  0  0  0  # atno 641  bound_to 637 
   15.6369   13.1812    7.1388 H   0  0  0  0  0  0  0  0  0  0  0  0  # atno 681  bound_to 677 
   19.4280   11.8396   -0.7643 H   0  0  0  0  0  0  0  0  0  0  0  0  # atno 702  bound_to 698 
   -6.9303   17.1059   -0.5015 H   0  0  0  0  0  0  0  0  0  0  0  0  # atno 965  bound_to 957 
    2.1920   11.8176   10.4195 H   0  0  0  0  0  0  0  0  0  0  0  0  # atno 1886 bound_to 1878
   10.1272    1.8992   -2.3920 H   0  0  0  0  0  0  0  0  0  0  0  0  # atno 2577 bound_to 2569
    7.1604    6.0447    1.5736 H   0  0  0  0  0  0  0  0  0  0  0  0  # atno 2891 bound_to 2887
   18.9300    2.5851   -1.3587 H   0  0  0  0  0  0  0  0  0  0  0  0  # atno 3175 bound_to 3171
   13.0491    9.8398   10.3469 H   0  0  0  0  0  0  0  0  0  0  0  0  # atno 5278 bound_to 5270
   17.0385   13.9306    7.0391 LP  0  0  0  0  0  0  0  0  0  0  0  0  # atno 5914 bound_to 677 
   16.6773   12.6934    6.0363 LP  0  0  0  0  0  0  0  0  0  0  0  0  # atno 5915 bound_to 677 
   20.9832   11.5437   -0.5871 LP  0  0  0  0  0  0  0  0  0  0  0  0  # atno 5920 bound_to 698 
   20.3229   11.6894   -2.0735 LP  0  0  0  0  0  0  0  0  0  0  0  0  # atno 5921 bound_to 698 
    9.3900    3.0424   -3.2195 LP  0  0  0  0  0  0  0  0  0  0  0  0  # atno 5950 bound_to 2569
   11.0174    3.0221   -3.0861 LP  0  0  0  0  0  0  0  0  0  0  0  0  # atno 5951 bound_to 2569
    8.1534    6.8781    0.6485 LP  0  0  0  0  0  0  0  0  0  0  0  0  # atno 5982 bound_to 2887
    7.9855    5.2651    0.4565 LP  0  0  0  0  0  0  0  0  0  0  0  0  # atno 5983 bound_to 2887
   19.0872    2.9261    0.1887 LP  0  0  0  0  0  0  0  0  0  0  0  0  # atno 6000 bound_to 3171
   17.8789    1.9621   -0.3377 LP  0  0  0  0  0  0  0  0  0  0  0  0  # atno 6001 bound_to 3171
   14.4722   10.0089    9.6520 LP  0  0  0  0  0  0  0  0  0  0  0  0  # atno 6004 bound_to 5270
   13.0947   10.2053    8.7974 LP  0  0  0  0  0  0  0  0  0  0  0  0  # atno 6005 bound_to 5270
   10.1575   19.7808    8.8438 LP  0  0  0  0  0  0  0  0  0  0  0  0  # atno 6055 bound_to 637 
    9.8561   19.0644    7.4077 LP  0  0  0  0  0  0  0  0  0  0  0  0  # atno 6056 bound_to 637 
    1.3230   10.4951   10.5960 LP  0  0  0  0  0  0  0  0  0  0  0  0  # atno 6063 bound_to 1878
    0.7548   11.9431   11.0934 LP  0  0  0  0  0  0  0  0  0  0  0  0  # atno 6064 bound_to 1878
   -7.0731   15.5387   -0.2598 LP  0  0  0  0  0  0  0  0  0  0  0  0  # atno 6067 bound_to 957 
   -6.4360   16.1174   -1.6476 LP  0  0  0  0  0  0  0  0  0  0  0  0  # atno 6068 bound_to 957 

>  <STRIFE_LigEff_Score>  (230) 
2.800547058823529

$$$$
unknown|pharmsElabsTestMulti|sdf|231|dock1
     RDKit          3D

 18 18  0  0  0  0  0  0  0  0999 V2000
    4.2704    8.9331    2.1806 C   0  0  0  0  0  0  0  0  0  0  0  0
    3.2986    9.4998    3.2082 C   0  0  0  0  0  0  0  0  0  0  0  0
    3.6043    8.9353    4.5894 C   0  0  0  0  0  0  0  0  0  0  0  0
    4.1066    9.9944    5.4684 N   0  0  0  0  0  0  0  0  0  0  0  0
    5.5692    9.9139    5.5653 C   0  0  0  0  0  0  0  0  0  0  0  0
    6.2207   10.2648    4.2285 C   0  0  0  0  0  0  0  0  0  0  0  0
    7.5727    9.7210    4.1714 N   0  0  0  0  0  0  0  0  0  0  0  0
    8.0762    9.0081    3.0379 C   0  0  0  0  0  0  0  0  0  0  0  0
    7.3261    8.7765    2.0468 O   0  0  0  0  0  0  0  0  0  0  0  0
    9.5121    8.5452    3.0279 C   0  0  0  0  0  0  0  0  0  0  0  0
    9.8907    8.1010    1.6199 C   0  0  0  0  0  0  0  0  0  0  0  0
   11.2864    7.5092    1.5512 C   0  0  0  0  0  0  0  0  0  0  0  0
   12.3412    8.2277    2.4136 C   0  0  0  0  0  0  0  0  0  0  0  0
   13.8229    8.1280    1.9052 C   0  0  0  0  0  0  0  0  0  0  0  0
   14.8921    7.8635    2.9760 C   0  0  0  0  0  0  0  0  0  0  0  0
   13.9694    7.1740    0.8001 N   0  0  0  0  0  0  0  0  0  0  0  0
   11.9338    9.4473    3.2672 C   0  0  0  0  0  0  0  0  0  0  0  0
   10.4285    9.6772    3.5058 C   0  0  0  0  0  0  0  0  0  0  0  0
  1  2  1  0
  2  3  1  0
  3  4  1  0
  4  5  1  0
  5  6  1  0
  6  7  1  0
  7  8  1  0
  8  9  2  0
  8 10  1  0
 10 11  1  0
 11 12  1  0
 12 13  1  0
 13 14  1  0
 14 15  1  0
 14 16  1  0
 13 17  1  0
 17 18  1  0
 18 10  1  0
M  CHG  1  16   1
M  END
>  <EmbedRMS>  (231) 
0.16499967102600221

>  <Gold.Version>  (231) 
2020.3.0

>  <Gold.Id.Protein>  (231) 
unknown|1q8t_protein|pdb

>  <Gold.PLP.Fitness>  (231) 
54.1649

>  <Gold.PLP.PLP>  (231) 
-44.9084

>  <Gold.PLP.part.hbond>  (231) 
-3.0000

>  <Gold.PLP.part.metal>  (231) 
0.0000

>  <Gold.PLP.part.buried>  (231) 
-4.1069

>  <Gold.PLP.part.nonpolar>  (231) 
-38.3803

>  <Gold.PLP.part.repulsive>  (231) 
0.0612

>  <Gold.PLP.ligand.clash>  (231) 
0.0000

>  <Gold.PLP.ligand.torsion>  (231) 
1.9029

>  <Gold.PLP.Chemscore.Hbond>  (231) 
3.9920

>  <Gold.PLP.Chemscore.CHOScore>  (231) 
0.0000

>  <Gold.PLP.Chemscore.Metal>  (231) 
0.0000

>  <Gold.Chemscore.Hbonds>  (231) 
donor molecule, donor type, donor heavy atom, donor atom, acceptor molecule, acceptor atom, score
      L1  H    16    42       P1  2902  2.00
      L1  H    16    44       P1  2691  0.99
      P1  H  2887  2891       L1     9  1.00

>  <Gold.PLP.Chemscore.Internal.Correction>  (231) 
1.0864

>  <Gold.PLP.Constraint>  (231) 
-0.0000

>  <Gold.Protein.RotatedTorsions>  (231) 
[  681  677  676  673 ] final   91.17 input -179.99 | X-H torsion
[  702  698  697  694 ] final  106.96 input  179.99 | X-H torsion
[ 2577 2569 2568 2566 ] final  -93.53 input   -0.13 | X-H torsion
[ 2891 2887 2886 2883 ] final  150.68 input  179.98 | X-H torsion
[ 3175 3171 3170 3167 ] final  111.80 input -179.99 | X-H torsion
[ 5278 5270 5269 5267 ] final  142.58 input    0.55 | X-H torsion
[  641  637  636  633 ] final  174.01 input  179.99 | X-H torsion
[ 1886 1878 1877 1875 ] final -150.08 input    1.60 | X-H torsion
[  965  957  956  954 ] final  147.13 input    0.45 | X-H torsion

>  <Gold.Protein.ActiveResidues>  (231) 
 LYS47   THR48   LEU49   GLY50   THR51   GLY52   SER53   PHE54   GLY55   ARG56  
 VAL57   MET58   LEU59   TYR69   ALA70   MET71   LYS72   ILE73   LEU74   GLU91  
 LEU95   VAL104  LYS105  MET118  VAL119  MET120  GLU121  TYR122  VAL123  PRO124 
 GLY125  GLY126  GLU127  MET128  PHE129  TYR164  ASP166  LEU167  LYS168  PRO169 
 GLU170  ASN171  LEU172  LEU173  ILE174  GLN181  VAL182  THR183  ASP184  PHE185 
 GLY186  PHE187  GLY200  THR201  ASN326  PHE327  TYR330  ARG18   ARG19   ASN20  
 ALA21   ILE22   HIS23  

>  <Gold.Protein.RotatedAtoms>  (231) 
   11.3310   19.4173    8.2967 H   0  0  0  0  0  0  0  0  0  0  0  0  # atno 641  bound_to 637 
   17.0405   13.0354    6.1247 H   0  0  0  0  0  0  0  0  0  0  0  0  # atno 681  bound_to 677 
   19.9840   11.7648   -1.9939 H   0  0  0  0  0  0  0  0  0  0  0  0  # atno 702  bound_to 698 
   -7.0744   16.8728   -0.1896 H   0  0  0  0  0  0  0  0  0  0  0  0  # atno 965  bound_to 957 
    0.6545   11.0863   10.9726 H   0  0  0  0  0  0  0  0  0  0  0  0  # atno 1886 bound_to 1878
   10.9924    2.9662   -3.0695 H   0  0  0  0  0  0  0  0  0  0  0  0  # atno 2577 bound_to 2569
    7.6964    6.9184    1.1620 H   0  0  0  0  0  0  0  0  0  0  0  0  # atno 2891 bound_to 2887
   17.9688    1.9508   -0.7661 H   0  0  0  0  0  0  0  0  0  0  0  0  # atno 3175 bound_to 3171
   14.0785   10.2006    8.9275 H   0  0  0  0  0  0  0  0  0  0  0  0  # atno 5278 bound_to 5270
   15.6178   12.8035    6.8018 LP  0  0  0  0  0  0  0  0  0  0  0  0  # atno 5914 bound_to 677 
   16.6208   13.9740    7.3409 LP  0  0  0  0  0  0  0  0  0  0  0  0  # atno 5915 bound_to 677 
   19.5892   11.7882   -0.4509 LP  0  0  0  0  0  0  0  0  0  0  0  0  # atno 5920 bound_to 698 
   21.1320   11.5237   -0.9163 LP  0  0  0  0  0  0  0  0  0  0  0  0  # atno 5921 bound_to 698 
   10.0839    1.8709   -2.3552 LP  0  0  0  0  0  0  0  0  0  0  0  0  # atno 5950 bound_to 2569
    9.4124    3.0701   -3.2371 LP  0  0  0  0  0  0  0  0  0  0  0  0  # atno 5951 bound_to 2569
    8.3274    5.8224    0.1940 LP  0  0  0  0  0  0  0  0  0  0  0  0  # atno 5982 bound_to 2887
    7.2474    5.4012    1.3441 LP  0  0  0  0  0  0  0  0  0  0  0  0  # atno 5983 bound_to 2887
   19.2219    2.8484   -1.1657 LP  0  0  0  0  0  0  0  0  0  0  0  0  # atno 6000 bound_to 3171
   18.7559    2.7074    0.3930 LP  0  0  0  0  0  0  0  0  0  0  0  0  # atno 6001 bound_to 3171
   12.5962   10.0305    9.4848 LP  0  0  0  0  0  0  0  0  0  0  0  0  # atno 6004 bound_to 5270
   13.8876    9.8039   10.4581 LP  0  0  0  0  0  0  0  0  0  0  0  0  # atno 6005 bound_to 5270
    9.7996   19.6934    8.6335 LP  0  0  0  0  0  0  0  0  0  0  0  0  # atno 6055 bound_to 637 
   10.2314   18.9582    7.2408 LP  0  0  0  0  0  0  0  0  0  0  0  0  # atno 6056 bound_to 637 
    1.6071   12.3485   10.7868 LP  0  0  0  0  0  0  0  0  0  0  0  0  # atno 6063 bound_to 1878
    2.0892   10.8596   10.3204 LP  0  0  0  0  0  0  0  0  0  0  0  0  # atno 6064 bound_to 1878
   -6.9116   15.3482   -0.6188 LP  0  0  0  0  0  0  0  0  0  0  0  0  # atno 6067 bound_to 957 
   -6.4457   16.5535   -1.6171 LP  0  0  0  0  0  0  0  0  0  0  0  0  # atno 6068 bound_to 957 

>  <STRIFE_LigEff_Score>  (231) 
3.009161111111111

$$$$
unknown|pharmsElabsTestMulti|sdf|232|dock1
     RDKit          3D

 17 18  0  0  0  0  0  0  0  0999 V2000
   13.6865    6.8004    3.5209 C   0  0  0  0  0  0  0  0  0  0  0  0
   13.4969    7.7331    2.3085 C   0  0  0  0  0  0  0  0  0  0  0  0
   13.8316    7.0003    1.0805 N   0  0  0  0  0  0  0  0  0  0  0  0
   12.0425    8.2899    2.2831 C   0  0  0  0  0  0  0  0  0  0  0  0
   11.0545    7.1656    1.9090 C   0  0  0  0  0  0  0  0  0  0  0  0
    9.6542    7.7347    1.7272 C   0  0  0  0  0  0  0  0  0  0  0  0
    9.1797    8.3955    3.0253 C   0  0  0  0  0  0  0  0  0  0  0  0
    7.7916    8.9398    2.8548 C   0  0  0  0  0  0  0  0  0  0  0  0
    7.2257    8.8993    1.7258 O   0  0  0  0  0  0  0  0  0  0  0  0
    7.1237    9.5085    3.9907 N   0  0  0  0  0  0  0  0  0  0  0  0
    5.7659   10.0523    3.9685 C   0  0  0  0  0  0  0  0  0  0  0  0
    5.1387   10.0962    5.3604 C   0  0  0  0  0  0  0  0  0  0  0  0
    3.6689    9.7999    5.1377 C   0  0  0  0  0  0  0  0  0  0  0  0
    3.6140    8.8916    3.9202 C   0  0  0  0  0  0  0  0  0  0  0  0
    4.8313    9.2353    3.0720 C   0  0  0  0  0  0  0  0  0  0  0  0
   10.1541    9.4920    3.4875 C   0  0  0  0  0  0  0  0  0  0  0  0
   11.5856    8.9430    3.6113 C   0  0  0  0  0  0  0  0  0  0  0  0
  1  2  1  0
  2  3  1  0
  2  4  1  0
  4  5  1  0
  5  6  1  0
  6  7  1  0
  7  8  1  0
  8  9  2  0
  8 10  1  0
 10 11  1  0
 11 12  1  0
 12 13  1  0
 13 14  1  0
 14 15  1  0
  7 16  1  0
 16 17  1  0
 17  4  1  0
 15 11  1  0
M  CHG  1   3   1
M  END
>  <EmbedRMS>  (232) 
0.031527461887508344

>  <Gold.Version>  (232) 
2020.3.0

>  <Gold.Id.Protein>  (232) 
unknown|1q8t_protein|pdb

>  <Gold.PLP.Fitness>  (232) 
57.1964

>  <Gold.PLP.PLP>  (232) 
-46.0657

>  <Gold.PLP.part.hbond>  (232) 
-3.0000

>  <Gold.PLP.part.metal>  (232) 
0.0000

>  <Gold.PLP.part.buried>  (232) 
-0.6122

>  <Gold.PLP.part.nonpolar>  (232) 
-42.0182

>  <Gold.PLP.part.repulsive>  (232) 
0.0649

>  <Gold.PLP.ligand.clash>  (232) 
0.0000

>  <Gold.PLP.ligand.torsion>  (232) 
0.4127

>  <Gold.PLP.Chemscore.Hbond>  (232) 
3.9750

>  <Gold.PLP.Chemscore.CHOScore>  (232) 
0.0000

>  <Gold.PLP.Chemscore.Metal>  (232) 
0.0000

>  <Gold.Chemscore.Hbonds>  (232) 
donor molecule, donor type, donor heavy atom, donor atom, acceptor molecule, acceptor atom, score
      L1  H     3    23       P1  2902  2.00
      L1  H     3    24       P1  2691  1.00
      P1  H  2887  2891       L1     9  0.98

>  <Gold.PLP.Chemscore.Internal.Correction>  (232) 
0.0311

>  <Gold.PLP.Constraint>  (232) 
-0.0000

>  <Gold.Protein.RotatedTorsions>  (232) 
[  681  677  676  673 ] final  137.87 input -179.99 | X-H torsion
[  702  698  697  694 ] final  120.90 input  179.99 | X-H torsion
[ 2577 2569 2568 2566 ] final   36.13 input   -0.13 | X-H torsion
[ 2891 2887 2886 2883 ] final  151.01 input  179.98 | X-H torsion
[ 3175 3171 3170 3167 ] final  119.96 input -179.99 | X-H torsion
[ 5278 5270 5269 5267 ] final  173.60 input    0.55 | X-H torsion
[  641  637  636  633 ] final  -94.96 input  179.99 | X-H torsion
[ 1886 1878 1877 1875 ] final  156.62 input    1.60 | X-H torsion
[  965  957  956  954 ] final   77.31 input    0.45 | X-H torsion

>  <Gold.Protein.ActiveResidues>  (232) 
 LYS47   THR48   LEU49   GLY50   THR51   GLY52   SER53   PHE54   GLY55   ARG56  
 VAL57   MET58   LEU59   TYR69   ALA70   MET71   LYS72   ILE73   LEU74   GLU91  
 LEU95   VAL104  LYS105  MET118  VAL119  MET120  GLU121  TYR122  VAL123  PRO124 
 GLY125  GLY126  GLU127  MET128  PHE129  TYR164  ASP166  LEU167  LYS168  PRO169 
 GLU170  ASN171  LEU172  LEU173  ILE174  GLN181  VAL182  THR183  ASP184  PHE185 
 GLY186  PHE187  GLY200  THR201  ASN326  PHE327  TYR330  ARG18   ARG19   ASN20  
 ALA21   ILE22   HIS23  

>  <Gold.Protein.RotatedAtoms>  (232) 
   10.6900   18.9435    7.2985 H   0  0  0  0  0  0  0  0  0  0  0  0  # atno 641  bound_to 637 
   17.2499   13.5776    6.5325 H   0  0  0  0  0  0  0  0  0  0  0  0  # atno 681  bound_to 677 
   20.1952   11.7281   -2.0302 H   0  0  0  0  0  0  0  0  0  0  0  0  # atno 702  bound_to 698 
   -7.1380   15.8569   -0.0712 H   0  0  0  0  0  0  0  0  0  0  0  0  # atno 965  bound_to 957 
    0.7554   11.8781   11.0632 H   0  0  0  0  0  0  0  0  0  0  0  0  # atno 1886 bound_to 1878
    9.3746    2.9302   -3.1630 H   0  0  0  0  0  0  0  0  0  0  0  0  # atno 2577 bound_to 2569
    7.6930    6.9170    1.1657 H   0  0  0  0  0  0  0  0  0  0  0  0  # atno 2891 bound_to 2887
   17.9393    1.9452   -0.6422 H   0  0  0  0  0  0  0  0  0  0  0  0  # atno 3175 bound_to 3171
   14.3653   10.1115    9.3009 H   0  0  0  0  0  0  0  0  0  0  0  0  # atno 5278 bound_to 5270
   16.0684   12.5438    6.2651 LP  0  0  0  0  0  0  0  0  0  0  0  0  # atno 5914 bound_to 677 
   15.9498   13.6630    7.4483 LP  0  0  0  0  0  0  0  0  0  0  0  0  # atno 5915 bound_to 677 
   19.4463   11.8169   -0.6271 LP  0  0  0  0  0  0  0  0  0  0  0  0  # atno 5920 bound_to 698 
   21.0528   11.5336   -0.7020 LP  0  0  0  0  0  0  0  0  0  0  0  0  # atno 5921 bound_to 698 
   10.9572    3.1045   -3.1478 LP  0  0  0  0  0  0  0  0  0  0  0  0  # atno 5950 bound_to 2569
   10.2426    1.8745   -2.3460 LP  0  0  0  0  0  0  0  0  0  0  0  0  # atno 5951 bound_to 2569
    8.3289    5.8276    0.1935 LP  0  0  0  0  0  0  0  0  0  0  0  0  # atno 5982 bound_to 2887
    7.2495    5.3974    1.3408 LP  0  0  0  0  0  0  0  0  0  0  0  0  # atno 5983 bound_to 2887
   19.1476    2.7817   -1.2554 LP  0  0  0  0  0  0  0  0  0  0  0  0  # atno 6000 bound_to 3171
   18.8611    2.7800    0.3523 LP  0  0  0  0  0  0  0  0  0  0  0  0  # atno 6001 bound_to 3171
   12.7951   10.1434    9.0355 LP  0  0  0  0  0  0  0  0  0  0  0  0  # atno 6004 bound_to 5270
   13.3870    9.7848   10.5145 LP  0  0  0  0  0  0  0  0  0  0  0  0  # atno 6005 bound_to 5270
   11.1432   19.6322    8.6606 LP  0  0  0  0  0  0  0  0  0  0  0  0  # atno 6055 bound_to 637 
    9.5629   19.5185    8.2650 LP  0  0  0  0  0  0  0  0  0  0  0  0  # atno 6056 bound_to 637 
    2.2195   11.8814   10.4372 LP  0  0  0  0  0  0  0  0  0  0  0  0  # atno 6063 bound_to 1878
    1.3707   10.4931   10.5747 LP  0  0  0  0  0  0  0  0  0  0  0  0  # atno 6064 bound_to 1878
   -6.4953   15.7609   -1.5248 LP  0  0  0  0  0  0  0  0  0  0  0  0  # atno 6067 bound_to 957 
   -6.7951   17.2107   -0.8358 LP  0  0  0  0  0  0  0  0  0  0  0  0  # atno 6068 bound_to 957 

>  <STRIFE_LigEff_Score>  (232) 
3.364494117647059

$$$$
unknown|pharmsElabsTestMulti|sdf|233|dock6
     RDKit          3D

 18 18  0  0  0  0  0  0  0  0999 V2000
    3.6000    8.8892    1.7779 C   0  0  0  0  0  0  0  0  0  0  0  0
    4.4853    9.1073    2.9139 N   0  0  0  0  0  0  0  0  0  0  0  0
    3.9927    9.5672    4.1776 C   0  0  0  0  0  0  0  0  0  0  0  0
    2.7635    9.7979    4.3365 O   0  0  0  0  0  0  0  0  0  0  0  0
    4.9397    9.8140    5.3117 C   0  0  0  0  0  0  0  0  0  0  0  0
    6.1507   10.6274    4.8489 C   0  0  0  0  0  0  0  0  0  0  0  0
    7.3321    9.7794    4.7204 N   0  0  0  0  0  0  0  0  0  0  0  0
    7.9261    9.4790    3.4516 C   0  0  0  0  0  0  0  0  0  0  0  0
    7.4256    9.9442    2.3891 O   0  0  0  0  0  0  0  0  0  0  0  0
    9.1623    8.6229    3.3928 C   0  0  0  0  0  0  0  0  0  0  0  0
    9.4282    8.1701    1.9585 C   0  0  0  0  0  0  0  0  0  0  0  0
   10.5858    7.1844    1.8889 C   0  0  0  0  0  0  0  0  0  0  0  0
   11.8400    7.5640    2.7205 C   0  0  0  0  0  0  0  0  0  0  0  0
   13.2069    7.7002    2.0211 C   0  0  0  0  0  0  0  0  0  0  0  0
   14.4685    7.5855    2.8764 C   0  0  0  0  0  0  0  0  0  0  0  0
   13.2694    8.8795    1.1469 N   0  0  0  0  0  0  0  0  0  0  0  0
   11.6432    8.5580    3.9053 C   0  0  0  0  0  0  0  0  0  0  0  0
   10.3706    9.4024    3.9009 C   0  0  0  0  0  0  0  0  0  0  0  0
  1  2  1  0
  2  3  1  0
  3  4  2  0
  3  5  1  0
  5  6  1  0
  6  7  1  0
  7  8  1  0
  8  9  2  0
  8 10  1  0
 10 11  1  0
 11 12  1  0
 12 13  1  0
 13 14  1  0
 14 15  1  0
 14 16  1  0
 13 17  1  0
 17 18  1  0
 18 10  1  0
M  CHG  1  16   1
M  END
>  <EmbedRMS>  (233) 
0.20180190035783102

>  <Gold.Version>  (233) 
2020.3.0

>  <Gold.Id.Protein>  (233) 
unknown|1q8t_protein|pdb

>  <Gold.PLP.Fitness>  (233) 
51.4014

>  <Gold.PLP.PLP>  (233) 
-43.9249

>  <Gold.PLP.part.hbond>  (233) 
-2.0000

>  <Gold.PLP.part.metal>  (233) 
0.0000

>  <Gold.PLP.part.buried>  (233) 
-5.5916

>  <Gold.PLP.part.nonpolar>  (233) 
-36.5930

>  <Gold.PLP.part.repulsive>  (233) 
0.1846

>  <Gold.PLP.ligand.clash>  (233) 
0.0000

>  <Gold.PLP.ligand.torsion>  (233) 
0.9817

>  <Gold.PLP.Chemscore.Hbond>  (233) 
3.0000

>  <Gold.PLP.Chemscore.CHOScore>  (233) 
0.0000

>  <Gold.PLP.Chemscore.Metal>  (233) 
0.0000

>  <Gold.Chemscore.Hbonds>  (233) 
donor molecule, donor type, donor heavy atom, donor atom, acceptor molecule, acceptor atom, score
      L1  H    16    40       P1  2902  2.00
      P1  H  1888  1903       L1     4  1.00

>  <Gold.PLP.Chemscore.Internal.Correction>  (233) 
0.4401

>  <Gold.PLP.Constraint>  (233) 
-0.0000

>  <Gold.Protein.RotatedTorsions>  (233) 
[  681  677  676  673 ] final   12.37 input -179.99 | X-H torsion
[  702  698  697  694 ] final -137.99 input  179.99 | X-H torsion
[ 2577 2569 2568 2566 ] final -118.19 input   -0.13 | X-H torsion
[ 2891 2887 2886 2883 ] final   -6.79 input  179.98 | X-H torsion
[ 3175 3171 3170 3167 ] final  -89.60 input -179.99 | X-H torsion
[ 5278 5270 5269 5267 ] final   12.43 input    0.55 | X-H torsion
[  641  637  636  633 ] final   86.90 input  179.99 | X-H torsion
[ 1886 1878 1877 1875 ] final  164.47 input    1.60 | X-H torsion
[  965  957  956  954 ] final -155.16 input    0.45 | X-H torsion

>  <Gold.Protein.ActiveResidues>  (233) 
 LYS47   THR48   LEU49   GLY50   THR51   GLY52   SER53   PHE54   GLY55   ARG56  
 VAL57   MET58   LEU59   TYR69   ALA70   MET71   LYS72   ILE73   LEU74   GLU91  
 LEU95   VAL104  LYS105  MET118  VAL119  MET120  GLU121  TYR122  VAL123  PRO124 
 GLY125  GLY126  GLU127  MET128  PHE129  TYR164  ASP166  LEU167  LYS168  PRO169 
 GLU170  ASN171  LEU172  LEU173  ILE174  GLN181  VAL182  THR183  ASP184  PHE185 
 GLY186  PHE187  GLY200  THR201  ASN326  PHE327  TYR330  ARG18   ARG19   ASN20  
 ALA21   ILE22   HIS23  

>  <Gold.Protein.RotatedAtoms>  (233) 
   10.2757   19.7539    8.8403 H   0  0  0  0  0  0  0  0  0  0  0  0  # atno 641  bound_to 637 
   16.0108   12.5978    6.3287 H   0  0  0  0  0  0  0  0  0  0  0  0  # atno 681  bound_to 677 
   21.1051   11.5469   -1.0028 H   0  0  0  0  0  0  0  0  0  0  0  0  # atno 702  bound_to 698 
   -6.7333   17.1501   -0.9334 H   0  0  0  0  0  0  0  0  0  0  0  0  # atno 965  bound_to 957 
    0.6982   11.7699   11.0699 H   0  0  0  0  0  0  0  0  0  0  0  0  # atno 1886 bound_to 1878
   11.0718    2.6617   -2.8522 H   0  0  0  0  0  0  0  0  0  0  0  0  # atno 2577 bound_to 2569
    8.0226    5.3633    0.4116 H   0  0  0  0  0  0  0  0  0  0  0  0  # atno 2891 bound_to 2887
   19.1793    2.9515    0.0286 H   0  0  0  0  0  0  0  0  0  0  0  0  # atno 3175 bound_to 3171
   12.6350   10.0077    9.6488 H   0  0  0  0  0  0  0  0  0  0  0  0  # atno 5278 bound_to 5270
   16.0202   13.7187    7.4599 LP  0  0  0  0  0  0  0  0  0  0  0  0  # atno 5914 bound_to 677 
   17.3021   13.5193    6.4681 LP  0  0  0  0  0  0  0  0  0  0  0  0  # atno 5915 bound_to 677 
   19.8923   11.7646   -2.0123 LP  0  0  0  0  0  0  0  0  0  0  0  0  # atno 5920 bound_to 698 
   19.6497   11.7764   -0.3975 LP  0  0  0  0  0  0  0  0  0  0  0  0  # atno 5921 bound_to 698 
    9.7017    1.9601   -2.4451 LP  0  0  0  0  0  0  0  0  0  0  0  0  # atno 5950 bound_to 2569
    9.7112    3.3017   -3.3760 LP  0  0  0  0  0  0  0  0  0  0  0  0  # atno 5951 bound_to 2569
    7.1349    5.9373    1.6028 LP  0  0  0  0  0  0  0  0  0  0  0  0  # atno 5982 bound_to 2887
    8.0965    6.9230    0.7251 LP  0  0  0  0  0  0  0  0  0  0  0  0  # atno 5983 bound_to 2887
   17.9104    2.0085   -0.1620 LP  0  0  0  0  0  0  0  0  0  0  0  0  # atno 6000 bound_to 3171
   18.7933    2.4941   -1.4470 LP  0  0  0  0  0  0  0  0  0  0  0  0  # atno 6001 bound_to 3171
   14.0359    9.8237   10.3841 LP  0  0  0  0  0  0  0  0  0  0  0  0  # atno 6004 bound_to 5270
   13.9668   10.2138    8.7998 LP  0  0  0  0  0  0  0  0  0  0  0  0  # atno 6005 bound_to 5270
    9.7749   19.1038    7.4760 LP  0  0  0  0  0  0  0  0  0  0  0  0  # atno 6055 bound_to 637 
   11.3675   19.1935    7.8259 LP  0  0  0  0  0  0  0  0  0  0  0  0  # atno 6056 bound_to 637 
    2.1613   11.9880   10.4810 LP  0  0  0  0  0  0  0  0  0  0  0  0  # atno 6063 bound_to 1878
    1.4890   10.5005   10.5237 LP  0  0  0  0  0  0  0  0  0  0  0  0  # atno 6064 bound_to 1878
   -7.1901   15.9484    0.0058 LP  0  0  0  0  0  0  0  0  0  0  0  0  # atno 6067 bound_to 957 
   -6.5265   15.6612   -1.4583 LP  0  0  0  0  0  0  0  0  0  0  0  0  # atno 6068 bound_to 957 

>  <STRIFE_LigEff_Score>  (233) 
2.8556333333333335

$$$$
unknown|pharmsElabsTestMulti|sdf|234|dock9
     RDKit          3D

 17 17  0  0  0  0  0  0  0  0999 V2000
   15.2269    7.5318    3.0954 C   0  0  0  0  0  0  0  0  0  0  0  0
   14.1488    7.9142    2.0701 C   0  0  0  0  0  0  0  0  0  0  0  0
   14.1905    6.9940    0.9278 N   0  0  0  0  0  0  0  0  0  0  0  0
   12.6948    8.1033    2.6297 C   0  0  0  0  0  0  0  0  0  0  0  0
   11.5646    7.4930    1.7796 C   0  0  0  0  0  0  0  0  0  0  0  0
   10.2204    8.1840    1.9103 C   0  0  0  0  0  0  0  0  0  0  0  0
    9.9177    8.6055    3.3428 C   0  0  0  0  0  0  0  0  0  0  0  0
    8.5226    9.1728    3.4120 C   0  0  0  0  0  0  0  0  0  0  0  0
    7.8951    9.4577    2.3523 O   0  0  0  0  0  0  0  0  0  0  0  0
    7.9208    9.4076    4.6844 N   0  0  0  0  0  0  0  0  0  0  0  0
    6.5742    9.9575    4.7995 C   0  0  0  0  0  0  0  0  0  0  0  0
    5.6171    9.2137    3.8744 C   0  0  0  0  0  0  0  0  0  0  0  0
    4.2670    9.8088    3.9548 N   0  0  0  0  0  0  0  0  0  0  0  0
    3.8537    9.9337    5.3610 C   0  0  0  0  0  0  0  0  0  0  0  0
    3.3016    8.9611    3.2428 C   0  0  0  0  0  0  0  0  0  0  0  0
   10.9290    9.6491    3.8299 C   0  0  0  0  0  0  0  0  0  0  0  0
   12.4048    9.3192    3.5347 C   0  0  0  0  0  0  0  0  0  0  0  0
  1  2  1  0
  2  3  1  0
  2  4  1  0
  4  5  1  0
  5  6  1  0
  6  7  1  0
  7  8  1  0
  8  9  2  0
  8 10  1  0
 10 11  1  0
 11 12  1  0
 12 13  1  0
 13 14  1  0
 13 15  1  0
  7 16  1  0
 16 17  1  0
 17  4  1  0
M  CHG  1   3   1
M  END
>  <EmbedRMS>  (234) 
0.1707968305671159

>  <Gold.Version>  (234) 
2020.3.0

>  <Gold.Id.Protein>  (234) 
unknown|1q8t_protein|pdb

>  <Gold.PLP.Fitness>  (234) 
47.2744

>  <Gold.PLP.PLP>  (234) 
-39.8272

>  <Gold.PLP.part.hbond>  (234) 
-2.0000

>  <Gold.PLP.part.metal>  (234) 
0.0000

>  <Gold.PLP.part.buried>  (234) 
-5.5238

>  <Gold.PLP.part.nonpolar>  (234) 
-32.5651

>  <Gold.PLP.part.repulsive>  (234) 
0.1266

>  <Gold.PLP.ligand.clash>  (234) 
0.0000

>  <Gold.PLP.ligand.torsion>  (234) 
1.0969

>  <Gold.PLP.Chemscore.Hbond>  (234) 
3.0000

>  <Gold.PLP.Chemscore.CHOScore>  (234) 
0.0000

>  <Gold.PLP.Chemscore.Metal>  (234) 
0.0000

>  <Gold.Chemscore.Hbonds>  (234) 
donor molecule, donor type, donor heavy atom, donor atom, acceptor molecule, acceptor atom, score
      L1  H     3    23       P1  2691  1.00
      L1  H     3    24       P1  2902  2.00

>  <Gold.PLP.Chemscore.Internal.Correction>  (234) 
0.6410

>  <Gold.PLP.Constraint>  (234) 
-0.0000

>  <Gold.Protein.RotatedTorsions>  (234) 
[  681  677  676  673 ] final  -75.54 input -179.99 | X-H torsion
[  702  698  697  694 ] final  -16.26 input  179.99 | X-H torsion
[ 2577 2569 2568 2566 ] final    8.64 input   -0.13 | X-H torsion
[ 2891 2887 2886 2883 ] final -101.59 input  179.98 | X-H torsion
[ 3175 3171 3170 3167 ] final -176.20 input -179.99 | X-H torsion
[ 5278 5270 5269 5267 ] final  131.09 input    0.55 | X-H torsion
[  641  637  636  633 ] final  -78.84 input  179.99 | X-H torsion
[ 1886 1878 1877 1875 ] final   17.65 input    1.60 | X-H torsion
[  965  957  956  954 ] final  171.90 input    0.45 | X-H torsion

>  <Gold.Protein.ActiveResidues>  (234) 
 LYS47   THR48   LEU49   GLY50   THR51   GLY52   SER53   PHE54   GLY55   ARG56  
 VAL57   MET58   LEU59   TYR69   ALA70   MET71   LYS72   ILE73   LEU74   GLU91  
 LEU95   VAL104  LYS105  MET118  VAL119  MET120  GLU121  TYR122  VAL123  PRO124 
 GLY125  GLY126  GLU127  MET128  PHE129  TYR164  ASP166  LEU167  LYS168  PRO169 
 GLU170  ASN171  LEU172  LEU173  ILE174  GLN181  VAL182  THR183  ASP184  PHE185 
 GLY186  PHE187  GLY200  THR201  ASN326  PHE327  TYR330  ARG18   ARG19   ASN20  
 ALA21   ILE22   HIS23  

>  <Gold.Protein.RotatedAtoms>  (234) 
   10.4408   18.9420    7.2685 H   0  0  0  0  0  0  0  0  0  0  0  0  # atno 641  bound_to 637 
   15.7144   13.3585    7.2666 H   0  0  0  0  0  0  0  0  0  0  0  0  # atno 681  bound_to 677 
   19.6606   11.7924   -0.4508 H   0  0  0  0  0  0  0  0  0  0  0  0  # atno 702  bound_to 698 
   -6.9427   17.0940   -0.4744 H   0  0  0  0  0  0  0  0  0  0  0  0  # atno 965  bound_to 957 
    2.2481   11.5868   10.3554 H   0  0  0  0  0  0  0  0  0  0  0  0  # atno 1886 bound_to 1878
    9.6463    3.2083   -3.3362 H   0  0  0  0  0  0  0  0  0  0  0  0  # atno 2577 bound_to 2569
    7.1993    5.5837    1.4181 H   0  0  0  0  0  0  0  0  0  0  0  0  # atno 2891 bound_to 2887
   18.1923    2.2454    0.2198 H   0  0  0  0  0  0  0  0  0  0  0  0  # atno 3175 bound_to 3171
   13.9264   10.2219    8.8348 H   0  0  0  0  0  0  0  0  0  0  0  0  # atno 5278 bound_to 5270
   17.1778   13.8382    6.8612 LP  0  0  0  0  0  0  0  0  0  0  0  0  # atno 5914 bound_to 677 
   16.4564   12.5991    6.0797 LP  0  0  0  0  0  0  0  0  0  0  0  0  # atno 5915 bound_to 677 
   21.1429   11.5227   -0.9681 LP  0  0  0  0  0  0  0  0  0  0  0  0  # atno 5920 bound_to 698 
   19.9186   11.7601   -2.0223 LP  0  0  0  0  0  0  0  0  0  0  0  0  # atno 5921 bound_to 698 
   11.1120    2.7645   -2.9003 LP  0  0  0  0  0  0  0  0  0  0  0  0  # atno 5950 bound_to 2569
    9.8017    1.9217   -2.4111 LP  0  0  0  0  0  0  0  0  0  0  0  0  # atno 5951 bound_to 2569
    7.8398    6.9918    1.0390 LP  0  0  0  0  0  0  0  0  0  0  0  0  # atno 5982 bound_to 2887
    8.2582    5.6366    0.2296 LP  0  0  0  0  0  0  0  0  0  0  0  0  # atno 5983 bound_to 2887
   18.3579    2.1827   -1.3627 LP  0  0  0  0  0  0  0  0  0  0  0  0  # atno 6000 bound_to 3171
   19.3846    3.0630   -0.4476 LP  0  0  0  0  0  0  0  0  0  0  0  0  # atno 6001 bound_to 3171
   12.5897    9.9853    9.6679 LP  0  0  0  0  0  0  0  0  0  0  0  0  # atno 6004 bound_to 5270
   14.0543    9.8268   10.3725 LP  0  0  0  0  0  0  0  0  0  0  0  0  # atno 6005 bound_to 5270
   11.2994   19.5284    8.4743 LP  0  0  0  0  0  0  0  0  0  0  0  0  # atno 6055 bound_to 637 
    9.6692   19.6238    8.4829 LP  0  0  0  0  0  0  0  0  0  0  0  0  # atno 6056 bound_to 637 
    1.0942   10.5471   10.7057 LP  0  0  0  0  0  0  0  0  0  0  0  0  # atno 6063 bound_to 1878
    0.9246   12.1341   11.0512 LP  0  0  0  0  0  0  0  0  0  0  0  0  # atno 6064 bound_to 1878
   -7.0623   15.5178   -0.2840 LP  0  0  0  0  0  0  0  0  0  0  0  0  # atno 6067 bound_to 957 
   -6.4338   16.1508   -1.6518 LP  0  0  0  0  0  0  0  0  0  0  0  0  # atno 6068 bound_to 957 

>  <STRIFE_LigEff_Score>  (234) 
2.7808470588235292

$$$$
unknown|pharmsElabsTestMulti|sdf|235|dock1
     RDKit          3D

 17 17  0  0  0  0  0  0  0  0999 V2000
    3.2990    9.2005    3.2187 C   0  0  0  0  0  0  0  0  0  0  0  0
    4.2976    9.7866    4.1022 N   0  0  0  0  0  0  0  0  0  0  0  0
    5.6826    9.4350    4.0115 C   0  0  0  0  0  0  0  0  0  0  0  0
    6.0754    8.6006    3.1519 O   0  0  0  0  0  0  0  0  0  0  0  0
    6.6723   10.0495    4.9452 C   0  0  0  0  0  0  0  0  0  0  0  0
    8.0188    9.4844    4.7707 N   0  0  0  0  0  0  0  0  0  0  0  0
    8.6400    9.5904    3.4783 C   0  0  0  0  0  0  0  0  0  0  0  0
    7.9861   10.0939    2.5306 O   0  0  0  0  0  0  0  0  0  0  0  0
   10.0405    9.1751    3.1356 C   0  0  0  0  0  0  0  0  0  0  0  0
   10.2381    7.6687    2.9463 C   0  0  0  0  0  0  0  0  0  0  0  0
   11.7087    7.2360    2.7732 C   0  0  0  0  0  0  0  0  0  0  0  0
   12.5631    8.3842    2.2135 C   0  0  0  0  0  0  0  0  0  0  0  0
   13.9676    8.0305    1.6334 C   0  0  0  0  0  0  0  0  0  0  0  0
   14.8489    9.1921    1.2063 C   0  0  0  0  0  0  0  0  0  0  0  0
   14.0651    6.8454    0.7881 N   0  0  0  0  0  0  0  0  0  0  0  0
   12.5831    9.5528    3.2201 C   0  0  0  0  0  0  0  0  0  0  0  0
   11.1809   10.0458    3.6376 C   0  0  0  0  0  0  0  0  0  0  0  0
  1  2  1  0
  2  3  1  0
  3  4  2  0
  3  5  1  0
  5  6  1  0
  6  7  1  0
  7  8  2  0
  7  9  1  0
  9 10  1  0
 10 11  1  0
 11 12  1  0
 12 13  1  0
 13 14  1  0
 13 15  1  0
 12 16  1  0
 16 17  1  0
 17  9  1  0
M  CHG  1  15   1
M  END
>  <EmbedRMS>  (235) 
0.2569057114362328

>  <Gold.Version>  (235) 
2020.3.0

>  <Gold.Id.Protein>  (235) 
unknown|1q8t_protein|pdb

>  <Gold.PLP.Fitness>  (235) 
41.2952

>  <Gold.PLP.PLP>  (235) 
-32.4413

>  <Gold.PLP.part.hbond>  (235) 
-2.0000

>  <Gold.PLP.part.metal>  (235) 
0.0000

>  <Gold.PLP.part.buried>  (235) 
-3.8824

>  <Gold.PLP.part.nonpolar>  (235) 
-26.8686

>  <Gold.PLP.part.repulsive>  (235) 
0.1398

>  <Gold.PLP.ligand.clash>  (235) 
0.0000

>  <Gold.PLP.ligand.torsion>  (235) 
0.5691

>  <Gold.PLP.Chemscore.Hbond>  (235) 
2.9920

>  <Gold.PLP.Chemscore.CHOScore>  (235) 
0.0000

>  <Gold.PLP.Chemscore.Metal>  (235) 
0.0000

>  <Gold.Chemscore.Hbonds>  (235) 
donor molecule, donor type, donor heavy atom, donor atom, acceptor molecule, acceptor atom, score
      L1  H    15    35       P1  2902  2.00
      L1  H    15    37       P1  2691  0.99

>  <Gold.PLP.Chemscore.Internal.Correction>  (235) 
1.0161

>  <Gold.PLP.Constraint>  (235) 
-0.0000

>  <Gold.Protein.RotatedTorsions>  (235) 
[  681  677  676  673 ] final  -24.52 input -179.99 | X-H torsion
[  702  698  697  694 ] final  173.39 input  179.99 | X-H torsion
[ 2577 2569 2568 2566 ] final  -22.84 input   -0.13 | X-H torsion
[ 2891 2887 2886 2883 ] final  -44.63 input  179.98 | X-H torsion
[ 3175 3171 3170 3167 ] final   74.33 input -179.99 | X-H torsion
[ 5278 5270 5269 5267 ] final -150.61 input    0.55 | X-H torsion
[  641  637  636  633 ] final  -12.00 input  179.99 | X-H torsion
[ 1886 1878 1877 1875 ] final   90.91 input    1.60 | X-H torsion
[  965  957  956  954 ] final -160.46 input    0.45 | X-H torsion

>  <Gold.Protein.ActiveResidues>  (235) 
 LYS47   THR48   LEU49   GLY50   THR51   GLY52   SER53   PHE54   GLY55   ARG56  
 VAL57   MET58   LEU59   TYR69   ALA70   MET71   LYS72   ILE73   LEU74   GLU91  
 LEU95   VAL104  LYS105  MET118  VAL119  MET120  GLU121  TYR122  VAL123  PRO124 
 GLY125  GLY126  GLU127  MET128  PHE129  TYR164  ASP166  LEU167  LYS168  PRO169 
 GLU170  ASN171  LEU172  LEU173  ILE174  GLN181  VAL182  THR183  ASP184  PHE185 
 GLY186  PHE187  GLY200  THR201  ASN326  PHE327  TYR330  ARG18   ARG19   ASN20  
 ALA21   ILE22   HIS23  

>  <Gold.Protein.RotatedAtoms>  (235) 
    9.6360   19.2363    7.7568 H   0  0  0  0  0  0  0  0  0  0  0  0  # atno 641  bound_to 637 
   15.6732   12.7987    6.7372 H   0  0  0  0  0  0  0  0  0  0  0  0  # atno 681  bound_to 677 
   20.9094   11.5953   -1.7126 H   0  0  0  0  0  0  0  0  0  0  0  0  # atno 702  bound_to 698 
   -6.7672   17.1609   -0.8587 H   0  0  0  0  0  0  0  0  0  0  0  0  # atno 965  bound_to 957 
    1.5780   12.3066   10.7736 H   0  0  0  0  0  0  0  0  0  0  0  0  # atno 1886 bound_to 1878
   10.0997    3.3653   -3.4120 H   0  0  0  0  0  0  0  0  0  0  0  0  # atno 2577 bound_to 2569
    7.6413    5.1789    0.8091 H   0  0  0  0  0  0  0  0  0  0  0  0  # atno 2891 bound_to 2887
   18.2635    2.1077   -1.2346 H   0  0  0  0  0  0  0  0  0  0  0  0  # atno 3175 bound_to 3171
   14.3975    9.9802    9.8347 H   0  0  0  0  0  0  0  0  0  0  0  0  # atno 5278 bound_to 5270
   16.5569   13.9629    7.3695 LP  0  0  0  0  0  0  0  0  0  0  0  0  # atno 5914 bound_to 677 
   17.1208   13.0636    6.1286 LP  0  0  0  0  0  0  0  0  0  0  0  0  # atno 5915 bound_to 677 
   19.3578   11.8486   -1.4557 LP  0  0  0  0  0  0  0  0  0  0  0  0  # atno 5920 bound_to 698 
   20.3900   11.6415   -0.2074 LP  0  0  0  0  0  0  0  0  0  0  0  0  # atno 5921 bound_to 698 
   11.0301    2.3470   -2.6164 LP  0  0  0  0  0  0  0  0  0  0  0  0  # atno 5950 bound_to 2569
    9.4063    2.1739   -2.6152 LP  0  0  0  0  0  0  0  0  0  0  0  0  # atno 5951 bound_to 2569
    7.2831    6.5297    1.5730 LP  0  0  0  0  0  0  0  0  0  0  0  0  # atno 5982 bound_to 2887
    8.3497    6.5247    0.3365 LP  0  0  0  0  0  0  0  0  0  0  0  0  # atno 5983 bound_to 2887
   19.3931    3.0467   -0.6198 LP  0  0  0  0  0  0  0  0  0  0  0  0  # atno 6000 bound_to 3171
   18.2745    2.3439    0.3401 LP  0  0  0  0  0  0  0  0  0  0  0  0  # atno 6001 bound_to 3171
   13.2791   10.2245    8.7273 LP  0  0  0  0  0  0  0  0  0  0  0  0  # atno 6004 bound_to 5270
   12.8691    9.8419   10.2610 LP  0  0  0  0  0  0  0  0  0  0  0  0  # atno 6005 bound_to 5270
   11.2051   19.0622    7.5510 LP  0  0  0  0  0  0  0  0  0  0  0  0  # atno 6055 bound_to 637 
   10.6110   19.7801    8.8920 LP  0  0  0  0  0  0  0  0  0  0  0  0  # atno 6056 bound_to 637 
    2.0990   10.8726   10.3183 LP  0  0  0  0  0  0  0  0  0  0  0  0  # atno 6063 bound_to 1878
    0.6252   11.0509   10.9984 LP  0  0  0  0  0  0  0  0  0  0  0  0  # atno 6064 bound_to 1878
   -7.1769   15.8679   -0.0248 LP  0  0  0  0  0  0  0  0  0  0  0  0  # atno 6067 bound_to 957 
   -6.5040   15.7303   -1.5063 LP  0  0  0  0  0  0  0  0  0  0  0  0  # atno 6068 bound_to 957 

>  <STRIFE_LigEff_Score>  (235) 
2.429129411764706

$$$$
unknown|pharmsElabsTestMulti|sdf|236|dock9
     RDKit          3D

 17 17  0  0  0  0  0  0  0  0999 V2000
   14.7524    7.7188    3.4440 C   0  0  0  0  0  0  0  0  0  0  0  0
   13.5321    7.6180    2.5302 C   0  0  0  0  0  0  0  0  0  0  0  0
   13.6685    8.4489    1.3320 N   0  0  0  0  0  0  0  0  0  0  0  0
   12.1240    7.7217    3.1662 C   0  0  0  0  0  0  0  0  0  0  0  0
   11.0126    7.1012    2.3073 C   0  0  0  0  0  0  0  0  0  0  0  0
    9.5925    7.5461    2.6142 C   0  0  0  0  0  0  0  0  0  0  0  0
    9.4941    9.0241    2.8944 C   0  0  0  0  0  0  0  0  0  0  0  0
    8.0906    9.5517    2.8874 C   0  0  0  0  0  0  0  0  0  0  0  0
    7.7192   10.0793    3.9635 O   0  0  0  0  0  0  0  0  0  0  0  0
    7.1689    9.4843    1.7855 N   0  0  0  0  0  0  0  0  0  0  0  0
    5.7697    9.9005    1.9628 C   0  0  0  0  0  0  0  0  0  0  0  0
    5.0384    8.9431    2.9163 C   0  0  0  0  0  0  0  0  0  0  0  0
    5.0710    9.4379    4.2917 N   0  0  0  0  0  0  0  0  0  0  0  0
    3.8784    9.8431    4.9706 C   0  0  0  0  0  0  0  0  0  0  0  0
    2.7585    9.7942    4.3950 O   0  0  0  0  0  0  0  0  0  0  0  0
   10.4265    9.5707    3.9394 C   0  0  0  0  0  0  0  0  0  0  0  0
   11.8764    9.1610    3.6908 C   0  0  0  0  0  0  0  0  0  0  0  0
  1  2  1  0
  2  3  1  0
  2  4  1  0
  4  5  1  0
  5  6  1  0
  6  7  1  0
  7  8  1  0
  8  9  2  0
  8 10  1  0
 10 11  1  0
 11 12  1  0
 12 13  1  0
 13 14  1  0
 14 15  2  0
  7 16  1  0
 16 17  1  0
 17  4  1  0
M  CHG  1   3   1
M  END
>  <EmbedRMS>  (236) 
0.30207850723488733

>  <Gold.Version>  (236) 
2020.3.0

>  <Gold.Id.Protein>  (236) 
unknown|1q8t_protein|pdb

>  <Gold.PLP.Fitness>  (236) 
44.1746

>  <Gold.PLP.PLP>  (236) 
-36.0321

>  <Gold.PLP.part.hbond>  (236) 
-2.0000

>  <Gold.PLP.part.metal>  (236) 
0.0000

>  <Gold.PLP.part.buried>  (236) 
-4.9548

>  <Gold.PLP.part.nonpolar>  (236) 
-29.1013

>  <Gold.PLP.part.repulsive>  (236) 
0.1779

>  <Gold.PLP.ligand.clash>  (236) 
0.0000

>  <Gold.PLP.ligand.torsion>  (236) 
0.6982

>  <Gold.PLP.Chemscore.Hbond>  (236) 
2.9840

>  <Gold.PLP.Chemscore.CHOScore>  (236) 
0.0000

>  <Gold.PLP.Chemscore.Metal>  (236) 
0.0000

>  <Gold.Chemscore.Hbonds>  (236) 
donor molecule, donor type, donor heavy atom, donor atom, acceptor molecule, acceptor atom, score
      L1  H     3    23       P1  2902  1.98
      P1  H  1888  1903       L1    15  1.00

>  <Gold.PLP.Chemscore.Internal.Correction>  (236) 
0.5869

>  <Gold.PLP.Constraint>  (236) 
-0.0000

>  <Gold.Protein.RotatedTorsions>  (236) 
[  681  677  676  673 ] final  -91.79 input -179.99 | X-H torsion
[  702  698  697  694 ] final   32.02 input  179.99 | X-H torsion
[ 2577 2569 2568 2566 ] final -111.18 input   -0.13 | X-H torsion
[ 2891 2887 2886 2883 ] final  -55.07 input  179.98 | X-H torsion
[ 3175 3171 3170 3167 ] final  -53.03 input -179.99 | X-H torsion
[ 5278 5270 5269 5267 ] final  -46.34 input    0.55 | X-H torsion
[  641  637  636  633 ] final  -65.76 input  179.99 | X-H torsion
[ 1886 1878 1877 1875 ] final  116.31 input    1.60 | X-H torsion
[  965  957  956  954 ] final   60.72 input    0.45 | X-H torsion

>  <Gold.Protein.ActiveResidues>  (236) 
 LYS47   THR48   LEU49   GLY50   THR51   GLY52   SER53   PHE54   GLY55   ARG56  
 VAL57   MET58   LEU59   TYR69   ALA70   MET71   LYS72   ILE73   LEU74   GLU91  
 LEU95   VAL104  LYS105  MET118  VAL119  MET120  GLU121  TYR122  VAL123  PRO124 
 GLY125  GLY126  GLU127  MET128  PHE129  TYR164  ASP166  LEU167  LYS168  PRO169 
 GLU170  ASN171  LEU172  LEU173  ILE174  GLN181  VAL182  THR183  ASP184  PHE185 
 GLY186  PHE187  GLY200  THR201  ASN326  PHE327  TYR330  ARG18   ARG19   ASN20  
 ALA21   ILE22   HIS23  

>  <Gold.Protein.RotatedAtoms>  (236) 
   10.2392   18.9644    7.2903 H   0  0  0  0  0  0  0  0  0  0  0  0  # atno 641  bound_to 637 
   15.8538   13.5453    7.3654 H   0  0  0  0  0  0  0  0  0  0  0  0  # atno 681  bound_to 677 
   19.3504   11.8601   -1.1115 H   0  0  0  0  0  0  0  0  0  0  0  0  # atno 702  bound_to 698 
   -7.0772   15.6470   -0.2092 H   0  0  0  0  0  0  0  0  0  0  0  0  # atno 965  bound_to 957 
    1.2171   12.2635   10.9253 H   0  0  0  0  0  0  0  0  0  0  0  0  # atno 1886 bound_to 1878
   11.0657    2.7513   -2.9149 H   0  0  0  0  0  0  0  0  0  0  0  0  # atno 2577 bound_to 2569
    7.5370    5.1940    0.9335 H   0  0  0  0  0  0  0  0  0  0  0  0  # atno 2891 bound_to 2887
   19.3624    3.0181   -0.4985 H   0  0  0  0  0  0  0  0  0  0  0  0  # atno 3175 bound_to 3171
   13.0985    9.8333   10.3754 H   0  0  0  0  0  0  0  0  0  0  0  0  # atno 5278 bound_to 5270
   17.2732   13.6936    6.6587 LP  0  0  0  0  0  0  0  0  0  0  0  0  # atno 5914 bound_to 677 
   16.2143   12.5471    6.1781 LP  0  0  0  0  0  0  0  0  0  0  0  0  # atno 5915 bound_to 677 
   20.7122   11.5868   -0.3316 LP  0  0  0  0  0  0  0  0  0  0  0  0  # atno 5920 bound_to 698 
   20.6755   11.6248   -1.9637 LP  0  0  0  0  0  0  0  0  0  0  0  0  # atno 5921 bound_to 698 
    9.8044    1.9208   -2.4103 LP  0  0  0  0  0  0  0  0  0  0  0  0  # atno 5950 bound_to 2569
    9.6148    3.2465   -3.3447 LP  0  0  0  0  0  0  0  0  0  0  0  0  # atno 5951 bound_to 2569
    7.3645    6.6679    1.5119 LP  0  0  0  0  0  0  0  0  0  0  0  0  # atno 5982 bound_to 2887
    8.3781    6.3706    0.2666 LP  0  0  0  0  0  0  0  0  0  0  0  0  # atno 5983 bound_to 2887
   18.1917    2.2753    0.2847 LP  0  0  0  0  0  0  0  0  0  0  0  0  # atno 6000 bound_to 3171
   18.3193    2.1572   -1.3390 LP  0  0  0  0  0  0  0  0  0  0  0  0  # atno 6001 bound_to 3171
   14.4729   10.0233    9.5934 LP  0  0  0  0  0  0  0  0  0  0  0  0  # atno 6004 bound_to 5270
   13.0421   10.1977    8.8260 LP  0  0  0  0  0  0  0  0  0  0  0  0  # atno 6005 bound_to 5270
   11.3786   19.4341    8.2983 LP  0  0  0  0  0  0  0  0  0  0  0  0  # atno 6055 bound_to 637 
    9.8023   19.6946    8.6360 LP  0  0  0  0  0  0  0  0  0  0  0  0  # atno 6056 bound_to 637 
    2.2748   11.2478   10.3048 LP  0  0  0  0  0  0  0  0  0  0  0  0  # atno 6063 bound_to 1878
    0.8293   10.7210   10.8522 LP  0  0  0  0  0  0  0  0  0  0  0  0  # atno 6064 bound_to 1878
   -6.4469   16.0089   -1.6258 LP  0  0  0  0  0  0  0  0  0  0  0  0  # atno 6067 bound_to 957 
   -6.9074   17.1838   -0.5894 LP  0  0  0  0  0  0  0  0  0  0  0  0  # atno 6068 bound_to 957 

>  <STRIFE_LigEff_Score>  (236) 
2.598505882352941

$$$$
unknown|pharmsElabsTestMulti|sdf|237|dock10
     RDKit          3D

 18 19  0  0  0  0  0  0  0  0999 V2000
   14.0319    7.1208    3.3532 C   0  0  0  0  0  0  0  0  0  0  0  0
   13.8076    7.9874    2.0984 C   0  0  0  0  0  0  0  0  0  0  0  0
   14.0483    7.1722    0.9008 N   0  0  0  0  0  0  0  0  0  0  0  0
   12.3741    8.5960    2.1169 C   0  0  0  0  0  0  0  0  0  0  0  0
   11.3413    7.5208    1.7208 C   0  0  0  0  0  0  0  0  0  0  0  0
    9.9598    8.1442    1.5837 C   0  0  0  0  0  0  0  0  0  0  0  0
    9.5300    8.7741    2.9128 C   0  0  0  0  0  0  0  0  0  0  0  0
    8.1621    9.3732    2.7815 C   0  0  0  0  0  0  0  0  0  0  0  0
    7.7387    9.7331    1.6489 O   0  0  0  0  0  0  0  0  0  0  0  0
    7.3506    9.5250    3.9549 N   0  0  0  0  0  0  0  0  0  0  0  0
    6.0044   10.0979    3.9682 C   0  0  0  0  0  0  0  0  0  0  0  0
    5.2884    9.8027    5.3030 C   0  0  0  0  0  0  0  0  0  0  0  0
    3.7952   10.1030    5.1805 C   0  0  0  0  0  0  0  0  0  0  0  0
    3.1111    9.2337    4.1054 C   0  0  0  0  0  0  0  0  0  0  0  0
    4.0699    8.6878    3.0326 C   0  0  0  0  0  0  0  0  0  0  0  0
    5.2015    9.6713    2.7136 C   0  0  0  0  0  0  0  0  0  0  0  0
   10.5493    9.8199    3.3949 C   0  0  0  0  0  0  0  0  0  0  0  0
   11.9619    9.2175    3.4747 C   0  0  0  0  0  0  0  0  0  0  0  0
  1  2  1  0
  2  3  1  0
  2  4  1  0
  4  5  1  0
  5  6  1  0
  6  7  1  0
  7  8  1  0
  8  9  2  0
  8 10  1  0
 10 11  1  0
 11 12  1  0
 12 13  1  0
 13 14  1  0
 14 15  1  0
 15 16  1  0
  7 17  1  0
 17 18  1  0
 18  4  1  0
 16 11  1  0
M  CHG  1   3   1
M  END
>  <EmbedRMS>  (237) 
0.03225401817650533

>  <Gold.Version>  (237) 
2020.3.0

>  <Gold.Id.Protein>  (237) 
unknown|1q8t_protein|pdb

>  <Gold.PLP.Fitness>  (237) 
53.9926

>  <Gold.PLP.PLP>  (237) 
-47.0955

>  <Gold.PLP.part.hbond>  (237) 
-2.0000

>  <Gold.PLP.part.metal>  (237) 
0.0000

>  <Gold.PLP.part.buried>  (237) 
-1.5682

>  <Gold.PLP.part.nonpolar>  (237) 
-43.8595

>  <Gold.PLP.part.repulsive>  (237) 
0.0607

>  <Gold.PLP.ligand.clash>  (237) 
0.0000

>  <Gold.PLP.ligand.torsion>  (237) 
1.0848

>  <Gold.PLP.Chemscore.Hbond>  (237) 
3.0000

>  <Gold.PLP.Chemscore.CHOScore>  (237) 
0.0000

>  <Gold.PLP.Chemscore.Metal>  (237) 
0.0000

>  <Gold.Chemscore.Hbonds>  (237) 
donor molecule, donor type, donor heavy atom, donor atom, acceptor molecule, acceptor atom, score
      L1  H     3    23       P1  2691  1.00
      L1  H     3    24       P1  2902  2.00

>  <Gold.PLP.Chemscore.Internal.Correction>  (237) 
0.0667

>  <Gold.PLP.Constraint>  (237) 
-0.0000

>  <Gold.Protein.RotatedTorsions>  (237) 
[  681  677  676  673 ] final   77.94 input -179.99 | X-H torsion
[  702  698  697  694 ] final   23.62 input  179.99 | X-H torsion
[ 2577 2569 2568 2566 ] final   76.70 input   -0.13 | X-H torsion
[ 2891 2887 2886 2883 ] final -162.24 input  179.98 | X-H torsion
[ 3175 3171 3170 3167 ] final   88.77 input -179.99 | X-H torsion
[ 5278 5270 5269 5267 ] final    8.34 input    0.55 | X-H torsion
[  641  637  636  633 ] final   58.69 input  179.99 | X-H torsion
[ 1886 1878 1877 1875 ] final -149.49 input    1.60 | X-H torsion
[  965  957  956  954 ] final   57.77 input    0.45 | X-H torsion

>  <Gold.Protein.ActiveResidues>  (237) 
 LYS47   THR48   LEU49   GLY50   THR51   GLY52   SER53   PHE54   GLY55   ARG56  
 VAL57   MET58   LEU59   TYR69   ALA70   MET71   LYS72   ILE73   LEU74   GLU91  
 LEU95   VAL104  LYS105  MET118  VAL119  MET120  GLU121  TYR122  VAL123  PRO124 
 GLY125  GLY126  GLU127  MET128  PHE129  TYR164  ASP166  LEU167  LYS168  PRO169 
 GLU170  ASN171  LEU172  LEU173  ILE174  GLN181  VAL182  THR183  ASP184  PHE185 
 GLY186  PHE187  GLY200  THR201  ASN326  PHE327  TYR330  ARG18   ARG19   ASN20  
 ALA21   ILE22   HIS23  

>  <Gold.Protein.RotatedAtoms>  (237) 
    9.8859   19.6824    8.6577 H   0  0  0  0  0  0  0  0  0  0  0  0  # atno 641  bound_to 637 
   16.8984   12.8947    6.0733 H   0  0  0  0  0  0  0  0  0  0  0  0  # atno 681  bound_to 677 
   19.3629   11.8554   -0.9809 H   0  0  0  0  0  0  0  0  0  0  0  0  # atno 702  bound_to 698 
   -7.0638   15.6146   -0.2392 H   0  0  0  0  0  0  0  0  0  0  0  0  # atno 965  bound_to 957 
    0.6572   11.0779   10.9700 H   0  0  0  0  0  0  0  0  0  0  0  0  # atno 1886 bound_to 1878
    9.3129    2.4206   -2.8137 H   0  0  0  0  0  0  0  0  0  0  0  0  # atno 2577 bound_to 2569
    7.2789    6.4766    1.5397 H   0  0  0  0  0  0  0  0  0  0  0  0  # atno 2891 bound_to 2887
   18.1225    2.0235   -1.0806 H   0  0  0  0  0  0  0  0  0  0  0  0  # atno 3175 bound_to 3171
   12.6400    9.9925    9.7107 H   0  0  0  0  0  0  0  0  0  0  0  0  # atno 5278 bound_to 5270
   15.5791   12.9428    6.9640 LP  0  0  0  0  0  0  0  0  0  0  0  0  # atno 5914 bound_to 677 
   16.8091   13.9827    7.2328 LP  0  0  0  0  0  0  0  0  0  0  0  0  # atno 5915 bound_to 677 
   20.8229   11.5687   -0.4122 LP  0  0  0  0  0  0  0  0  0  0  0  0  # atno 5920 bound_to 698 
   20.5518   11.6478   -2.0206 LP  0  0  0  0  0  0  0  0  0  0  0  0  # atno 5921 bound_to 698 
   10.4275    3.3999   -3.3917 LP  0  0  0  0  0  0  0  0  0  0  0  0  # atno 5950 bound_to 2569
   10.8374    2.1157   -2.4699 LP  0  0  0  0  0  0  0  0  0  0  0  0  # atno 5951 bound_to 2569
    8.3404    6.5580    0.3552 LP  0  0  0  0  0  0  0  0  0  0  0  0  # atno 5982 bound_to 2887
    7.6738    5.1307    0.7854 LP  0  0  0  0  0  0  0  0  0  0  0  0  # atno 5983 bound_to 2887
   19.3631    2.9945   -0.8490 LP  0  0  0  0  0  0  0  0  0  0  0  0  # atno 6000 bound_to 3171
   18.4528    2.4848    0.4073 LP  0  0  0  0  0  0  0  0  0  0  0  0  # atno 6001 bound_to 3171
   14.0913    9.8334   10.3472 LP  0  0  0  0  0  0  0  0  0  0  0  0  # atno 6004 bound_to 5270
   13.9061   10.2201    8.7716 LP  0  0  0  0  0  0  0  0  0  0  0  0  # atno 6005 bound_to 5270
   10.1580   18.9717    7.2592 LP  0  0  0  0  0  0  0  0  0  0  0  0  # atno 6055 bound_to 637 
   11.3949   19.4009    8.2351 LP  0  0  0  0  0  0  0  0  0  0  0  0  # atno 6056 bound_to 637 
    1.5985   12.3496   10.7908 LP  0  0  0  0  0  0  0  0  0  0  0  0  # atno 6063 bound_to 1878
    2.0950   10.8672   10.3191 LP  0  0  0  0  0  0  0  0  0  0  0  0  # atno 6064 bound_to 1878
   -6.4415   16.0559   -1.6368 LP  0  0  0  0  0  0  0  0  0  0  0  0  # atno 6067 bound_to 957 
   -6.9269   17.1708   -0.5468 LP  0  0  0  0  0  0  0  0  0  0  0  0  # atno 6068 bound_to 957 

>  <STRIFE_LigEff_Score>  (237) 
2.999588888888889

$$$$
unknown|pharmsElabsTestMulti|sdf|238|dock10
     RDKit          3D

 18 18  0  0  0  0  0  0  0  0999 V2000
    4.0398    9.8635    1.9875 C   0  0  0  0  0  0  0  0  0  0  0  0
    3.0721    8.8522    2.5893 C   0  0  0  0  0  0  0  0  0  0  0  0
    3.6208    8.3168    3.9054 C   0  0  0  0  0  0  0  0  0  0  0  0
    3.3564    9.2684    4.9877 N   0  0  0  0  0  0  0  0  0  0  0  0
    4.6213    9.7053    5.5913 C   0  0  0  0  0  0  0  0  0  0  0  0
    5.4993   10.4103    4.5584 C   0  0  0  0  0  0  0  0  0  0  0  0
    6.8387    9.8331    4.5612 N   0  0  0  0  0  0  0  0  0  0  0  0
    7.4909    9.3778    3.3721 C   0  0  0  0  0  0  0  0  0  0  0  0
    6.8881    9.4148    2.2613 O   0  0  0  0  0  0  0  0  0  0  0  0
    8.9075    8.8647    3.4505 C   0  0  0  0  0  0  0  0  0  0  0  0
    9.3404    8.3625    2.0782 C   0  0  0  0  0  0  0  0  0  0  0  0
   10.7152    7.7201    2.0999 C   0  0  0  0  0  0  0  0  0  0  0  0
   11.7505    8.4285    2.9937 C   0  0  0  0  0  0  0  0  0  0  0  0
   13.2514    8.2605    2.5661 C   0  0  0  0  0  0  0  0  0  0  0  0
   14.2307    7.8435    3.6737 C   0  0  0  0  0  0  0  0  0  0  0  0
   13.4036    7.3812    1.4014 N   0  0  0  0  0  0  0  0  0  0  0  0
   11.3454    9.6885    3.7876 C   0  0  0  0  0  0  0  0  0  0  0  0
    9.8394    9.9786    3.9408 C   0  0  0  0  0  0  0  0  0  0  0  0
  1  2  1  0
  2  3  1  0
  3  4  1  0
  4  5  1  0
  5  6  1  0
  6  7  1  0
  7  8  1  0
  8  9  2  0
  8 10  1  0
 10 11  1  0
 11 12  1  0
 12 13  1  0
 13 14  1  0
 14 15  1  0
 14 16  1  0
 13 17  1  0
 17 18  1  0
 18 10  1  0
M  CHG  1  16   1
M  END
>  <EmbedRMS>  (238) 
0.16499967102600221

>  <Gold.Version>  (238) 
2020.3.0

>  <Gold.Id.Protein>  (238) 
unknown|1q8t_protein|pdb

>  <Gold.PLP.Fitness>  (238) 
52.8048

>  <Gold.PLP.PLP>  (238) 
-44.0939

>  <Gold.PLP.part.hbond>  (238) 
-3.7882

>  <Gold.PLP.part.metal>  (238) 
0.0000

>  <Gold.PLP.part.buried>  (238) 
-5.5551

>  <Gold.PLP.part.nonpolar>  (238) 
-34.8495

>  <Gold.PLP.part.repulsive>  (238) 
0.0201

>  <Gold.PLP.ligand.clash>  (238) 
0.0000

>  <Gold.PLP.ligand.torsion>  (238) 
1.7883

>  <Gold.PLP.Chemscore.Hbond>  (238) 
3.8388

>  <Gold.PLP.Chemscore.CHOScore>  (238) 
0.0000

>  <Gold.PLP.Chemscore.Metal>  (238) 
0.0000

>  <Gold.Chemscore.Hbonds>  (238) 
donor molecule, donor type, donor heavy atom, donor atom, acceptor molecule, acceptor atom, score
      L1  H     4    26       P1  1891  0.96
      L1  H    16    43       P1  2691  0.90
      L1  H    16    44       P1  2902  1.98

>  <Gold.PLP.Chemscore.Internal.Correction>  (238) 
0.7714

>  <Gold.PLP.Constraint>  (238) 
-0.0000

>  <Gold.Protein.RotatedTorsions>  (238) 
[  681  677  676  673 ] final   66.03 input -179.99 | X-H torsion
[  702  698  697  694 ] final  149.78 input  179.99 | X-H torsion
[ 2577 2569 2568 2566 ] final   87.35 input   -0.13 | X-H torsion
[ 2891 2887 2886 2883 ] final  -48.19 input  179.98 | X-H torsion
[ 3175 3171 3170 3167 ] final -123.15 input -179.99 | X-H torsion
[ 5278 5270 5269 5267 ] final  -49.41 input    0.55 | X-H torsion
[  641  637  636  633 ] final  -60.76 input  179.99 | X-H torsion
[ 1886 1878 1877 1875 ] final  -17.78 input    1.60 | X-H torsion
[  965  957  956  954 ] final  136.95 input    0.45 | X-H torsion

>  <Gold.Protein.ActiveResidues>  (238) 
 LYS47   THR48   LEU49   GLY50   THR51   GLY52   SER53   PHE54   GLY55   ARG56  
 VAL57   MET58   LEU59   TYR69   ALA70   MET71   LYS72   ILE73   LEU74   GLU91  
 LEU95   VAL104  LYS105  MET118  VAL119  MET120  GLU121  TYR122  VAL123  PRO124 
 GLY125  GLY126  GLU127  MET128  PHE129  TYR164  ASP166  LEU167  LYS168  PRO169 
 GLU170  ASN171  LEU172  LEU173  ILE174  GLN181  VAL182  THR183  ASP184  PHE185 
 GLY186  PHE187  GLY200  THR201  ASN326  PHE327  TYR330  ARG18   ARG19   ASN20  
 ALA21   ILE22   HIS23  

>  <Gold.Protein.RotatedAtoms>  (238) 
   10.1647   18.9783    7.3094 H   0  0  0  0  0  0  0  0  0  0  0  0  # atno 641  bound_to 637 
   16.7491   12.7852    6.0572 H   0  0  0  0  0  0  0  0  0  0  0  0  # atno 681  bound_to 677 
   20.6258   11.6500   -1.9387 H   0  0  0  0  0  0  0  0  0  0  0  0  # atno 702  bound_to 698 
   -7.1154   16.7464   -0.1023 H   0  0  0  0  0  0  0  0  0  0  0  0  # atno 965  bound_to 957 
    2.1509   11.0528   10.3072 H   0  0  0  0  0  0  0  0  0  0  0  0  # atno 1886 bound_to 1878
    9.3693    2.2942   -2.7218 H   0  0  0  0  0  0  0  0  0  0  0  0  # atno 2577 bound_to 2569
    7.6051    5.1808    0.8514 H   0  0  0  0  0  0  0  0  0  0  0  0  # atno 2891 bound_to 2887
   18.8225    2.7263    0.3274 H   0  0  0  0  0  0  0  0  0  0  0  0  # atno 3175 bound_to 3171
   13.1411    9.8284   10.3969 H   0  0  0  0  0  0  0  0  0  0  0  0  # atno 5278 bound_to 5270
   15.5832   13.0829    7.1003 LP  0  0  0  0  0  0  0  0  0  0  0  0  # atno 5914 bound_to 677 
   16.9620   13.9578    7.1135 LP  0  0  0  0  0  0  0  0  0  0  0  0  # atno 5915 bound_to 677 
   19.3033   11.8509   -1.0738 LP  0  0  0  0  0  0  0  0  0  0  0  0  # atno 5920 bound_to 698 
   20.7429   11.5817   -0.3515 LP  0  0  0  0  0  0  0  0  0  0  0  0  # atno 5921 bound_to 698 
   10.2556    3.4192   -3.4177 LP  0  0  0  0  0  0  0  0  0  0  0  0  # atno 5950 bound_to 2569
   10.9499    2.2294   -2.5407 LP  0  0  0  0  0  0  0  0  0  0  0  0  # atno 5951 bound_to 2569
    7.3092    6.5788    1.5546 LP  0  0  0  0  0  0  0  0  0  0  0  0  # atno 5982 bound_to 2887
    8.3616    6.4736    0.3104 LP  0  0  0  0  0  0  0  0  0  0  0  0  # atno 5983 bound_to 2887
   17.9020    1.9317   -0.7007 LP  0  0  0  0  0  0  0  0  0  0  0  0  # atno 6000 bound_to 3171
   19.1773    2.8079   -1.2228 LP  0  0  0  0  0  0  0  0  0  0  0  0  # atno 6001 bound_to 3171
   14.4705   10.0354    9.5444 LP  0  0  0  0  0  0  0  0  0  0  0  0  # atno 6004 bound_to 5270
   12.9996   10.1907    8.8524 LP  0  0  0  0  0  0  0  0  0  0  0  0  # atno 6005 bound_to 5270
   11.3966   19.3968    8.2272 LP  0  0  0  0  0  0  0  0  0  0  0  0  # atno 6055 bound_to 637 
    9.8628   19.7172    8.6870 LP  0  0  0  0  0  0  0  0  0  0  0  0  # atno 6056 bound_to 637 
    0.6983   10.8908   10.9389 LP  0  0  0  0  0  0  0  0  0  0  0  0  # atno 6063 bound_to 1878
    1.4227   12.3526   10.8688 LP  0  0  0  0  0  0  0  0  0  0  0  0  # atno 6064 bound_to 1878
   -6.8430   15.3268   -0.7699 LP  0  0  0  0  0  0  0  0  0  0  0  0  # atno 6067 bound_to 957 
   -6.4712   16.7079   -1.5579 LP  0  0  0  0  0  0  0  0  0  0  0  0  # atno 6068 bound_to 957 

>  <STRIFE_LigEff_Score>  (238) 
2.9336

$$$$
unknown|pharmsElabsTestMulti|sdf|239|dock6
     RDKit          3D

 15 15  0  0  0  0  0  0  0  0999 V2000
    3.8149   10.0236    5.2917 C   0  0  0  0  0  0  0  0  0  0  0  0
    5.3388    9.9996    5.3909 C   0  0  0  0  0  0  0  0  0  0  0  0
    5.9891    9.8936    4.0100 C   0  0  0  0  0  0  0  0  0  0  0  0
    7.3923    9.5159    4.1304 N   0  0  0  0  0  0  0  0  0  0  0  0
    8.2150    9.2862    2.9864 C   0  0  0  0  0  0  0  0  0  0  0  0
    7.7527    9.4543    1.8225 O   0  0  0  0  0  0  0  0  0  0  0  0
    9.6453    8.8735    3.1949 C   0  0  0  0  0  0  0  0  0  0  0  0
    9.9294    7.5178    2.5220 C   0  0  0  0  0  0  0  0  0  0  0  0
   11.4091    7.1293    2.6817 C   0  0  0  0  0  0  0  0  0  0  0  0
   12.2640    8.2402    2.0453 C   0  0  0  0  0  0  0  0  0  0  0  0
   13.7359    7.9153    1.6571 C   0  0  0  0  0  0  0  0  0  0  0  0
   14.6700    9.0985    1.4697 C   0  0  0  0  0  0  0  0  0  0  0  0
   13.9547    6.8007    0.7438 N   0  0  0  0  0  0  0  0  0  0  0  0
   12.0681    9.5530    2.8237 C   0  0  0  0  0  0  0  0  0  0  0  0
   10.5993    9.9891    2.7271 C   0  0  0  0  0  0  0  0  0  0  0  0
  1  2  1  0
  2  3  1  0
  3  4  1  0
  4  5  1  0
  5  6  2  0
  5  7  1  0
  7  8  1  0
  8  9  1  0
  9 10  1  0
 10 11  1  0
 11 12  1  0
 11 13  1  0
 10 14  1  0
 14 15  1  0
 15  7  1  0
M  CHG  1  13   1
M  END
>  <EmbedRMS>  (239) 
0.2000484947854372

>  <Gold.Version>  (239) 
2020.3.0

>  <Gold.Id.Protein>  (239) 
unknown|1q8t_protein|pdb

>  <Gold.PLP.Fitness>  (239) 
42.2283

>  <Gold.PLP.PLP>  (239) 
-33.7252

>  <Gold.PLP.part.hbond>  (239) 
-1.8621

>  <Gold.PLP.part.metal>  (239) 
0.0000

>  <Gold.PLP.part.buried>  (239) 
-2.1564

>  <Gold.PLP.part.nonpolar>  (239) 
-30.1412

>  <Gold.PLP.part.repulsive>  (239) 
0.0939

>  <Gold.PLP.ligand.clash>  (239) 
0.0000

>  <Gold.PLP.ligand.torsion>  (239) 
0.4278

>  <Gold.PLP.Chemscore.Hbond>  (239) 
2.9920

>  <Gold.PLP.Chemscore.CHOScore>  (239) 
0.0000

>  <Gold.PLP.Chemscore.Metal>  (239) 
0.0000

>  <Gold.Chemscore.Hbonds>  (239) 
donor molecule, donor type, donor heavy atom, donor atom, acceptor molecule, acceptor atom, score
      L1  H    13    34       P1  2691  0.99
      L1  H    13    35       P1  2902  2.00

>  <Gold.PLP.Chemscore.Internal.Correction>  (239) 
0.3827

>  <Gold.PLP.Constraint>  (239) 
-0.0000

>  <Gold.Protein.RotatedTorsions>  (239) 
[  681  677  676  673 ] final  157.71 input -179.99 | X-H torsion
[  702  698  697  694 ] final   43.58 input  179.99 | X-H torsion
[ 2577 2569 2568 2566 ] final  -78.69 input   -0.13 | X-H torsion
[ 2891 2887 2886 2883 ] final -103.97 input  179.98 | X-H torsion
[ 3175 3171 3170 3167 ] final   -2.25 input -179.99 | X-H torsion
[ 5278 5270 5269 5267 ] final -130.09 input    0.55 | X-H torsion
[  641  637  636  633 ] final -147.29 input  179.99 | X-H torsion
[ 1886 1878 1877 1875 ] final  -78.47 input    1.60 | X-H torsion
[  965  957  956  954 ] final -110.09 input    0.45 | X-H torsion

>  <Gold.Protein.ActiveResidues>  (239) 
 LYS47   THR48   LEU49   GLY50   THR51   GLY52   SER53   PHE54   GLY55   ARG56  
 VAL57   MET58   LEU59   TYR69   ALA70   MET71   LYS72   ILE73   LEU74   GLU91  
 LEU95   VAL104  LYS105  MET118  VAL119  MET120  GLU121  TYR122  VAL123  PRO124 
 GLY125  GLY126  GLU127  MET128  PHE129  TYR164  ASP166  LEU167  LYS168  PRO169 
 GLU170  ASN171  LEU172  LEU173  ILE174  GLN181  VAL182  THR183  ASP184  PHE185 
 GLY186  PHE187  GLY200  THR201  ASN326  PHE327  TYR330  ARG18   ARG19   ASN20  
 ALA21   ILE22   HIS23  

>  <Gold.Protein.RotatedAtoms>  (239) 
   11.2898   19.1500    7.7687 H   0  0  0  0  0  0  0  0  0  0  0  0  # atno 641  bound_to 637 
   17.1793   13.7679    6.7649 H   0  0  0  0  0  0  0  0  0  0  0  0  # atno 681  bound_to 677 
   19.3643   11.8611   -1.2915 H   0  0  0  0  0  0  0  0  0  0  0  0  # atno 702  bound_to 698 
   -6.4968   16.7797   -1.4606 H   0  0  0  0  0  0  0  0  0  0  0  0  # atno 965  bound_to 957 
    1.4377   10.5449   10.5350 H   0  0  0  0  0  0  0  0  0  0  0  0  # atno 1886 bound_to 1878
   10.8709    3.1237   -3.1878 H   0  0  0  0  0  0  0  0  0  0  0  0  # atno 2577 bound_to 2569
    7.1902    5.6149    1.4360 H   0  0  0  0  0  0  0  0  0  0  0  0  # atno 2891 bound_to 2887
   19.1524    2.7713   -1.1950 H   0  0  0  0  0  0  0  0  0  0  0  0  # atno 3175 bound_to 3171
   14.2637    9.9095   10.1156 H   0  0  0  0  0  0  0  0  0  0  0  0  # atno 5278 bound_to 5270
   16.3548   12.5707    6.1144 LP  0  0  0  0  0  0  0  0  0  0  0  0  # atno 5914 bound_to 677 
   15.7377   13.4357    7.3544 LP  0  0  0  0  0  0  0  0  0  0  0  0  # atno 5915 bound_to 677 
   20.5435   11.6151   -0.2492 LP  0  0  0  0  0  0  0  0  0  0  0  0  # atno 5920 bound_to 698 
   20.8297   11.5954   -1.8568 LP  0  0  0  0  0  0  0  0  0  0  0  0  # atno 5921 bound_to 698 
   10.3270    1.8854   -2.3474 LP  0  0  0  0  0  0  0  0  0  0  0  0  # atno 5950 bound_to 2569
    9.2973    2.8899   -3.1203 LP  0  0  0  0  0  0  0  0  0  0  0  0  # atno 5951 bound_to 2569
    7.8654    6.9929    1.0095 LP  0  0  0  0  0  0  0  0  0  0  0  0  # atno 5982 bound_to 2887
    8.2421    5.6026    0.2402 LP  0  0  0  0  0  0  0  0  0  0  0  0  # atno 5983 bound_to 2887
   18.8331    2.7609    0.3650 LP  0  0  0  0  0  0  0  0  0  0  0  0  # atno 6000 bound_to 3171
   17.8989    1.9313   -0.6864 LP  0  0  0  0  0  0  0  0  0  0  0  0  # atno 6001 bound_to 3171
   13.6135   10.2351    8.6986 LP  0  0  0  0  0  0  0  0  0  0  0  0  # atno 6004 bound_to 5270
   12.6756    9.9057    9.9942 LP  0  0  0  0  0  0  0  0  0  0  0  0  # atno 6005 bound_to 5270
   10.3604   19.7932    8.8902 LP  0  0  0  0  0  0  0  0  0  0  0  0  # atno 6055 bound_to 637 
    9.7141   19.1400    7.5403 LP  0  0  0  0  0  0  0  0  0  0  0  0  # atno 6056 bound_to 637 
    0.6871   11.8288   11.1038 LP  0  0  0  0  0  0  0  0  0  0  0  0  # atno 6063 bound_to 1878
    2.1848   11.9492   10.4641 LP  0  0  0  0  0  0  0  0  0  0  0  0  # atno 6064 bound_to 1878
   -7.1705   16.6703   -0.0221 LP  0  0  0  0  0  0  0  0  0  0  0  0  # atno 6067 bound_to 957 
   -6.7951   15.3294   -0.8751 LP  0  0  0  0  0  0  0  0  0  0  0  0  # atno 6068 bound_to 957 

>  <STRIFE_LigEff_Score>  (239) 
2.8152199999999996

$$$$
unknown|pharmsElabsTestMulti|sdf|240|dock9
     RDKit          3D

 17 17  0  0  0  0  0  0  0  0999 V2000
   14.6293    7.3326    3.3169 C   0  0  0  0  0  0  0  0  0  0  0  0
   13.3264    7.4487    2.5277 C   0  0  0  0  0  0  0  0  0  0  0  0
   13.4390    8.3870    1.4092 N   0  0  0  0  0  0  0  0  0  0  0  0
   12.0020    7.6178    3.3121 C   0  0  0  0  0  0  0  0  0  0  0  0
   10.7858    6.9978    2.6088 C   0  0  0  0  0  0  0  0  0  0  0  0
    9.4213    7.4965    3.0528 C   0  0  0  0  0  0  0  0  0  0  0  0
    9.3933    8.9864    3.2788 C   0  0  0  0  0  0  0  0  0  0  0  0
    8.0124    9.5531    3.4081 C   0  0  0  0  0  0  0  0  0  0  0  0
    7.5071    9.9677    2.3370 O   0  0  0  0  0  0  0  0  0  0  0  0
    7.2615    9.6661    4.6279 N   0  0  0  0  0  0  0  0  0  0  0  0
    5.9779   10.3794    4.6473 C   0  0  0  0  0  0  0  0  0  0  0  0
    4.8859    9.5078    5.2935 C   0  0  0  0  0  0  0  0  0  0  0  0
    3.5264    9.6596    4.5979 C   0  0  0  0  0  0  0  0  0  0  0  0
    3.4558    8.9092    3.2673 C   0  0  0  0  0  0  0  0  0  0  0  0
    3.1363    9.7977    2.2333 O   0  0  0  0  0  0  0  0  0  0  0  0
   10.4495    9.5444    4.1918 C   0  0  0  0  0  0  0  0  0  0  0  0
   11.8514    9.0828    3.8016 C   0  0  0  0  0  0  0  0  0  0  0  0
  1  2  1  0
  2  3  1  0
  2  4  1  0
  4  5  1  0
  5  6  1  0
  6  7  1  0
  7  8  1  0
  8  9  2  0
  8 10  1  0
 10 11  1  0
 11 12  1  0
 12 13  1  0
 13 14  1  0
 14 15  1  0
  7 16  1  0
 16 17  1  0
 17  4  1  0
M  CHG  1   3   1
M  END
>  <EmbedRMS>  (240) 
0.3028787039700591

>  <Gold.Version>  (240) 
2020.3.0

>  <Gold.Id.Protein>  (240) 
unknown|1q8t_protein|pdb

>  <Gold.PLP.Fitness>  (240) 
50.2209

>  <Gold.PLP.PLP>  (240) 
-43.5294

>  <Gold.PLP.part.hbond>  (240) 
-2.0000

>  <Gold.PLP.part.metal>  (240) 
0.0000

>  <Gold.PLP.part.buried>  (240) 
-3.7760

>  <Gold.PLP.part.nonpolar>  (240) 
-38.3093

>  <Gold.PLP.part.repulsive>  (240) 
0.0000

>  <Gold.PLP.ligand.clash>  (240) 
0.0000

>  <Gold.PLP.ligand.torsion>  (240) 
1.5117

>  <Gold.PLP.Chemscore.Hbond>  (240) 
3.0000

>  <Gold.PLP.Chemscore.CHOScore>  (240) 
0.0000

>  <Gold.PLP.Chemscore.Metal>  (240) 
0.0000

>  <Gold.Chemscore.Hbonds>  (240) 
donor molecule, donor type, donor heavy atom, donor atom, acceptor molecule, acceptor atom, score
      L1  H     3    23       P1  2902  2.00
      L1  H    15    40       P1  1855  1.00

>  <Gold.PLP.Chemscore.Internal.Correction>  (240) 
0.7149

>  <Gold.PLP.Constraint>  (240) 
-0.0000

>  <Gold.Protein.RotatedTorsions>  (240) 
[  681  677  676  673 ] final  -27.75 input -179.99 | X-H torsion
[  702  698  697  694 ] final -170.57 input  179.99 | X-H torsion
[ 2577 2569 2568 2566 ] final  164.51 input   -0.13 | X-H torsion
[ 2891 2887 2886 2883 ] final  175.92 input  179.98 | X-H torsion
[ 3175 3171 3170 3167 ] final  -55.18 input -179.99 | X-H torsion
[ 5278 5270 5269 5267 ] final   32.52 input    0.55 | X-H torsion
[  641  637  636  633 ] final  -38.66 input  179.99 | X-H torsion
[ 1886 1878 1877 1875 ] final   62.91 input    1.60 | X-H torsion
[  965  957  956  954 ] final  -28.18 input    0.45 | X-H torsion

>  <Gold.Protein.ActiveResidues>  (240) 
 LYS47   THR48   LEU49   GLY50   THR51   GLY52   SER53   PHE54   GLY55   ARG56  
 VAL57   MET58   LEU59   TYR69   ALA70   MET71   LYS72   ILE73   LEU74   GLU91  
 LEU95   VAL104  LYS105  MET118  VAL119  MET120  GLU121  TYR122  VAL123  PRO124 
 GLY125  GLY126  GLU127  MET128  PHE129  TYR164  ASP166  LEU167  LYS168  PRO169 
 GLU170  ASN171  LEU172  LEU173  ILE174  GLN181  VAL182  THR183  ASP184  PHE185 
 GLY186  PHE187  GLY200  THR201  ASN326  PHE327  TYR330  ARG18   ARG19   ASN20  
 ALA21   ILE22   HIS23  

>  <Gold.Protein.RotatedAtoms>  (240) 
    9.8707   19.0716    7.4598 H   0  0  0  0  0  0  0  0  0  0  0  0  # atno 641  bound_to 637 
   15.6569   12.8273    6.7755 H   0  0  0  0  0  0  0  0  0  0  0  0  # atno 681  bound_to 677 
   21.0396   11.5682   -1.5008 H   0  0  0  0  0  0  0  0  0  0  0  0  # atno 702  bound_to 698 
   -6.5582   15.6128   -1.3502 H   0  0  0  0  0  0  0  0  0  0  0  0  # atno 965  bound_to 957 
    1.9403   12.1578   10.5885 H   0  0  0  0  0  0  0  0  0  0  0  0  # atno 1886 bound_to 1878
   10.3695    1.9234   -2.3911 H   0  0  0  0  0  0  0  0  0  0  0  0  # atno 2577 bound_to 2569
    7.4487    6.7383    1.4058 H   0  0  0  0  0  0  0  0  0  0  0  0  # atno 2891 bound_to 2887
   19.3593    3.0201   -0.4651 H   0  0  0  0  0  0  0  0  0  0  0  0  # atno 3175 bound_to 3171
   12.6765   10.0823    9.3481 H   0  0  0  0  0  0  0  0  0  0  0  0  # atno 5278 bound_to 5270
   16.6049   13.9716    7.3484 LP  0  0  0  0  0  0  0  0  0  0  0  0  # atno 5914 bound_to 677 
   17.0899   13.0249    6.1093 LP  0  0  0  0  0  0  0  0  0  0  0  0  # atno 5915 bound_to 677 
   19.4798   11.8314   -1.6882 LP  0  0  0  0  0  0  0  0  0  0  0  0  # atno 5920 bound_to 698 
   20.1311   11.6872   -0.1977 LP  0  0  0  0  0  0  0  0  0  0  0  0  # atno 5921 bound_to 698 
    9.2800    2.8485   -3.0929 LP  0  0  0  0  0  0  0  0  0  0  0  0  # atno 5950 bound_to 2569
   10.8722    3.1906   -3.2138 LP  0  0  0  0  0  0  0  0  0  0  0  0  # atno 5951 bound_to 2569
    8.3862    6.2291    0.2233 LP  0  0  0  0  0  0  0  0  0  0  0  0  # atno 5982 bound_to 2887
    7.4493    5.1841    1.0582 LP  0  0  0  0  0  0  0  0  0  0  0  0  # atno 5983 bound_to 2887
   18.1688    2.2559    0.2659 LP  0  0  0  0  0  0  0  0  0  0  0  0  # atno 6000 bound_to 3171
   18.3455    2.1744   -1.3554 LP  0  0  0  0  0  0  0  0  0  0  0  0  # atno 6001 bound_to 3171
   13.7317    9.7908   10.5049 LP  0  0  0  0  0  0  0  0  0  0  0  0  # atno 6004 bound_to 5270
   14.2273   10.1682    8.9954 LP  0  0  0  0  0  0  0  0  0  0  0  0  # atno 6005 bound_to 5270
   11.3907   19.2327    7.9053 LP  0  0  0  0  0  0  0  0  0  0  0  0  # atno 6055 bound_to 637 
   10.1782   19.7831    8.8505 LP  0  0  0  0  0  0  0  0  0  0  0  0  # atno 6056 bound_to 637 
    1.7596   10.5849   10.4188 LP  0  0  0  0  0  0  0  0  0  0  0  0  # atno 6063 bound_to 1878
    0.5831   11.4952   11.0927 LP  0  0  0  0  0  0  0  0  0  0  0  0  # atno 6064 bound_to 1878
   -6.6983   17.1700   -1.0493 LP  0  0  0  0  0  0  0  0  0  0  0  0  # atno 6067 bound_to 957 
   -7.2027   16.0587    0.0357 LP  0  0  0  0  0  0  0  0  0  0  0  0  # atno 6068 bound_to 957 

>  <STRIFE_LigEff_Score>  (240) 
2.954170588235294

$$$$
