
     RDKit          3D

 36 36  0  0  0  0  0  0  0  0999 V2000
   14.0277    7.0397    1.2345 C   0  0  0  0  0  0  0  0  0  0  0  0
   13.6687    8.3364    1.9397 C   0  0  0  0  0  0  0  0  0  0  0  0
   14.6127    8.7688    2.9625 N   0  0  0  0  0  4  0  0  0  0  0  0
   12.1571    8.5900    2.2117 C   0  0  0  0  0  0  0  0  0  0  0  0
   11.2392    7.3775    2.4509 C   0  0  0  0  0  0  0  0  0  0  0  0
    9.7871    7.8251    2.2093 C   0  0  0  0  0  0  0  0  0  0  0  0
    9.4095    8.9844    3.1498 C   0  0  0  0  0  0  0  0  0  0  0  0
    8.0095    9.4654    2.8780 C   0  0  0  0  0  0  0  0  0  0  0  0
    7.6209    9.6777    1.6947 O   0  0  0  0  0  0  0  0  0  0  0  0
    7.1403    9.7022    3.9912 N   0  0  0  0  0  0  0  0  0  0  0  0
    5.7806   10.1366    3.8956 C   0  0  0  0  0  0  0  0  0  0  0  0
    5.2520   10.3726    2.7753 O   0  0  0  0  0  0  0  0  0  0  0  0
    5.0238   10.3034    5.0949 N   0  0  0  0  0  0  0  0  0  0  0  0
    3.6929   10.7321    5.0538 N   0  0  0  0  0  0  0  0  0  0  0  0
    3.0500   10.8724    6.1135 O   0  0  0  0  0  0  0  0  0  0  0  0
   10.4048   10.1590    3.0859 C   0  0  0  0  0  0  0  0  0  0  0  0
   11.8544    9.6809    3.2538 C   0  0  0  0  0  0  0  0  0  0  0  0
   13.3770    6.8823    0.3473 H   0  0  0  0  0  0  0  0  0  0  0  0
   15.0829    7.0602    0.8863 H   0  0  0  0  0  0  0  0  0  0  0  0
   13.9070    6.1867    1.9347 H   0  0  0  0  0  0  0  0  0  0  0  0
   13.8828    9.0581    1.1115 H   0  0  0  0  0  0  0  0  0  0  0  0
   15.5890    8.5025    2.6977 H   0  0  0  0  0  0  0  0  0  0  0  0
   14.3770    8.3023    3.8678 H   0  0  0  0  0  0  0  0  0  0  0  0
   14.5953    9.8061    3.0882 H   0  0  0  0  0  0  0  0  0  0  0  0
   11.8025    9.0092    1.2369 H   0  0  0  0  0  0  0  0  0  0  0  0
   11.3673    6.9870    3.4842 H   0  0  0  0  0  0  0  0  0  0  0  0
   11.4623    6.5572    1.7385 H   0  0  0  0  0  0  0  0  0  0  0  0
    9.1113    6.9626    2.3990 H   0  0  0  0  0  0  0  0  0  0  0  0
    9.6581    8.1248    1.1451 H   0  0  0  0  0  0  0  0  0  0  0  0
    9.4477    8.5774    4.1854 H   0  0  0  0  0  0  0  0  0  0  0  0
    7.5219    9.5470    4.9515 H   0  0  0  0  0  0  0  0  0  0  0  0
    5.4696   10.1035    6.0188 H   0  0  0  0  0  0  0  0  0  0  0  0
   10.3023   10.6874    2.1114 H   0  0  0  0  0  0  0  0  0  0  0  0
   10.1699   10.8886    3.8916 H   0  0  0  0  0  0  0  0  0  0  0  0
   12.5075   10.5643    3.0949 H   0  0  0  0  0  0  0  0  0  0  0  0
   12.0186    9.2949    4.2837 H   0  0  0  0  0  0  0  0  0  0  0  0
  1  2  1  0
  2  3  1  0
  2  4  1  0
  4  5  1  0
  5  6  1  0
  6  7  1  0
  7  8  1  0
  8  9  2  0
  8 10  1  0
 10 11  1  0
 11 12  2  0
 11 13  1  0
 13 14  1  0
 14 15  2  0
  7 16  1  0
 16 17  1  0
 17  4  1  0
  1 18  1  0
  1 19  1  0
  1 20  1  0
  2 21  1  0
  3 22  1  0
  3 23  1  0
  3 24  1  0
  4 25  1  0
  5 26  1  0
  5 27  1  0
  6 28  1  0
  6 29  1  0
  7 30  1  0
 10 31  1  0
 13 32  1  0
 16 33  1  0
 16 34  1  0
 17 35  1  0
 17 36  1  0
M  CHG  1   3   1
M  END
>  <EmbedRMS>  (1) 
0.18747540890302497

$$$$

     RDKit          3D

 45 46  0  0  0  0  0  0  0  0999 V2000
   13.9234    7.3284    1.0387 C   0  0  0  0  0  0  0  0  0  0  0  0
   13.7078    7.9211    2.4415 C   0  0  0  0  0  0  0  0  0  0  0  0
   14.6425    9.0270    2.6702 N   0  0  0  0  0  4  0  0  0  0  0  0
   12.2296    8.2935    2.8212 C   0  0  0  0  0  0  0  0  0  0  0  0
   11.1748    7.4151    2.1500 C   0  0  0  0  0  0  0  0  0  0  0  0
    9.7363    7.7236    2.5352 C   0  0  0  0  0  0  0  0  0  0  0  0
    9.4519    9.2036    2.6236 C   0  0  0  0  0  0  0  0  0  0  0  0
    7.9915    9.5358    2.7190 C   0  0  0  0  0  0  0  0  0  0  0  0
    7.4120    9.6818    1.6162 O   0  0  0  0  0  0  0  0  0  0  0  0
    7.2350    9.6955    3.9307 N   0  0  0  0  0  0  0  0  0  0  0  0
    5.8469   10.1791    3.8765 C   0  0  0  0  0  0  0  0  0  0  0  0
    5.8178   11.6565    3.5733 C   0  0  0  0  0  0  0  0  0  0  0  0
    5.5838   12.1324    2.2700 C   0  0  0  0  0  0  0  0  0  0  0  0
    5.6158   13.5065    2.0056 C   0  0  0  0  0  0  0  0  0  0  0  0
    5.8776   14.4125    3.0374 C   0  0  0  0  0  0  0  0  0  0  0  0
    6.1100   13.9476    4.3362 C   0  0  0  0  0  0  0  0  0  0  0  0
    6.3690   14.8561    5.3589 O   0  0  0  0  0  0  0  0  0  0  0  0
    6.0842   12.5728    4.6002 C   0  0  0  0  0  0  0  0  0  0  0  0
   10.4238   10.0509    3.4137 C   0  0  0  0  0  0  0  0  0  0  0  0
   11.8790    9.7843    2.9967 C   0  0  0  0  0  0  0  0  0  0  0  0
   13.3792    6.3675    0.9251 H   0  0  0  0  0  0  0  0  0  0  0  0
   13.5736    8.0448    0.2655 H   0  0  0  0  0  0  0  0  0  0  0  0
   15.0005    7.1188    0.8658 H   0  0  0  0  0  0  0  0  0  0  0  0
   14.0115    7.0971    3.1302 H   0  0  0  0  0  0  0  0  0  0  0  0
   15.6234    8.7092    2.4930 H   0  0  0  0  0  0  0  0  0  0  0  0
   14.5979    9.3372    3.6676 H   0  0  0  0  0  0  0  0  0  0  0  0
   14.4336    9.8275    2.0307 H   0  0  0  0  0  0  0  0  0  0  0  0
   12.1629    7.9506    3.8811 H   0  0  0  0  0  0  0  0  0  0  0  0
   11.3811    6.3420    2.3598 H   0  0  0  0  0  0  0  0  0  0  0  0
   11.2480    7.5622    1.0509 H   0  0  0  0  0  0  0  0  0  0  0  0
    9.0518    7.2388    1.8032 H   0  0  0  0  0  0  0  0  0  0  0  0
    9.5317    7.2730    3.5310 H   0  0  0  0  0  0  0  0  0  0  0  0
    9.7032    9.5358    1.5855 H   0  0  0  0  0  0  0  0  0  0  0  0
    7.6851    9.5036    4.8534 H   0  0  0  0  0  0  0  0  0  0  0  0
    5.3598    9.9973    4.8591 H   0  0  0  0  0  0  0  0  0  0  0  0
    5.2687    9.6024    3.1218 H   0  0  0  0  0  0  0  0  0  0  0  0
    5.3778   11.4425    1.4617 H   0  0  0  0  0  0  0  0  0  0  0  0
    5.4362   13.8681    1.0014 H   0  0  0  0  0  0  0  0  0  0  0  0
    5.8995   15.4745    2.8286 H   0  0  0  0  0  0  0  0  0  0  0  0
    6.5423   14.5501    6.3093 H   0  0  0  0  0  0  0  0  0  0  0  0
    6.2787   12.2178    5.6051 H   0  0  0  0  0  0  0  0  0  0  0  0
   10.1917   11.1307    3.2792 H   0  0  0  0  0  0  0  0  0  0  0  0
   10.3070    9.8091    4.4923 H   0  0  0  0  0  0  0  0  0  0  0  0
   12.5374   10.2609    3.7534 H   0  0  0  0  0  0  0  0  0  0  0  0
   12.0585   10.2955    2.0260 H   0  0  0  0  0  0  0  0  0  0  0  0
  1  2  1  0
  2  3  1  0
  2  4  1  0
  4  5  1  0
  5  6  1  0
  6  7  1  0
  7  8  1  0
  8  9  2  0
  8 10  1  0
 10 11  1  0
 11 12  1  0
 12 13  2  0
 13 14  1  0
 14 15  2  0
 15 16  1  0
 16 17  1  0
 16 18  2  0
  7 19  1  0
 19 20  1  0
 20  4  1  0
 18 12  1  0
  1 21  1  0
  1 22  1  0
  1 23  1  0
  2 24  1  0
  3 25  1  0
  3 26  1  0
  3 27  1  0
  4 28  1  0
  5 29  1  0
  5 30  1  0
  6 31  1  0
  6 32  1  0
  7 33  1  0
 10 34  1  0
 11 35  1  0
 11 36  1  0
 13 37  1  0
 14 38  1  0
 15 39  1  0
 17 40  1  0
 18 41  1  0
 19 42  1  0
 19 43  1  0
 20 44  1  0
 20 45  1  0
M  CHG  1   3   1
M  END
>  <EmbedRMS>  (2) 
0.24874902131530774

$$$$

     RDKit          3D

 43 43  0  0  0  0  0  0  0  0999 V2000
   14.0277    7.0401    1.2342 C   0  0  0  0  0  0  0  0  0  0  0  0
   13.6688    8.3367    1.9397 C   0  0  0  0  0  0  0  0  0  0  0  0
   14.6131    8.7689    2.9622 N   0  0  0  0  0  4  0  0  0  0  0  0
   12.1573    8.5900    2.2123 C   0  0  0  0  0  0  0  0  0  0  0  0
   11.2408    7.3770    2.4535 C   0  0  0  0  0  0  0  0  0  0  0  0
    9.7883    7.8234    2.2157 C   0  0  0  0  0  0  0  0  0  0  0  0
    9.4113    8.9825    3.1577 C   0  0  0  0  0  0  0  0  0  0  0  0
    8.0134    9.4606    2.8822 C   0  0  0  0  0  0  0  0  0  0  0  0
    7.6284    9.6732    1.6971 O   0  0  0  0  0  0  0  0  0  0  0  0
    7.1281    9.6883    3.9839 N   0  0  0  0  0  0  0  0  0  0  0  0
    5.7651   10.1664    3.8061 C   0  0  0  0  0  0  0  0  0  0  0  0
    5.7737   11.6513    3.4565 C   0  0  0  0  0  0  0  0  0  0  0  0
    4.3729   12.1386    3.2894 C   0  0  0  0  0  0  0  0  0  0  0  0
    3.8300   12.0947    2.1528 O   0  0  0  0  0  0  0  0  0  0  0  0
    3.6343   12.5975    4.4247 N   0  0  0  0  0  0  0  0  0  0  0  0
    2.3077   13.0334    4.2873 N   0  0  0  0  0  0  0  0  0  0  0  0
   10.4050   10.1581    3.0889 C   0  0  0  0  0  0  0  0  0  0  0  0
   11.8552    9.6814    3.2542 C   0  0  0  0  0  0  0  0  0  0  0  0
   13.9078    6.1870    1.9345 H   0  0  0  0  0  0  0  0  0  0  0  0
   15.0827    7.0609    0.8853 H   0  0  0  0  0  0  0  0  0  0  0  0
   13.3765    6.8825    0.3474 H   0  0  0  0  0  0  0  0  0  0  0  0
   13.8823    9.0587    1.1115 H   0  0  0  0  0  0  0  0  0  0  0  0
   14.5950    9.8061    3.0888 H   0  0  0  0  0  0  0  0  0  0  0  0
   14.3782    8.3015    3.8673 H   0  0  0  0  0  0  0  0  0  0  0  0
   15.5894    8.5035    2.6965 H   0  0  0  0  0  0  0  0  0  0  0  0
   11.8015    9.0083    1.2377 H   0  0  0  0  0  0  0  0  0  0  0  0
   11.3716    6.9866    3.4865 H   0  0  0  0  0  0  0  0  0  0  0  0
   11.4628    6.5569    1.7405 H   0  0  0  0  0  0  0  0  0  0  0  0
    9.6571    8.1226    1.1516 H   0  0  0  0  0  0  0  0  0  0  0  0
    9.1138    6.9602    2.4067 H   0  0  0  0  0  0  0  0  0  0  0  0
    9.4477    8.5790    4.1947 H   0  0  0  0  0  0  0  0  0  0  0  0
    7.4468    9.4636    4.9535 H   0  0  0  0  0  0  0  0  0  0  0  0
    5.2010   10.0151    4.7531 H   0  0  0  0  0  0  0  0  0  0  0  0
    5.2615    9.5776    3.0078 H   0  0  0  0  0  0  0  0  0  0  0  0
    6.2761   12.2248    4.2655 H   0  0  0  0  0  0  0  0  0  0  0  0
    6.3370   11.8237    2.5145 H   0  0  0  0  0  0  0  0  0  0  0  0
    4.0773   12.5710    5.3718 H   0  0  0  0  0  0  0  0  0  0  0  0
    2.3318   13.9331    3.7555 H   0  0  0  0  0  0  0  0  0  0  0  0
    1.9474   13.2610    5.2421 H   0  0  0  0  0  0  0  0  0  0  0  0
   10.1711   10.8890    3.8937 H   0  0  0  0  0  0  0  0  0  0  0  0
   10.2999   10.6847    2.1137 H   0  0  0  0  0  0  0  0  0  0  0  0
   12.0217    9.2963    4.2841 H   0  0  0  0  0  0  0  0  0  0  0  0
   12.5073   10.5652    3.0934 H   0  0  0  0  0  0  0  0  0  0  0  0
  1  2  1  0
  2  3  1  0
  2  4  1  0
  4  5  1  0
  5  6  1  0
  6  7  1  0
  7  8  1  0
  8  9  2  0
  8 10  1  0
 10 11  1  0
 11 12  1  0
 12 13  1  0
 13 14  2  0
 13 15  1  0
 15 16  1  0
  7 17  1  0
 17 18  1  0
 18  4  1  0
  1 19  1  0
  1 20  1  0
  1 21  1  0
  2 22  1  0
  3 23  1  0
  3 24  1  0
  3 25  1  0
  4 26  1  0
  5 27  1  0
  5 28  1  0
  6 29  1  0
  6 30  1  0
  7 31  1  0
 10 32  1  0
 11 33  1  0
 11 34  1  0
 12 35  1  0
 12 36  1  0
 15 37  1  0
 16 38  1  0
 16 39  1  0
 17 40  1  0
 17 41  1  0
 18 42  1  0
 18 43  1  0
M  CHG  1   3   1
M  END
>  <EmbedRMS>  (3) 
0.1825443482688951

$$$$

     RDKit          3D

 47 48  0  0  0  0  0  0  0  0999 V2000
   13.9867    7.0996    1.1844 C   0  0  0  0  0  0  0  0  0  0  0  0
   13.5836    8.3576    1.9536 C   0  0  0  0  0  0  0  0  0  0  0  0
   14.7148    8.8852    2.7285 N   0  0  0  0  0  4  0  0  0  0  0  0
   12.2816    8.3202    2.7762 C   0  0  0  0  0  0  0  0  0  0  0  0
   11.1686    7.3051    2.4045 C   0  0  0  0  0  0  0  0  0  0  0  0
    9.8124    7.9105    2.0871 C   0  0  0  0  0  0  0  0  0  0  0  0
    9.4235    8.9759    3.1087 C   0  0  0  0  0  0  0  0  0  0  0  0
    8.0267    9.4434    2.8384 C   0  0  0  0  0  0  0  0  0  0  0  0
    7.6582    9.6749    1.6525 O   0  0  0  0  0  0  0  0  0  0  0  0
    7.1126    9.6299    3.9179 N   0  0  0  0  0  0  0  0  0  0  0  0
    5.8159   10.2347    3.6729 C   0  0  0  0  0  0  0  0  0  0  0  0
    4.6506    9.2673    3.8303 C   0  0  0  0  0  0  0  0  0  0  0  0
    3.5165    9.3945    2.8515 C   0  0  0  0  0  0  0  0  0  0  0  0
    2.5294    8.3552    3.3585 C   0  0  0  0  0  0  0  0  0  0  0  0
    3.3722    7.2636    4.0385 C   0  0  0  0  0  0  0  0  0  0  0  0
    4.7967    7.8134    4.1887 C   0  0  0  0  0  0  0  0  0  0  0  0
   10.3991   10.1442    3.0092 C   0  0  0  0  0  0  0  0  0  0  0  0
   11.8348    9.7175    3.3059 C   0  0  0  0  0  0  0  0  0  0  0  0
   13.2938    6.9113    0.3376 H   0  0  0  0  0  0  0  0  0  0  0  0
   13.9929    6.2225    1.8655 H   0  0  0  0  0  0  0  0  0  0  0  0
   15.0019    7.2144    0.7484 H   0  0  0  0  0  0  0  0  0  0  0  0
   13.3810    9.1015    1.1490 H   0  0  0  0  0  0  0  0  0  0  0  0
   15.5303    9.0580    2.0963 H   0  0  0  0  0  0  0  0  0  0  0  0
   15.0018    8.1904    3.4559 H   0  0  0  0  0  0  0  0  0  0  0  0
   14.4947    9.7899    3.1981 H   0  0  0  0  0  0  0  0  0  0  0  0
   12.6680    7.8418    3.7074 H   0  0  0  0  0  0  0  0  0  0  0  0
   11.0136    6.5964    3.2516 H   0  0  0  0  0  0  0  0  0  0  0  0
   11.4541    6.6684    1.5470 H   0  0  0  0  0  0  0  0  0  0  0  0
    9.8483    8.3480    1.0637 H   0  0  0  0  0  0  0  0  0  0  0  0
    9.0514    7.0978    2.0793 H   0  0  0  0  0  0  0  0  0  0  0  0
    9.4725    8.5381    4.1313 H   0  0  0  0  0  0  0  0  0  0  0  0
    7.3716    9.3461    4.8896 H   0  0  0  0  0  0  0  0  0  0  0  0
    5.7068   11.0980    4.3687 H   0  0  0  0  0  0  0  0  0  0  0  0
    5.7709   10.6959    2.6629 H   0  0  0  0  0  0  0  0  0  0  0  0
    4.1956    9.6669    4.7735 H   0  0  0  0  0  0  0  0  0  0  0  0
    3.8660    9.1311    1.8288 H   0  0  0  0  0  0  0  0  0  0  0  0
    3.0715   10.4140    2.8542 H   0  0  0  0  0  0  0  0  0  0  0  0
    1.9294    7.9380    2.5211 H   0  0  0  0  0  0  0  0  0  0  0  0
    1.8420    8.8191    4.1006 H   0  0  0  0  0  0  0  0  0  0  0  0
    3.3843    6.3415    3.4172 H   0  0  0  0  0  0  0  0  0  0  0  0
    2.9451    7.0165    5.0350 H   0  0  0  0  0  0  0  0  0  0  0  0
    5.4779    7.3176    3.4630 H   0  0  0  0  0  0  0  0  0  0  0  0
    5.1854    7.6744    5.2221 H   0  0  0  0  0  0  0  0  0  0  0  0
   10.3569   10.5802    1.9852 H   0  0  0  0  0  0  0  0  0  0  0  0
   10.1024   10.9444    3.7234 H   0  0  0  0  0  0  0  0  0  0  0  0
   12.4777   10.5256    2.8987 H   0  0  0  0  0  0  0  0  0  0  0  0
   11.9688    9.7495    4.4116 H   0  0  0  0  0  0  0  0  0  0  0  0
  1  2  1  0
  2  3  1  0
  2  4  1  0
  4  5  1  0
  5  6  1  0
  6  7  1  0
  7  8  1  0
  8  9  2  0
  8 10  1  0
 10 11  1  0
 11 12  1  0
 12 13  1  0
 13 14  1  0
 14 15  1  0
 15 16  1  0
  7 17  1  0
 17 18  1  0
 18  4  1  0
 16 12  1  0
  1 19  1  0
  1 20  1  0
  1 21  1  0
  2 22  1  0
  3 23  1  0
  3 24  1  0
  3 25  1  0
  4 26  1  0
  5 27  1  0
  5 28  1  0
  6 29  1  0
  6 30  1  0
  7 31  1  0
 10 32  1  0
 11 33  1  0
 11 34  1  0
 12 35  1  0
 13 36  1  0
 13 37  1  0
 14 38  1  0
 14 39  1  0
 15 40  1  0
 15 41  1  0
 16 42  1  0
 16 43  1  0
 17 44  1  0
 17 45  1  0
 18 46  1  0
 18 47  1  0
M  CHG  1   3   1
M  END
>  <EmbedRMS>  (4) 
0.2701286003923815

$$$$

     RDKit          3D

 48 48  0  0  0  0  0  0  0  0999 V2000
    5.2994    5.1390    1.2378 C   0  0  0  0  0  0  0  0  0  0  0  0
    4.2448    6.1476    1.1305 N   0  0  0  0  0  0  0  0  0  0  0  0
    4.0869    6.8879    2.3900 C   0  0  0  0  0  0  0  0  0  0  0  0
    5.0114    8.1055    2.4462 C   0  0  0  0  0  0  0  0  0  0  0  0
    4.8909    8.8199    3.7940 C   0  0  0  0  0  0  0  0  0  0  0  0
    5.8069   10.0460    3.8918 C   0  0  0  0  0  0  0  0  0  0  0  0
    7.2262    9.6583    3.9296 N   0  0  0  0  0  0  0  0  0  0  0  0
    7.9947    9.5501    2.7183 C   0  0  0  0  0  0  0  0  0  0  0  0
    7.4276    9.7339    1.6141 O   0  0  0  0  0  0  0  0  0  0  0  0
    9.4540    9.2171    2.6324 C   0  0  0  0  0  0  0  0  0  0  0  0
    9.7323    7.7445    2.3756 C   0  0  0  0  0  0  0  0  0  0  0  0
   11.1965    7.3492    2.5386 C   0  0  0  0  0  0  0  0  0  0  0  0
   12.1823    8.5075    2.2953 C   0  0  0  0  0  0  0  0  0  0  0  0
   13.6460    7.9615    2.3848 C   0  0  0  0  0  0  0  0  0  0  0  0
   14.0278    7.2292    1.0856 C   0  0  0  0  0  0  0  0  0  0  0  0
   14.6276    9.0232    2.6470 N   0  0  0  0  0  4  0  0  0  0  0  0
   11.8976    9.6365    3.3182 C   0  0  0  0  0  0  0  0  0  0  0  0
   10.4207   10.0743    3.4261 C   0  0  0  0  0  0  0  0  0  0  0  0
    6.2813    5.6049    1.4682 H   0  0  0  0  0  0  0  0  0  0  0  0
    5.3894    4.6001    0.2712 H   0  0  0  0  0  0  0  0  0  0  0  0
    5.0440    4.3916    2.0195 H   0  0  0  0  0  0  0  0  0  0  0  0
    4.4758    6.7985    0.3433 H   0  0  0  0  0  0  0  0  0  0  0  0
    4.2558    6.2276    3.2714 H   0  0  0  0  0  0  0  0  0  0  0  0
    3.0349    7.2404    2.4515 H   0  0  0  0  0  0  0  0  0  0  0  0
    4.7577    8.8099    1.6237 H   0  0  0  0  0  0  0  0  0  0  0  0
    6.0510    7.7471    2.3160 H   0  0  0  0  0  0  0  0  0  0  0  0
    3.8398    9.1547    3.9346 H   0  0  0  0  0  0  0  0  0  0  0  0
    5.1401    8.1163    4.6188 H   0  0  0  0  0  0  0  0  0  0  0  0
    5.5654   10.5843    4.8336 H   0  0  0  0  0  0  0  0  0  0  0  0
    5.6087   10.7543    3.0579 H   0  0  0  0  0  0  0  0  0  0  0  0
    7.6817    9.4625    4.8488 H   0  0  0  0  0  0  0  0  0  0  0  0
    9.7173    9.6196    1.6222 H   0  0  0  0  0  0  0  0  0  0  0  0
    9.1272    7.1365    3.0842 H   0  0  0  0  0  0  0  0  0  0  0  0
    9.3871    7.4676    1.3523 H   0  0  0  0  0  0  0  0  0  0  0  0
   11.3948    6.5010    1.8528 H   0  0  0  0  0  0  0  0  0  0  0  0
   11.3439    6.9662    3.5737 H   0  0  0  0  0  0  0  0  0  0  0  0
   12.0128    8.9219    1.2758 H   0  0  0  0  0  0  0  0  0  0  0  0
   13.7140    7.2265    3.2197 H   0  0  0  0  0  0  0  0  0  0  0  0
   13.9579    7.9161    0.2152 H   0  0  0  0  0  0  0  0  0  0  0  0
   15.0709    6.8535    1.1517 H   0  0  0  0  0  0  0  0  0  0  0  0
   13.3801    6.3493    0.9041 H   0  0  0  0  0  0  0  0  0  0  0  0
   14.5154    9.3978    3.6161 H   0  0  0  0  0  0  0  0  0  0  0  0
   15.5992    8.6405    2.5844 H   0  0  0  0  0  0  0  0  0  0  0  0
   14.5267    9.7966    1.9497 H   0  0  0  0  0  0  0  0  0  0  0  0
   12.2345    9.2994    4.3240 H   0  0  0  0  0  0  0  0  0  0  0  0
   12.4979   10.5333    3.0530 H   0  0  0  0  0  0  0  0  0  0  0  0
   10.3207   11.1415    3.1207 H   0  0  0  0  0  0  0  0  0  0  0  0
   10.1206   10.0285    4.4954 H   0  0  0  0  0  0  0  0  0  0  0  0
  1  2  1  0
  2  3  1  0
  3  4  1  0
  4  5  1  0
  5  6  1  0
  6  7  1  0
  7  8  1  0
  8  9  2  0
  8 10  1  0
 10 11  1  0
 11 12  1  0
 12 13  1  0
 13 14  1  0
 14 15  1  0
 14 16  1  0
 13 17  1  0
 17 18  1  0
 18 10  1  0
  1 19  1  0
  1 20  1  0
  1 21  1  0
  2 22  1  0
  3 23  1  0
  3 24  1  0
  4 25  1  0
  4 26  1  0
  5 27  1  0
  5 28  1  0
  6 29  1  0
  6 30  1  0
  7 31  1  0
 10 32  1  0
 11 33  1  0
 11 34  1  0
 12 35  1  0
 12 36  1  0
 13 37  1  0
 14 38  1  0
 15 39  1  0
 15 40  1  0
 15 41  1  0
 16 42  1  0
 16 43  1  0
 16 44  1  0
 17 45  1  0
 17 46  1  0
 18 47  1  0
 18 48  1  0
M  CHG  1  16   1
M  END
>  <EmbedRMS>  (5) 
0.18077726466616018

$$$$

     RDKit          3D

 47 48  0  0  0  0  0  0  0  0999 V2000
   14.0273    7.0396    1.2341 C   0  0  0  0  0  0  0  0  0  0  0  0
   13.6687    8.3363    1.9396 C   0  0  0  0  0  0  0  0  0  0  0  0
   14.6133    8.7685    2.9619 N   0  0  0  0  0  4  0  0  0  0  0  0
   12.1573    8.5898    2.2125 C   0  0  0  0  0  0  0  0  0  0  0  0
   11.2399    7.3774    2.4534 C   0  0  0  0  0  0  0  0  0  0  0  0
    9.7875    7.8248    2.2157 C   0  0  0  0  0  0  0  0  0  0  0  0
    9.4115    8.9848    3.1573 C   0  0  0  0  0  0  0  0  0  0  0  0
    8.0157    9.4673    2.8810 C   0  0  0  0  0  0  0  0  0  0  0  0
    7.6296    9.6767    1.6957 O   0  0  0  0  0  0  0  0  0  0  0  0
    7.1389    9.7194    3.9836 N   0  0  0  0  0  0  0  0  0  0  0  0
    5.7525   10.1231    3.8031 C   0  0  0  0  0  0  0  0  0  0  0  0
    4.9189    8.9328    3.3313 C   0  0  0  0  0  0  0  0  0  0  0  0
    3.4585    9.3437    3.1194 C   0  0  0  0  0  0  0  0  0  0  0  0
    2.5975    9.7798    4.3070 C   0  0  0  0  0  0  0  0  0  0  0  0
    3.1480   10.0021    1.7983 C   0  0  0  0  0  0  0  0  0  0  0  0
    2.7318    8.7347    1.9311 C   0  0  0  0  0  0  0  0  0  0  0  0
   10.4069   10.1589    3.0897 C   0  0  0  0  0  0  0  0  0  0  0  0
   11.8562    9.6807    3.2550 C   0  0  0  0  0  0  0  0  0  0  0  0
   13.9073    6.1866    1.9345 H   0  0  0  0  0  0  0  0  0  0  0  0
   15.0822    7.0603    0.8850 H   0  0  0  0  0  0  0  0  0  0  0  0
   13.3759    6.8820    0.3475 H   0  0  0  0  0  0  0  0  0  0  0  0
   13.8822    9.0580    1.1113 H   0  0  0  0  0  0  0  0  0  0  0  0
   15.5894    8.5013    2.6970 H   0  0  0  0  0  0  0  0  0  0  0  0
   14.3776    8.3025    3.8675 H   0  0  0  0  0  0  0  0  0  0  0  0
   14.5967    9.8059    3.0872 H   0  0  0  0  0  0  0  0  0  0  0  0
   11.8015    9.0088    1.2380 H   0  0  0  0  0  0  0  0  0  0  0  0
   11.3705    6.9867    3.4864 H   0  0  0  0  0  0  0  0  0  0  0  0
   11.4615    6.5572    1.7403 H   0  0  0  0  0  0  0  0  0  0  0  0
    9.6565    8.1237    1.1516 H   0  0  0  0  0  0  0  0  0  0  0  0
    9.1120    6.9624    2.4072 H   0  0  0  0  0  0  0  0  0  0  0  0
    9.4437    8.5810    4.1944 H   0  0  0  0  0  0  0  0  0  0  0  0
    7.5117    9.6586    4.9582 H   0  0  0  0  0  0  0  0  0  0  0  0
    5.3571   10.4914    4.7744 H   0  0  0  0  0  0  0  0  0  0  0  0
    5.6965   10.9571    3.0699 H   0  0  0  0  0  0  0  0  0  0  0  0
    5.3574    8.5147    2.3990 H   0  0  0  0  0  0  0  0  0  0  0  0
    4.9544    8.1328    4.1018 H   0  0  0  0  0  0  0  0  0  0  0  0
    1.5229    9.8689    4.0383 H   0  0  0  0  0  0  0  0  0  0  0  0
    2.6923    9.0359    5.1251 H   0  0  0  0  0  0  0  0  0  0  0  0
    2.9436   10.7668    4.6770 H   0  0  0  0  0  0  0  0  0  0  0  0
    2.3390   10.7650    1.8290 H   0  0  0  0  0  0  0  0  0  0  0  0
    4.0166   10.1381    1.1164 H   0  0  0  0  0  0  0  0  0  0  0  0
    3.3138    7.9869    1.3489 H   0  0  0  0  0  0  0  0  0  0  0  0
    1.6331    8.6134    2.0523 H   0  0  0  0  0  0  0  0  0  0  0  0
   10.3030   10.6865    2.1149 H   0  0  0  0  0  0  0  0  0  0  0  0
   10.1740   10.8896    3.8951 H   0  0  0  0  0  0  0  0  0  0  0  0
   12.5092   10.5640    3.0951 H   0  0  0  0  0  0  0  0  0  0  0  0
   12.0220    9.2947    4.2847 H   0  0  0  0  0  0  0  0  0  0  0  0
  1  2  1  0
  2  3  1  0
  2  4  1  0
  4  5  1  0
  5  6  1  0
  6  7  1  0
  7  8  1  0
  8  9  2  0
  8 10  1  0
 10 11  1  0
 11 12  1  0
 12 13  1  0
 13 14  1  0
 13 15  1  0
 15 16  1  0
  7 17  1  0
 17 18  1  0
 18  4  1  0
 16 13  1  0
  1 19  1  0
  1 20  1  0
  1 21  1  0
  2 22  1  0
  3 23  1  0
  3 24  1  0
  3 25  1  0
  4 26  1  0
  5 27  1  0
  5 28  1  0
  6 29  1  0
  6 30  1  0
  7 31  1  0
 10 32  1  0
 11 33  1  0
 11 34  1  0
 12 35  1  0
 12 36  1  0
 14 37  1  0
 14 38  1  0
 14 39  1  0
 15 40  1  0
 15 41  1  0
 16 42  1  0
 16 43  1  0
 17 44  1  0
 17 45  1  0
 18 46  1  0
 18 47  1  0
M  CHG  1   3   1
M  END
>  <EmbedRMS>  (6) 
0.5113108624362681

$$$$

     RDKit          3D

 34 34  0  0  0  0  0  0  0  0999 V2000
    5.8329   10.1084    3.8848 C   0  0  0  0  0  0  0  0  0  0  0  0
    7.2300    9.6721    3.9456 N   0  0  0  0  0  0  0  0  0  0  0  0
    7.9825    9.5176    2.7336 C   0  0  0  0  0  0  0  0  0  0  0  0
    7.4038    9.6808    1.6309 O   0  0  0  0  0  0  0  0  0  0  0  0
    9.4450    9.1949    2.6523 C   0  0  0  0  0  0  0  0  0  0  0  0
    9.7659    7.7145    2.4310 C   0  0  0  0  0  0  0  0  0  0  0  0
   11.2645    7.3643    2.5394 C   0  0  0  0  0  0  0  0  0  0  0  0
   12.1440    8.5865    2.2316 C   0  0  0  0  0  0  0  0  0  0  0  0
   13.6550    8.3396    1.9330 C   0  0  0  0  0  0  0  0  0  0  0  0
   14.0142    7.0445    1.2245 C   0  0  0  0  0  0  0  0  0  0  0  0
   14.6175    8.7737    2.9400 N   0  0  0  0  0  4  0  0  0  0  0  0
   11.8902    9.6847    3.2842 C   0  0  0  0  0  0  0  0  0  0  0  0
   10.4057   10.0818    3.4290 C   0  0  0  0  0  0  0  0  0  0  0  0
    5.7674   11.1015    3.3922 H   0  0  0  0  0  0  0  0  0  0  0  0
    5.4215   10.1915    4.9127 H   0  0  0  0  0  0  0  0  0  0  0  0
    5.2299    9.3684    3.3173 H   0  0  0  0  0  0  0  0  0  0  0  0
    7.6848    9.4991    4.8697 H   0  0  0  0  0  0  0  0  0  0  0  0
    9.6804    9.5858    1.6329 H   0  0  0  0  0  0  0  0  0  0  0  0
    9.2153    7.1145    3.1879 H   0  0  0  0  0  0  0  0  0  0  0  0
    9.3849    7.3947    1.4340 H   0  0  0  0  0  0  0  0  0  0  0  0
   11.4945    7.0012    3.5653 H   0  0  0  0  0  0  0  0  0  0  0  0
   11.4746    6.5314    1.8369 H   0  0  0  0  0  0  0  0  0  0  0  0
   11.7511    8.9795    1.2646 H   0  0  0  0  0  0  0  0  0  0  0  0
   13.8453    9.0650    1.1029 H   0  0  0  0  0  0  0  0  0  0  0  0
   15.0594    7.0787    0.8480 H   0  0  0  0  0  0  0  0  0  0  0  0
   13.3413    6.8737    0.3566 H   0  0  0  0  0  0  0  0  0  0  0  0
   13.9245    6.1932    1.9314 H   0  0  0  0  0  0  0  0  0  0  0  0
   15.5929    8.5546    2.6319 H   0  0  0  0  0  0  0  0  0  0  0  0
   14.5663    9.8048    3.1021 H   0  0  0  0  0  0  0  0  0  0  0  0
   14.4328    8.2662    3.8350 H   0  0  0  0  0  0  0  0  0  0  0  0
   12.2711    9.3420    4.2714 H   0  0  0  0  0  0  0  0  0  0  0  0
   12.4559   10.5993    3.0033 H   0  0  0  0  0  0  0  0  0  0  0  0
   10.1327   10.0263    4.5050 H   0  0  0  0  0  0  0  0  0  0  0  0
   10.2681   11.1447    3.1242 H   0  0  0  0  0  0  0  0  0  0  0  0
  1  2  1  0
  2  3  1  0
  3  4  2  0
  3  5  1  0
  5  6  1  0
  6  7  1  0
  7  8  1  0
  8  9  1  0
  9 10  1  0
  9 11  1  0
  8 12  1  0
 12 13  1  0
 13  5  1  0
  1 14  1  0
  1 15  1  0
  1 16  1  0
  2 17  1  0
  5 18  1  0
  6 19  1  0
  6 20  1  0
  7 21  1  0
  7 22  1  0
  8 23  1  0
  9 24  1  0
 10 25  1  0
 10 26  1  0
 10 27  1  0
 11 28  1  0
 11 29  1  0
 11 30  1  0
 12 31  1  0
 12 32  1  0
 13 33  1  0
 13 34  1  0
M  CHG  1  11   1
M  END
>  <EmbedRMS>  (7) 
0.29639754771625826

$$$$

     RDKit          3D

 41 42  0  0  0  0  0  0  0  0999 V2000
   14.0109    7.0505    1.2529 C   0  0  0  0  0  0  0  0  0  0  0  0
   13.6000    8.3243    1.9898 C   0  0  0  0  0  0  0  0  0  0  0  0
   14.7019    8.8917    2.7696 N   0  0  0  0  0  4  0  0  0  0  0  0
   12.2605    8.3271    2.7671 C   0  0  0  0  0  0  0  0  0  0  0  0
   11.1785    7.4395    2.1349 C   0  0  0  0  0  0  0  0  0  0  0  0
    9.7432    7.7263    2.5442 C   0  0  0  0  0  0  0  0  0  0  0  0
    9.4482    9.2019    2.6357 C   0  0  0  0  0  0  0  0  0  0  0  0
    7.9857    9.5270    2.7205 C   0  0  0  0  0  0  0  0  0  0  0  0
    7.4186    9.6974    1.6150 O   0  0  0  0  0  0  0  0  0  0  0  0
    7.2173    9.6610    3.9285 N   0  0  0  0  0  0  0  0  0  0  0  0
    5.8051   10.0668    3.8696 C   0  0  0  0  0  0  0  0  0  0  0  0
    4.9473    8.9318    3.3881 C   0  0  0  0  0  0  0  0  0  0  0  0
    4.5374    7.9336    4.1975 N   0  0  0  0  0  0  0  0  0  0  0  0
    3.8551    7.1066    3.3812 C   0  0  0  0  0  0  0  0  0  0  0  0
    3.8698    7.6106    2.0999 C   0  0  0  0  0  0  0  0  0  0  0  0
    4.5599    8.7620    2.1073 N   0  0  0  0  0  0  0  0  0  0  0  0
   10.3838   10.0200    3.4820 C   0  0  0  0  0  0  0  0  0  0  0  0
   11.8483    9.7806    3.1213 C   0  0  0  0  0  0  0  0  0  0  0  0
   13.2668    6.7642    0.4816 H   0  0  0  0  0  0  0  0  0  0  0  0
   14.1169    6.2178    1.9796 H   0  0  0  0  0  0  0  0  0  0  0  0
   14.9824    7.1930    0.7333 H   0  0  0  0  0  0  0  0  0  0  0  0
   13.4359    9.0284    1.1409 H   0  0  0  0  0  0  0  0  0  0  0  0
   15.5914    8.8673    2.2197 H   0  0  0  0  0  0  0  0  0  0  0  0
   14.5195    9.8922    3.0077 H   0  0  0  0  0  0  0  0  0  0  0  0
   14.8375    8.3415    3.6485 H   0  0  0  0  0  0  0  0  0  0  0  0
   12.4678    7.8406    3.7470 H   0  0  0  0  0  0  0  0  0  0  0  0
   11.4049    6.3668    2.3242 H   0  0  0  0  0  0  0  0  0  0  0  0
   11.2124    7.5911    1.0338 H   0  0  0  0  0  0  0  0  0  0  0  0
    9.0528    7.2359    1.8215 H   0  0  0  0  0  0  0  0  0  0  0  0
    9.5598    7.2714    3.5421 H   0  0  0  0  0  0  0  0  0  0  0  0
    9.7214    9.5597    1.6119 H   0  0  0  0  0  0  0  0  0  0  0  0
    7.6779    9.5163    4.8547 H   0  0  0  0  0  0  0  0  0  0  0  0
    5.6869   10.9518    3.2077 H   0  0  0  0  0  0  0  0  0  0  0  0
    5.4674   10.3617    4.8861 H   0  0  0  0  0  0  0  0  0  0  0  0
    3.3801    6.1889    3.7007 H   0  0  0  0  0  0  0  0  0  0  0  0
    3.4111    7.1698    1.2248 H   0  0  0  0  0  0  0  0  0  0  0  0
    4.7525    9.3858    1.2926 H   0  0  0  0  0  0  0  0  0  0  0  0
   10.1466   11.1031    3.3854 H   0  0  0  0  0  0  0  0  0  0  0  0
   10.2296    9.7357    4.5457 H   0  0  0  0  0  0  0  0  0  0  0  0
   12.4690   10.1521    3.9656 H   0  0  0  0  0  0  0  0  0  0  0  0
   12.0645   10.4405    2.2521 H   0  0  0  0  0  0  0  0  0  0  0  0
  1  2  1  0
  2  3  1  0
  2  4  1  0
  4  5  1  0
  5  6  1  0
  6  7  1  0
  7  8  1  0
  8  9  2  0
  8 10  1  0
 10 11  1  0
 11 12  1  0
 12 13  2  0
 13 14  1  0
 14 15  2  0
 15 16  1  0
  7 17  1  0
 17 18  1  0
 18  4  1  0
 16 12  1  0
  1 19  1  0
  1 20  1  0
  1 21  1  0
  2 22  1  0
  3 23  1  0
  3 24  1  0
  3 25  1  0
  4 26  1  0
  5 27  1  0
  5 28  1  0
  6 29  1  0
  6 30  1  0
  7 31  1  0
 10 32  1  0
 11 33  1  0
 11 34  1  0
 14 35  1  0
 15 36  1  0
 16 37  1  0
 17 38  1  0
 17 39  1  0
 18 40  1  0
 18 41  1  0
M  CHG  1   3   1
M  END
>  <EmbedRMS>  (8) 
0.29341778330362633

$$$$

     RDKit          3D

 41 41  0  0  0  0  0  0  0  0999 V2000
   14.0115    7.0506    1.2528 C   0  0  0  0  0  0  0  0  0  0  0  0
   13.6007    8.3244    1.9897 C   0  0  0  0  0  0  0  0  0  0  0  0
   14.7026    8.8917    2.7697 N   0  0  0  0  0  4  0  0  0  0  0  0
   12.2613    8.3272    2.7670 C   0  0  0  0  0  0  0  0  0  0  0  0
   11.1798    7.4395    2.1343 C   0  0  0  0  0  0  0  0  0  0  0  0
    9.7449    7.7260    2.5438 C   0  0  0  0  0  0  0  0  0  0  0  0
    9.4498    9.2016    2.6348 C   0  0  0  0  0  0  0  0  0  0  0  0
    7.9883    9.5247    2.7224 C   0  0  0  0  0  0  0  0  0  0  0  0
    7.4124    9.6708    1.6173 O   0  0  0  0  0  0  0  0  0  0  0  0
    7.2314    9.6900    3.9341 N   0  0  0  0  0  0  0  0  0  0  0  0
    5.8391   10.1600    3.8802 C   0  0  0  0  0  0  0  0  0  0  0  0
    5.7848   11.6424    3.4802 C   0  0  0  0  0  0  0  0  0  0  0  0
    4.4046   12.0986    3.3235 N   0  0  0  0  0  0  0  0  0  0  0  0
    4.0979   13.4521    2.9752 C   0  0  0  0  0  0  0  0  0  0  0  0
    5.0150   14.2987    2.8019 O   0  0  0  0  0  0  0  0  0  0  0  0
   10.3846   10.0200    3.4814 C   0  0  0  0  0  0  0  0  0  0  0  0
   11.8491    9.7807    3.1212 C   0  0  0  0  0  0  0  0  0  0  0  0
   14.9833    7.1928    0.7338 H   0  0  0  0  0  0  0  0  0  0  0  0
   14.1168    6.2176    1.9793 H   0  0  0  0  0  0  0  0  0  0  0  0
   13.2678    6.7648    0.4810 H   0  0  0  0  0  0  0  0  0  0  0  0
   13.4367    9.0286    1.1409 H   0  0  0  0  0  0  0  0  0  0  0  0
   15.5920    8.8676    2.2197 H   0  0  0  0  0  0  0  0  0  0  0  0
   14.5201    9.8921    3.0081 H   0  0  0  0  0  0  0  0  0  0  0  0
   14.8383    8.3412    3.6484 H   0  0  0  0  0  0  0  0  0  0  0  0
   12.4685    7.8405    3.7468 H   0  0  0  0  0  0  0  0  0  0  0  0
   11.4064    6.3669    2.3233 H   0  0  0  0  0  0  0  0  0  0  0  0
   11.2136    7.5916    1.0333 H   0  0  0  0  0  0  0  0  0  0  0  0
    9.5620    7.2714    3.5419 H   0  0  0  0  0  0  0  0  0  0  0  0
    9.0548    7.2351    1.8212 H   0  0  0  0  0  0  0  0  0  0  0  0
    9.7207    9.5606    1.6108 H   0  0  0  0  0  0  0  0  0  0  0  0
    7.6691    9.4627    4.8547 H   0  0  0  0  0  0  0  0  0  0  0  0
    5.2621    9.5419    3.1581 H   0  0  0  0  0  0  0  0  0  0  0  0
    5.3740   10.0392    4.8825 H   0  0  0  0  0  0  0  0  0  0  0  0
    6.3234   11.8023    2.5228 H   0  0  0  0  0  0  0  0  0  0  0  0
    6.2851   12.2470    4.2676 H   0  0  0  0  0  0  0  0  0  0  0  0
    3.6094   11.4357    3.4671 H   0  0  0  0  0  0  0  0  0  0  0  0
    3.0657   13.7552    2.8606 H   0  0  0  0  0  0  0  0  0  0  0  0
   10.1471   11.1031    3.3845 H   0  0  0  0  0  0  0  0  0  0  0  0
   10.2299    9.7359    4.5451 H   0  0  0  0  0  0  0  0  0  0  0  0
   12.4695   10.1520    3.9658 H   0  0  0  0  0  0  0  0  0  0  0  0
   12.0655   10.4407    2.2522 H   0  0  0  0  0  0  0  0  0  0  0  0
  1  2  1  0
  2  3  1  0
  2  4  1  0
  4  5  1  0
  5  6  1  0
  6  7  1  0
  7  8  1  0
  8  9  2  0
  8 10  1  0
 10 11  1  0
 11 12  1  0
 12 13  1  0
 13 14  1  0
 14 15  2  0
  7 16  1  0
 16 17  1  0
 17  4  1  0
  1 18  1  0
  1 19  1  0
  1 20  1  0
  2 21  1  0
  3 22  1  0
  3 23  1  0
  3 24  1  0
  4 25  1  0
  5 26  1  0
  5 27  1  0
  6 28  1  0
  6 29  1  0
  7 30  1  0
 10 31  1  0
 11 32  1  0
 11 33  1  0
 12 34  1  0
 12 35  1  0
 13 36  1  0
 14 37  1  0
 16 38  1  0
 16 39  1  0
 17 40  1  0
 17 41  1  0
M  CHG  1   3   1
M  END
>  <EmbedRMS>  (9) 
0.30207850723488733

$$$$

     RDKit          3D

 44 45  0  0  0  0  0  0  0  0999 V2000
   14.0582    7.2196    1.1031 C   0  0  0  0  0  0  0  0  0  0  0  0
   13.6612    7.9545    2.3986 C   0  0  0  0  0  0  0  0  0  0  0  0
   14.6376    9.0170    2.6692 N   0  0  0  0  0  4  0  0  0  0  0  0
   12.2125    8.5069    2.2757 C   0  0  0  0  0  0  0  0  0  0  0  0
   11.2015    7.3548    2.4435 C   0  0  0  0  0  0  0  0  0  0  0  0
    9.7971    7.8513    2.1614 C   0  0  0  0  0  0  0  0  0  0  0  0
    9.4352    8.9745    3.1346 C   0  0  0  0  0  0  0  0  0  0  0  0
    8.0611    9.4477    2.8339 C   0  0  0  0  0  0  0  0  0  0  0  0
    7.7073    9.6603    1.6389 O   0  0  0  0  0  0  0  0  0  0  0  0
    7.1453    9.6556    3.8969 N   0  0  0  0  0  0  0  0  0  0  0  0
    5.8786   10.2650    3.5942 C   0  0  0  0  0  0  0  0  0  0  0  0
    4.7348    9.3232    3.8084 C   0  0  0  0  0  0  0  0  0  0  0  0
    3.4975    9.5296    3.0063 C   0  0  0  0  0  0  0  0  0  0  0  0
    2.4405    9.1482    3.9245 N   0  0  0  0  0  0  0  0  0  0  0  0
    2.8949    7.9382    4.6434 C   0  0  0  0  0  0  0  0  0  0  0  0
    4.7208    7.6697    4.4663 S   0  0  0  0  0  0  0  0  0  0  0  0
   10.4375   10.1380    3.0672 C   0  0  0  0  0  0  0  0  0  0  0  0
   11.8714    9.6339    3.2824 C   0  0  0  0  0  0  0  0  0  0  0  0
   15.1078    6.8636    1.1750 H   0  0  0  0  0  0  0  0  0  0  0  0
   13.9813    7.8966    0.2255 H   0  0  0  0  0  0  0  0  0  0  0  0
   13.4324    6.3229    0.9279 H   0  0  0  0  0  0  0  0  0  0  0  0
   13.7072    7.2237    3.2385 H   0  0  0  0  0  0  0  0  0  0  0  0
   14.5065    9.3937    3.6355 H   0  0  0  0  0  0  0  0  0  0  0  0
   14.5489    9.7877    1.9670 H   0  0  0  0  0  0  0  0  0  0  0  0
   15.6100    8.6337    2.6261 H   0  0  0  0  0  0  0  0  0  0  0  0
   12.0964    8.9395    1.2550 H   0  0  0  0  0  0  0  0  0  0  0  0
   11.2572    6.9345    3.4727 H   0  0  0  0  0  0  0  0  0  0  0  0
   11.4068    6.5307    1.7320 H   0  0  0  0  0  0  0  0  0  0  0  0
    9.0852    7.0049    2.2845 H   0  0  0  0  0  0  0  0  0  0  0  0
    9.7391    8.2016    1.1060 H   0  0  0  0  0  0  0  0  0  0  0  0
    9.4547    8.5563    4.1666 H   0  0  0  0  0  0  0  0  0  0  0  0
    7.3905    9.4166    4.8843 H   0  0  0  0  0  0  0  0  0  0  0  0
    5.8024   11.2136    4.1831 H   0  0  0  0  0  0  0  0  0  0  0  0
    5.8274   10.6271    2.5454 H   0  0  0  0  0  0  0  0  0  0  0  0
    4.4879    9.7930    4.7964 H   0  0  0  0  0  0  0  0  0  0  0  0
    3.4917    8.8754    2.1072 H   0  0  0  0  0  0  0  0  0  0  0  0
    3.3701   10.5916    2.6986 H   0  0  0  0  0  0  0  0  0  0  0  0
    2.2674    9.9222    4.6108 H   0  0  0  0  0  0  0  0  0  0  0  0
    2.3682    7.0535    4.2291 H   0  0  0  0  0  0  0  0  0  0  0  0
    2.6420    8.0138    5.7235 H   0  0  0  0  0  0  0  0  0  0  0  0
   10.1937   10.8877    3.8516 H   0  0  0  0  0  0  0  0  0  0  0  0
   10.3718   10.6417    2.0767 H   0  0  0  0  0  0  0  0  0  0  0  0
   11.9890    9.2640    4.3250 H   0  0  0  0  0  0  0  0  0  0  0  0
   12.5475   10.5029    3.1397 H   0  0  0  0  0  0  0  0  0  0  0  0
  1  2  1  0
  2  3  1  0
  2  4  1  0
  4  5  1  0
  5  6  1  0
  6  7  1  0
  7  8  1  0
  8  9  2  0
  8 10  1  0
 10 11  1  0
 11 12  1  0
 12 13  1  0
 13 14  1  0
 14 15  1  0
 15 16  1  0
  7 17  1  0
 17 18  1  0
 18  4  1  0
 16 12  1  0
  1 19  1  0
  1 20  1  0
  1 21  1  0
  2 22  1  0
  3 23  1  0
  3 24  1  0
  3 25  1  0
  4 26  1  0
  5 27  1  0
  5 28  1  0
  6 29  1  0
  6 30  1  0
  7 31  1  0
 10 32  1  0
 11 33  1  0
 11 34  1  0
 12 35  1  0
 13 36  1  0
 13 37  1  0
 14 38  1  0
 15 39  1  0
 15 40  1  0
 17 41  1  0
 17 42  1  0
 18 43  1  0
 18 44  1  0
M  CHG  1   3   1
M  END
>  <EmbedRMS>  (10) 
0.20460526756107406

$$$$

     RDKit          3D

 41 41  0  0  0  0  0  0  0  0999 V2000
   14.0115    7.0506    1.2528 C   0  0  0  0  0  0  0  0  0  0  0  0
   13.6007    8.3244    1.9897 C   0  0  0  0  0  0  0  0  0  0  0  0
   14.7026    8.8917    2.7697 N   0  0  0  0  0  4  0  0  0  0  0  0
   12.2613    8.3272    2.7670 C   0  0  0  0  0  0  0  0  0  0  0  0
   11.1798    7.4395    2.1343 C   0  0  0  0  0  0  0  0  0  0  0  0
    9.7449    7.7260    2.5438 C   0  0  0  0  0  0  0  0  0  0  0  0
    9.4498    9.2016    2.6348 C   0  0  0  0  0  0  0  0  0  0  0  0
    7.9883    9.5247    2.7224 C   0  0  0  0  0  0  0  0  0  0  0  0
    7.4124    9.6708    1.6173 O   0  0  0  0  0  0  0  0  0  0  0  0
    7.2314    9.6900    3.9341 N   0  0  0  0  0  0  0  0  0  0  0  0
    5.8391   10.1600    3.8802 C   0  0  0  0  0  0  0  0  0  0  0  0
    5.7848   11.6424    3.4802 C   0  0  0  0  0  0  0  0  0  0  0  0
    4.4046   12.0986    3.3235 N   0  0  0  0  0  0  0  0  0  0  0  0
    4.0979   13.4521    2.9752 C   0  0  0  0  0  0  0  0  0  0  0  0
    5.0150   14.2987    2.8019 O   0  0  0  0  0  0  0  0  0  0  0  0
   10.3846   10.0200    3.4814 C   0  0  0  0  0  0  0  0  0  0  0  0
   11.8491    9.7807    3.1212 C   0  0  0  0  0  0  0  0  0  0  0  0
   14.9833    7.1928    0.7338 H   0  0  0  0  0  0  0  0  0  0  0  0
   14.1168    6.2176    1.9793 H   0  0  0  0  0  0  0  0  0  0  0  0
   13.2678    6.7648    0.4810 H   0  0  0  0  0  0  0  0  0  0  0  0
   13.4367    9.0286    1.1409 H   0  0  0  0  0  0  0  0  0  0  0  0
   15.5920    8.8676    2.2197 H   0  0  0  0  0  0  0  0  0  0  0  0
   14.5201    9.8921    3.0081 H   0  0  0  0  0  0  0  0  0  0  0  0
   14.8383    8.3412    3.6484 H   0  0  0  0  0  0  0  0  0  0  0  0
   12.4685    7.8405    3.7468 H   0  0  0  0  0  0  0  0  0  0  0  0
   11.4064    6.3669    2.3233 H   0  0  0  0  0  0  0  0  0  0  0  0
   11.2136    7.5916    1.0333 H   0  0  0  0  0  0  0  0  0  0  0  0
    9.5620    7.2714    3.5419 H   0  0  0  0  0  0  0  0  0  0  0  0
    9.0548    7.2351    1.8212 H   0  0  0  0  0  0  0  0  0  0  0  0
    9.7207    9.5606    1.6108 H   0  0  0  0  0  0  0  0  0  0  0  0
    7.6691    9.4627    4.8547 H   0  0  0  0  0  0  0  0  0  0  0  0
    5.2621    9.5419    3.1581 H   0  0  0  0  0  0  0  0  0  0  0  0
    5.3740   10.0392    4.8825 H   0  0  0  0  0  0  0  0  0  0  0  0
    6.3234   11.8023    2.5228 H   0  0  0  0  0  0  0  0  0  0  0  0
    6.2851   12.2470    4.2676 H   0  0  0  0  0  0  0  0  0  0  0  0
    3.6094   11.4357    3.4671 H   0  0  0  0  0  0  0  0  0  0  0  0
    3.0657   13.7552    2.8606 H   0  0  0  0  0  0  0  0  0  0  0  0
   10.1471   11.1031    3.3845 H   0  0  0  0  0  0  0  0  0  0  0  0
   10.2299    9.7359    4.5451 H   0  0  0  0  0  0  0  0  0  0  0  0
   12.4695   10.1520    3.9658 H   0  0  0  0  0  0  0  0  0  0  0  0
   12.0655   10.4407    2.2522 H   0  0  0  0  0  0  0  0  0  0  0  0
  1  2  1  0
  2  3  1  0
  2  4  1  0
  4  5  1  0
  5  6  1  0
  6  7  1  0
  7  8  1  0
  8  9  2  0
  8 10  1  0
 10 11  1  0
 11 12  1  0
 12 13  1  0
 13 14  1  0
 14 15  2  0
  7 16  1  0
 16 17  1  0
 17  4  1  0
  1 18  1  0
  1 19  1  0
  1 20  1  0
  2 21  1  0
  3 22  1  0
  3 23  1  0
  3 24  1  0
  4 25  1  0
  5 26  1  0
  5 27  1  0
  6 28  1  0
  6 29  1  0
  7 30  1  0
 10 31  1  0
 11 32  1  0
 11 33  1  0
 12 34  1  0
 12 35  1  0
 13 36  1  0
 14 37  1  0
 16 38  1  0
 16 39  1  0
 17 40  1  0
 17 41  1  0
M  CHG  1   3   1
M  END
>  <EmbedRMS>  (11) 
0.30207850723488733

$$$$

     RDKit          3D

 40 41  0  0  0  0  0  0  0  0999 V2000
   13.9228    7.3284    1.0385 C   0  0  0  0  0  0  0  0  0  0  0  0
   13.7075    7.9210    2.4414 C   0  0  0  0  0  0  0  0  0  0  0  0
   14.6424    9.0269    2.6701 N   0  0  0  0  0  4  0  0  0  0  0  0
   12.2294    8.2934    2.8216 C   0  0  0  0  0  0  0  0  0  0  0  0
   11.1741    7.4157    2.1505 C   0  0  0  0  0  0  0  0  0  0  0  0
    9.7356    7.7231    2.5380 C   0  0  0  0  0  0  0  0  0  0  0  0
    9.4500    9.2029    2.6315 C   0  0  0  0  0  0  0  0  0  0  0  0
    7.9884    9.5360    2.7257 C   0  0  0  0  0  0  0  0  0  0  0  0
    7.4147    9.6914    1.6198 O   0  0  0  0  0  0  0  0  0  0  0  0
    7.2200    9.6887    3.9327 N   0  0  0  0  0  0  0  0  0  0  0  0
    5.8179   10.1209    3.8133 C   0  0  0  0  0  0  0  0  0  0  0  0
    5.1579   10.2598    5.1431 C   0  0  0  0  0  0  0  0  0  0  0  0
    5.1819   11.3879    5.8785 N   0  0  0  0  0  0  0  0  0  0  0  0
    4.4926   11.0189    6.9793 C   0  0  0  0  0  0  0  0  0  0  0  0
    4.0734    9.7394    6.9200 N   0  0  0  0  0  0  0  0  0  0  0  0
    4.4959    9.2707    5.7615 N   0  0  0  0  0  0  0  0  0  0  0  0
   10.4245   10.0506    3.4178 C   0  0  0  0  0  0  0  0  0  0  0  0
   11.8788    9.7841    2.9973 C   0  0  0  0  0  0  0  0  0  0  0  0
   13.5731    8.0449    0.2655 H   0  0  0  0  0  0  0  0  0  0  0  0
   14.9999    7.1185    0.8655 H   0  0  0  0  0  0  0  0  0  0  0  0
   13.3783    6.3678    0.9249 H   0  0  0  0  0  0  0  0  0  0  0  0
   14.0113    7.0969    3.1299 H   0  0  0  0  0  0  0  0  0  0  0  0
   15.6232    8.7091    2.4922 H   0  0  0  0  0  0  0  0  0  0  0  0
   14.5985    9.3365    3.6676 H   0  0  0  0  0  0  0  0  0  0  0  0
   14.4330    9.8276    2.0311 H   0  0  0  0  0  0  0  0  0  0  0  0
   12.1630    7.9502    3.8813 H   0  0  0  0  0  0  0  0  0  0  0  0
   11.3809    6.3424    2.3585 H   0  0  0  0  0  0  0  0  0  0  0  0
   11.2461    7.5643    1.0514 H   0  0  0  0  0  0  0  0  0  0  0  0
    9.0504    7.2401    1.8054 H   0  0  0  0  0  0  0  0  0  0  0  0
    9.5322    7.2696    3.5326 H   0  0  0  0  0  0  0  0  0  0  0  0
    9.7013    9.5355    1.5935 H   0  0  0  0  0  0  0  0  0  0  0  0
    7.6671    9.5283    4.8635 H   0  0  0  0  0  0  0  0  0  0  0  0
    5.7761   11.1007    3.2898 H   0  0  0  0  0  0  0  0  0  0  0  0
    5.2525    9.3800    3.2074 H   0  0  0  0  0  0  0  0  0  0  0  0
    4.2995   11.6765    7.8161 H   0  0  0  0  0  0  0  0  0  0  0  0
    4.3382    8.2981    5.4159 H   0  0  0  0  0  0  0  0  0  0  0  0
   10.3104    9.8093    4.4969 H   0  0  0  0  0  0  0  0  0  0  0  0
   10.1922   11.1303    3.2835 H   0  0  0  0  0  0  0  0  0  0  0  0
   12.5387   10.2611    3.7525 H   0  0  0  0  0  0  0  0  0  0  0  0
   12.0562   10.2951    2.0262 H   0  0  0  0  0  0  0  0  0  0  0  0
  1  2  1  0
  2  3  1  0
  2  4  1  0
  4  5  1  0
  5  6  1  0
  6  7  1  0
  7  8  1  0
  8  9  2  0
  8 10  1  0
 10 11  1  0
 11 12  1  0
 12 13  2  0
 13 14  1  0
 14 15  2  0
 15 16  1  0
  7 17  1  0
 17 18  1  0
 18  4  1  0
 16 12  1  0
  1 19  1  0
  1 20  1  0
  1 21  1  0
  2 22  1  0
  3 23  1  0
  3 24  1  0
  3 25  1  0
  4 26  1  0
  5 27  1  0
  5 28  1  0
  6 29  1  0
  6 30  1  0
  7 31  1  0
 10 32  1  0
 11 33  1  0
 11 34  1  0
 14 35  1  0
 16 36  1  0
 17 37  1  0
 17 38  1  0
 18 39  1  0
 18 40  1  0
M  CHG  1   3   1
M  END
>  <EmbedRMS>  (12) 
0.26092352120004825

$$$$

     RDKit          3D

 43 43  0  0  0  0  0  0  0  0999 V2000
    4.9734   11.6477    7.2569 C   0  0  0  0  0  0  0  0  0  0  0  0
    5.6431   11.5097    5.8975 C   0  0  0  0  0  0  0  0  0  0  0  0
    5.0750   10.3068    5.1371 C   0  0  0  0  0  0  0  0  0  0  0  0
    5.7669   10.1280    3.7867 C   0  0  0  0  0  0  0  0  0  0  0  0
    7.1455    9.6852    3.9681 N   0  0  0  0  0  0  0  0  0  0  0  0
    8.0141    9.4667    2.8560 C   0  0  0  0  0  0  0  0  0  0  0  0
    7.6100    9.6889    1.6803 O   0  0  0  0  0  0  0  0  0  0  0  0
    9.4184    8.9877    3.1010 C   0  0  0  0  0  0  0  0  0  0  0  0
    9.8028    7.9215    2.0789 C   0  0  0  0  0  0  0  0  0  0  0  0
   11.1603    7.3113    2.3953 C   0  0  0  0  0  0  0  0  0  0  0  0
   12.2770    8.3212    2.7731 C   0  0  0  0  0  0  0  0  0  0  0  0
   13.5817    8.3572    1.9534 C   0  0  0  0  0  0  0  0  0  0  0  0
   13.9848    7.0988    1.1850 C   0  0  0  0  0  0  0  0  0  0  0  0
   14.7123    8.8837    2.7302 N   0  0  0  0  0  4  0  0  0  0  0  0
   11.8329    9.7187    3.3042 C   0  0  0  0  0  0  0  0  0  0  0  0
   10.3990   10.1509    3.0046 C   0  0  0  0  0  0  0  0  0  0  0  0
    5.3911   12.5283    7.7890 H   0  0  0  0  0  0  0  0  0  0  0  0
    3.8787   11.7934    7.1363 H   0  0  0  0  0  0  0  0  0  0  0  0
    5.1580   10.7417    7.8729 H   0  0  0  0  0  0  0  0  0  0  0  0
    6.7368   11.3948    6.0535 H   0  0  0  0  0  0  0  0  0  0  0  0
    5.4685   12.4394    5.3132 H   0  0  0  0  0  0  0  0  0  0  0  0
    3.9892   10.4689    4.9589 H   0  0  0  0  0  0  0  0  0  0  0  0
    5.1884    9.3786    5.7399 H   0  0  0  0  0  0  0  0  0  0  0  0
    5.7488   11.0847    3.2200 H   0  0  0  0  0  0  0  0  0  0  0  0
    5.2153    9.3631    3.1983 H   0  0  0  0  0  0  0  0  0  0  0  0
    7.5089    9.4851    4.9278 H   0  0  0  0  0  0  0  0  0  0  0  0
    9.4779    8.5435    4.1204 H   0  0  0  0  0  0  0  0  0  0  0  0
    9.0390    7.1119    2.0723 H   0  0  0  0  0  0  0  0  0  0  0  0
    9.8362    8.3610    1.0564 H   0  0  0  0  0  0  0  0  0  0  0  0
   11.0033    6.5984    3.2384 H   0  0  0  0  0  0  0  0  0  0  0  0
   11.4453    6.6789    1.5345 H   0  0  0  0  0  0  0  0  0  0  0  0
   12.6595    7.8393    3.7041 H   0  0  0  0  0  0  0  0  0  0  0  0
   13.3816    9.1014    1.1484 H   0  0  0  0  0  0  0  0  0  0  0  0
   15.0012    7.2120    0.7514 H   0  0  0  0  0  0  0  0  0  0  0  0
   13.9879    6.2216    1.8659 H   0  0  0  0  0  0  0  0  0  0  0  0
   13.2937    6.9115    0.3366 H   0  0  0  0  0  0  0  0  0  0  0  0
   14.9957    8.1895    3.4596 H   0  0  0  0  0  0  0  0  0  0  0  0
   14.4934    9.7898    3.1976 H   0  0  0  0  0  0  0  0  0  0  0  0
   15.5299    9.0534    2.0998 H   0  0  0  0  0  0  0  0  0  0  0  0
   12.4787   10.5258    2.8999 H   0  0  0  0  0  0  0  0  0  0  0  0
   11.9643    9.7484    4.4103 H   0  0  0  0  0  0  0  0  0  0  0  0
   10.1045   10.9519    3.7189 H   0  0  0  0  0  0  0  0  0  0  0  0
   10.3593   10.5878    1.9809 H   0  0  0  0  0  0  0  0  0  0  0  0
  1  2  1  0
  2  3  1  0
  3  4  1  0
  4  5  1  0
  5  6  1  0
  6  7  2  0
  6  8  1  0
  8  9  1  0
  9 10  1  0
 10 11  1  0
 11 12  1  0
 12 13  1  0
 12 14  1  0
 11 15  1  0
 15 16  1  0
 16  8  1  0
  1 17  1  0
  1 18  1  0
  1 19  1  0
  2 20  1  0
  2 21  1  0
  3 22  1  0
  3 23  1  0
  4 24  1  0
  4 25  1  0
  5 26  1  0
  8 27  1  0
  9 28  1  0
  9 29  1  0
 10 30  1  0
 10 31  1  0
 11 32  1  0
 12 33  1  0
 13 34  1  0
 13 35  1  0
 13 36  1  0
 14 37  1  0
 14 38  1  0
 14 39  1  0
 15 40  1  0
 15 41  1  0
 16 42  1  0
 16 43  1  0
M  CHG  1  14   1
M  END
>  <EmbedRMS>  (13) 
0.21476017337867526

$$$$

     RDKit          3D

 42 42  0  0  0  0  0  0  0  0999 V2000
    5.0618    9.9354    5.1491 C   0  0  0  0  0  0  0  0  0  0  0  0
    5.8158   10.1599    3.8400 C   0  0  0  0  0  0  0  0  0  0  0  0
    7.2139    9.6935    3.9307 N   0  0  0  0  0  0  0  0  0  0  0  0
    7.9847    9.5396    2.7234 C   0  0  0  0  0  0  0  0  0  0  0  0
    7.4140    9.6884    1.6154 O   0  0  0  0  0  0  0  0  0  0  0  0
    9.4482    9.2143    2.6403 C   0  0  0  0  0  0  0  0  0  0  0  0
    9.7334    7.7441    2.3734 C   0  0  0  0  0  0  0  0  0  0  0  0
   11.1969    7.3503    2.5406 C   0  0  0  0  0  0  0  0  0  0  0  0
   12.1811    8.5087    2.2958 C   0  0  0  0  0  0  0  0  0  0  0  0
   13.6453    7.9627    2.3850 C   0  0  0  0  0  0  0  0  0  0  0  0
   14.0272    7.2302    1.0859 C   0  0  0  0  0  0  0  0  0  0  0  0
   14.6267    9.0244    2.6472 N   0  0  0  0  0  4  0  0  0  0  0  0
   11.8954    9.6379    3.3185 C   0  0  0  0  0  0  0  0  0  0  0  0
   10.4173   10.0742    3.4292 C   0  0  0  0  0  0  0  0  0  0  0  0
    5.7783   11.6199    3.4647 C   0  0  0  0  0  0  0  0  0  0  0  0
    6.3857   12.4644    4.1771 O   0  0  0  0  0  0  0  0  0  0  0  0
    5.0578   12.0543    2.3067 N   0  0  0  0  0  0  0  0  0  0  0  0
    5.0312   13.3639    1.9613 O   0  0  0  0  0  0  0  0  0  0  0  0
    5.5415   10.4979    5.9788 H   0  0  0  0  0  0  0  0  0  0  0  0
    5.0659    8.8543    5.4041 H   0  0  0  0  0  0  0  0  0  0  0  0
    4.0066   10.2688    5.0474 H   0  0  0  0  0  0  0  0  0  0  0  0
    5.2885    9.5614    3.0643 H   0  0  0  0  0  0  0  0  0  0  0  0
    7.6603    9.5070    4.8568 H   0  0  0  0  0  0  0  0  0  0  0  0
    9.7074    9.6221    1.6311 H   0  0  0  0  0  0  0  0  0  0  0  0
    9.1272    7.1288    3.0745 H   0  0  0  0  0  0  0  0  0  0  0  0
    9.3947    7.4732    1.3463 H   0  0  0  0  0  0  0  0  0  0  0  0
   11.3426    6.9705    3.5772 H   0  0  0  0  0  0  0  0  0  0  0  0
   11.3971    6.5001    1.8577 H   0  0  0  0  0  0  0  0  0  0  0  0
   12.0106    8.9224    1.2762 H   0  0  0  0  0  0  0  0  0  0  0  0
   13.7136    7.2279    3.2200 H   0  0  0  0  0  0  0  0  0  0  0  0
   13.9571    7.9170    0.2155 H   0  0  0  0  0  0  0  0  0  0  0  0
   13.3798    6.3501    0.9044 H   0  0  0  0  0  0  0  0  0  0  0  0
   15.0704    6.8548    1.1521 H   0  0  0  0  0  0  0  0  0  0  0  0
   14.5259    9.7977    1.9496 H   0  0  0  0  0  0  0  0  0  0  0  0
   14.5141    9.3995    3.6160 H   0  0  0  0  0  0  0  0  0  0  0  0
   15.5984    8.6418    2.5849 H   0  0  0  0  0  0  0  0  0  0  0  0
   12.4943   10.5354    3.0522 H   0  0  0  0  0  0  0  0  0  0  0  0
   12.2343    9.3019    4.3240 H   0  0  0  0  0  0  0  0  0  0  0  0
   10.3149   11.1411    3.1234 H   0  0  0  0  0  0  0  0  0  0  0  0
   10.1197   10.0297    4.4993 H   0  0  0  0  0  0  0  0  0  0  0  0
    4.5315   11.3652    1.7243 H   0  0  0  0  0  0  0  0  0  0  0  0
    5.7974   13.4789    1.3428 H   0  0  0  0  0  0  0  0  0  0  0  0
  1  2  1  0
  2  3  1  0
  3  4  1  0
  4  5  2  0
  4  6  1  0
  6  7  1  0
  7  8  1  0
  8  9  1  0
  9 10  1  0
 10 11  1  0
 10 12  1  0
  9 13  1  0
 13 14  1  0
  2 15  1  0
 15 16  2  0
 15 17  1  0
 17 18  1  0
 14  6  1  0
  1 19  1  0
  1 20  1  0
  1 21  1  0
  2 22  1  0
  3 23  1  0
  6 24  1  0
  7 25  1  0
  7 26  1  0
  8 27  1  0
  8 28  1  0
  9 29  1  0
 10 30  1  0
 11 31  1  0
 11 32  1  0
 11 33  1  0
 12 34  1  0
 12 35  1  0
 12 36  1  0
 13 37  1  0
 13 38  1  0
 14 39  1  0
 14 40  1  0
 17 41  1  0
 18 42  1  0
M  CHG  1  12   1
M  END
>  <EmbedRMS>  (14) 
0.17596870387544733

$$$$

     RDKit          3D

 47 48  0  0  0  0  0  0  0  0999 V2000
   13.9867    7.0996    1.1844 C   0  0  0  0  0  0  0  0  0  0  0  0
   13.5836    8.3576    1.9536 C   0  0  0  0  0  0  0  0  0  0  0  0
   14.7148    8.8852    2.7285 N   0  0  0  0  0  4  0  0  0  0  0  0
   12.2816    8.3202    2.7762 C   0  0  0  0  0  0  0  0  0  0  0  0
   11.1686    7.3051    2.4045 C   0  0  0  0  0  0  0  0  0  0  0  0
    9.8124    7.9105    2.0871 C   0  0  0  0  0  0  0  0  0  0  0  0
    9.4235    8.9759    3.1087 C   0  0  0  0  0  0  0  0  0  0  0  0
    8.0267    9.4434    2.8384 C   0  0  0  0  0  0  0  0  0  0  0  0
    7.6582    9.6749    1.6525 O   0  0  0  0  0  0  0  0  0  0  0  0
    7.1126    9.6299    3.9179 N   0  0  0  0  0  0  0  0  0  0  0  0
    5.8159   10.2347    3.6729 C   0  0  0  0  0  0  0  0  0  0  0  0
    4.6506    9.2673    3.8303 C   0  0  0  0  0  0  0  0  0  0  0  0
    3.5165    9.3945    2.8515 C   0  0  0  0  0  0  0  0  0  0  0  0
    2.5294    8.3552    3.3585 C   0  0  0  0  0  0  0  0  0  0  0  0
    3.3722    7.2636    4.0385 C   0  0  0  0  0  0  0  0  0  0  0  0
    4.7967    7.8134    4.1887 C   0  0  0  0  0  0  0  0  0  0  0  0
   10.3991   10.1442    3.0092 C   0  0  0  0  0  0  0  0  0  0  0  0
   11.8348    9.7175    3.3059 C   0  0  0  0  0  0  0  0  0  0  0  0
   13.2938    6.9113    0.3376 H   0  0  0  0  0  0  0  0  0  0  0  0
   13.9929    6.2225    1.8655 H   0  0  0  0  0  0  0  0  0  0  0  0
   15.0019    7.2144    0.7484 H   0  0  0  0  0  0  0  0  0  0  0  0
   13.3810    9.1015    1.1490 H   0  0  0  0  0  0  0  0  0  0  0  0
   15.5303    9.0580    2.0963 H   0  0  0  0  0  0  0  0  0  0  0  0
   15.0018    8.1904    3.4559 H   0  0  0  0  0  0  0  0  0  0  0  0
   14.4947    9.7899    3.1981 H   0  0  0  0  0  0  0  0  0  0  0  0
   12.6680    7.8418    3.7074 H   0  0  0  0  0  0  0  0  0  0  0  0
   11.0136    6.5964    3.2516 H   0  0  0  0  0  0  0  0  0  0  0  0
   11.4541    6.6684    1.5470 H   0  0  0  0  0  0  0  0  0  0  0  0
    9.8483    8.3480    1.0637 H   0  0  0  0  0  0  0  0  0  0  0  0
    9.0514    7.0978    2.0793 H   0  0  0  0  0  0  0  0  0  0  0  0
    9.4725    8.5381    4.1313 H   0  0  0  0  0  0  0  0  0  0  0  0
    7.3716    9.3461    4.8896 H   0  0  0  0  0  0  0  0  0  0  0  0
    5.7068   11.0980    4.3687 H   0  0  0  0  0  0  0  0  0  0  0  0
    5.7709   10.6959    2.6629 H   0  0  0  0  0  0  0  0  0  0  0  0
    4.1956    9.6669    4.7735 H   0  0  0  0  0  0  0  0  0  0  0  0
    3.8660    9.1311    1.8288 H   0  0  0  0  0  0  0  0  0  0  0  0
    3.0715   10.4140    2.8542 H   0  0  0  0  0  0  0  0  0  0  0  0
    1.9294    7.9380    2.5211 H   0  0  0  0  0  0  0  0  0  0  0  0
    1.8420    8.8191    4.1006 H   0  0  0  0  0  0  0  0  0  0  0  0
    3.3843    6.3415    3.4172 H   0  0  0  0  0  0  0  0  0  0  0  0
    2.9451    7.0165    5.0350 H   0  0  0  0  0  0  0  0  0  0  0  0
    5.4779    7.3176    3.4630 H   0  0  0  0  0  0  0  0  0  0  0  0
    5.1854    7.6744    5.2221 H   0  0  0  0  0  0  0  0  0  0  0  0
   10.3569   10.5802    1.9852 H   0  0  0  0  0  0  0  0  0  0  0  0
   10.1024   10.9444    3.7234 H   0  0  0  0  0  0  0  0  0  0  0  0
   12.4777   10.5256    2.8987 H   0  0  0  0  0  0  0  0  0  0  0  0
   11.9688    9.7495    4.4116 H   0  0  0  0  0  0  0  0  0  0  0  0
  1  2  1  0
  2  3  1  0
  2  4  1  0
  4  5  1  0
  5  6  1  0
  6  7  1  0
  7  8  1  0
  8  9  2  0
  8 10  1  0
 10 11  1  0
 11 12  1  0
 12 13  1  0
 13 14  1  0
 14 15  1  0
 15 16  1  0
  7 17  1  0
 17 18  1  0
 18  4  1  0
 16 12  1  0
  1 19  1  0
  1 20  1  0
  1 21  1  0
  2 22  1  0
  3 23  1  0
  3 24  1  0
  3 25  1  0
  4 26  1  0
  5 27  1  0
  5 28  1  0
  6 29  1  0
  6 30  1  0
  7 31  1  0
 10 32  1  0
 11 33  1  0
 11 34  1  0
 12 35  1  0
 13 36  1  0
 13 37  1  0
 14 38  1  0
 14 39  1  0
 15 40  1  0
 15 41  1  0
 16 42  1  0
 16 43  1  0
 17 44  1  0
 17 45  1  0
 18 46  1  0
 18 47  1  0
M  CHG  1   3   1
M  END
>  <EmbedRMS>  (15) 
0.2701286003923815

$$$$

     RDKit          3D

 45 46  0  0  0  0  0  0  0  0999 V2000
   13.9234    7.3284    1.0387 C   0  0  0  0  0  0  0  0  0  0  0  0
   13.7078    7.9211    2.4415 C   0  0  0  0  0  0  0  0  0  0  0  0
   14.6425    9.0270    2.6702 N   0  0  0  0  0  4  0  0  0  0  0  0
   12.2296    8.2935    2.8212 C   0  0  0  0  0  0  0  0  0  0  0  0
   11.1748    7.4151    2.1500 C   0  0  0  0  0  0  0  0  0  0  0  0
    9.7363    7.7236    2.5352 C   0  0  0  0  0  0  0  0  0  0  0  0
    9.4519    9.2036    2.6236 C   0  0  0  0  0  0  0  0  0  0  0  0
    7.9915    9.5358    2.7190 C   0  0  0  0  0  0  0  0  0  0  0  0
    7.4120    9.6818    1.6162 O   0  0  0  0  0  0  0  0  0  0  0  0
    7.2350    9.6955    3.9307 N   0  0  0  0  0  0  0  0  0  0  0  0
    5.8469   10.1791    3.8765 C   0  0  0  0  0  0  0  0  0  0  0  0
    5.8178   11.6565    3.5733 C   0  0  0  0  0  0  0  0  0  0  0  0
    5.5838   12.1324    2.2700 C   0  0  0  0  0  0  0  0  0  0  0  0
    5.6158   13.5065    2.0056 C   0  0  0  0  0  0  0  0  0  0  0  0
    5.8776   14.4125    3.0374 C   0  0  0  0  0  0  0  0  0  0  0  0
    6.1100   13.9476    4.3362 C   0  0  0  0  0  0  0  0  0  0  0  0
    6.3690   14.8561    5.3589 O   0  0  0  0  0  0  0  0  0  0  0  0
    6.0842   12.5728    4.6002 C   0  0  0  0  0  0  0  0  0  0  0  0
   10.4238   10.0509    3.4137 C   0  0  0  0  0  0  0  0  0  0  0  0
   11.8790    9.7843    2.9967 C   0  0  0  0  0  0  0  0  0  0  0  0
   13.3792    6.3675    0.9251 H   0  0  0  0  0  0  0  0  0  0  0  0
   13.5736    8.0448    0.2655 H   0  0  0  0  0  0  0  0  0  0  0  0
   15.0005    7.1188    0.8658 H   0  0  0  0  0  0  0  0  0  0  0  0
   14.0115    7.0971    3.1302 H   0  0  0  0  0  0  0  0  0  0  0  0
   15.6234    8.7092    2.4930 H   0  0  0  0  0  0  0  0  0  0  0  0
   14.5979    9.3372    3.6676 H   0  0  0  0  0  0  0  0  0  0  0  0
   14.4336    9.8275    2.0307 H   0  0  0  0  0  0  0  0  0  0  0  0
   12.1629    7.9506    3.8811 H   0  0  0  0  0  0  0  0  0  0  0  0
   11.3811    6.3420    2.3598 H   0  0  0  0  0  0  0  0  0  0  0  0
   11.2480    7.5622    1.0509 H   0  0  0  0  0  0  0  0  0  0  0  0
    9.0518    7.2388    1.8032 H   0  0  0  0  0  0  0  0  0  0  0  0
    9.5317    7.2730    3.5310 H   0  0  0  0  0  0  0  0  0  0  0  0
    9.7032    9.5358    1.5855 H   0  0  0  0  0  0  0  0  0  0  0  0
    7.6851    9.5036    4.8534 H   0  0  0  0  0  0  0  0  0  0  0  0
    5.3598    9.9973    4.8591 H   0  0  0  0  0  0  0  0  0  0  0  0
    5.2687    9.6024    3.1218 H   0  0  0  0  0  0  0  0  0  0  0  0
    5.3778   11.4425    1.4617 H   0  0  0  0  0  0  0  0  0  0  0  0
    5.4362   13.8681    1.0014 H   0  0  0  0  0  0  0  0  0  0  0  0
    5.8995   15.4745    2.8286 H   0  0  0  0  0  0  0  0  0  0  0  0
    6.5423   14.5501    6.3093 H   0  0  0  0  0  0  0  0  0  0  0  0
    6.2787   12.2178    5.6051 H   0  0  0  0  0  0  0  0  0  0  0  0
   10.1917   11.1307    3.2792 H   0  0  0  0  0  0  0  0  0  0  0  0
   10.3070    9.8091    4.4923 H   0  0  0  0  0  0  0  0  0  0  0  0
   12.5374   10.2609    3.7534 H   0  0  0  0  0  0  0  0  0  0  0  0
   12.0585   10.2955    2.0260 H   0  0  0  0  0  0  0  0  0  0  0  0
  1  2  1  0
  2  3  1  0
  2  4  1  0
  4  5  1  0
  5  6  1  0
  6  7  1  0
  7  8  1  0
  8  9  2  0
  8 10  1  0
 10 11  1  0
 11 12  1  0
 12 13  2  0
 13 14  1  0
 14 15  2  0
 15 16  1  0
 16 17  1  0
 16 18  2  0
  7 19  1  0
 19 20  1  0
 20  4  1  0
 18 12  1  0
  1 21  1  0
  1 22  1  0
  1 23  1  0
  2 24  1  0
  3 25  1  0
  3 26  1  0
  3 27  1  0
  4 28  1  0
  5 29  1  0
  5 30  1  0
  6 31  1  0
  6 32  1  0
  7 33  1  0
 10 34  1  0
 11 35  1  0
 11 36  1  0
 13 37  1  0
 14 38  1  0
 15 39  1  0
 17 40  1  0
 18 41  1  0
 19 42  1  0
 19 43  1  0
 20 44  1  0
 20 45  1  0
M  CHG  1   3   1
M  END
>  <EmbedRMS>  (16) 
0.24874902131530774

$$$$

     RDKit          3D

 47 47  0  0  0  0  0  0  0  0999 V2000
   14.0224    7.0434    1.2239 C   0  0  0  0  0  0  0  0  0  0  0  0
   13.6633    8.3382    1.9324 C   0  0  0  0  0  0  0  0  0  0  0  0
   14.6222    8.7714    2.9425 N   0  0  0  0  0  4  0  0  0  0  0  0
   12.1536    8.5822    2.2282 C   0  0  0  0  0  0  0  0  0  0  0  0
   11.2753    7.3587    2.5357 C   0  0  0  0  0  0  0  0  0  0  0  0
    9.7785    7.7063    2.4214 C   0  0  0  0  0  0  0  0  0  0  0  0
    9.4658    9.1893    2.6068 C   0  0  0  0  0  0  0  0  0  0  0  0
    8.0148    9.4949    2.7183 C   0  0  0  0  0  0  0  0  0  0  0  0
    7.4137    9.7547    1.6475 O   0  0  0  0  0  0  0  0  0  0  0  0
    7.2999    9.4579    3.9484 N   0  0  0  0  0  0  0  0  0  0  0  0
    5.9927   10.0510    4.0987 C   0  0  0  0  0  0  0  0  0  0  0  0
    4.8374    9.3006    3.4308 C   0  0  0  0  0  0  0  0  0  0  0  0
    4.9627    7.9208    2.7903 C   0  0  0  0  0  0  0  0  0  0  0  0
    3.5300    9.7427    4.0968 C   0  0  0  0  0  0  0  0  0  0  0  0
    3.1312    9.2121    5.4650 C   0  0  0  0  0  0  0  0  0  0  0  0
    2.5348    9.8870    3.1511 O   0  0  0  0  0  0  0  0  0  0  0  0
   10.4096   10.0750    3.4068 C   0  0  0  0  0  0  0  0  0  0  0  0
   11.8948    9.6828    3.2768 C   0  0  0  0  0  0  0  0  0  0  0  0
   15.0681    7.0774    0.8490 H   0  0  0  0  0  0  0  0  0  0  0  0
   13.9319    6.1916    1.9302 H   0  0  0  0  0  0  0  0  0  0  0  0
   13.3509    6.8733    0.3548 H   0  0  0  0  0  0  0  0  0  0  0  0
   13.8562    9.0644    1.1036 H   0  0  0  0  0  0  0  0  0  0  0  0
   14.4342    8.2638    3.8369 H   0  0  0  0  0  0  0  0  0  0  0  0
   14.5711    9.8025    3.1048 H   0  0  0  0  0  0  0  0  0  0  0  0
   15.5985    8.5515    2.6378 H   0  0  0  0  0  0  0  0  0  0  0  0
   11.7648    8.9715    1.2581 H   0  0  0  0  0  0  0  0  0  0  0  0
   11.5028    6.9981    3.5631 H   0  0  0  0  0  0  0  0  0  0  0  0
   11.4886    6.5244    1.8359 H   0  0  0  0  0  0  0  0  0  0  0  0
    9.2286    7.1232    3.1924 H   0  0  0  0  0  0  0  0  0  0  0  0
    9.3955    7.3671    1.4317 H   0  0  0  0  0  0  0  0  0  0  0  0
    9.6942    9.5744    1.5840 H   0  0  0  0  0  0  0  0  0  0  0  0
    7.7896    9.0973    4.7985 H   0  0  0  0  0  0  0  0  0  0  0  0
    5.8093   10.1222    5.1919 H   0  0  0  0  0  0  0  0  0  0  0  0
    6.0382   11.1083    3.7465 H   0  0  0  0  0  0  0  0  0  0  0  0
    4.7941    9.8784    2.4753 H   0  0  0  0  0  0  0  0  0  0  0  0
    5.8222    7.8567    2.0938 H   0  0  0  0  0  0  0  0  0  0  0  0
    5.1028    7.1648    3.5905 H   0  0  0  0  0  0  0  0  0  0  0  0
    4.0360    7.6703    2.2307 H   0  0  0  0  0  0  0  0  0  0  0  0
    3.7186   10.8119    4.3714 H   0  0  0  0  0  0  0  0  0  0  0  0
    2.2582    9.7715    5.8651 H   0  0  0  0  0  0  0  0  0  0  0  0
    3.9636    9.2925    6.1936 H   0  0  0  0  0  0  0  0  0  0  0  0
    2.8512    8.1423    5.3709 H   0  0  0  0  0  0  0  0  0  0  0  0
    1.7486   10.3053    3.5919 H   0  0  0  0  0  0  0  0  0  0  0  0
   10.2725   11.1383    3.1041 H   0  0  0  0  0  0  0  0  0  0  0  0
   10.1235   10.0120    4.4791 H   0  0  0  0  0  0  0  0  0  0  0  0
   12.4607   10.5975    2.9965 H   0  0  0  0  0  0  0  0  0  0  0  0
   12.2692    9.3432    4.2675 H   0  0  0  0  0  0  0  0  0  0  0  0
  1  2  1  0
  2  3  1  0
  2  4  1  0
  4  5  1  0
  5  6  1  0
  6  7  1  0
  7  8  1  0
  8  9  2  0
  8 10  1  0
 10 11  1  0
 11 12  1  0
 12 13  1  0
 12 14  1  0
 14 15  1  0
 14 16  1  0
  7 17  1  0
 17 18  1  0
 18  4  1  0
  1 19  1  0
  1 20  1  0
  1 21  1  0
  2 22  1  0
  3 23  1  0
  3 24  1  0
  3 25  1  0
  4 26  1  0
  5 27  1  0
  5 28  1  0
  6 29  1  0
  6 30  1  0
  7 31  1  0
 10 32  1  0
 11 33  1  0
 11 34  1  0
 12 35  1  0
 13 36  1  0
 13 37  1  0
 13 38  1  0
 14 39  1  0
 15 40  1  0
 15 41  1  0
 15 42  1  0
 16 43  1  0
 17 44  1  0
 17 45  1  0
 18 46  1  0
 18 47  1  0
M  CHG  1   3   1
M  END
>  <EmbedRMS>  (17) 
0.38250517418353436

$$$$

     RDKit          3D

 40 40  0  0  0  0  0  0  0  0999 V2000
   13.9329    7.3325    1.0256 C   0  0  0  0  0  0  0  0  0  0  0  0
   13.7105    7.9149    2.4295 C   0  0  0  0  0  0  0  0  0  0  0  0
   14.6487    9.0165    2.6728 N   0  0  0  0  0  4  0  0  0  0  0  0
   12.2334    8.2987    2.7955 C   0  0  0  0  0  0  0  0  0  0  0  0
   11.1474    7.3153    2.3198 C   0  0  0  0  0  0  0  0  0  0  0  0
    9.7855    7.9363    2.0713 C   0  0  0  0  0  0  0  0  0  0  0  0
    9.4223    8.9847    3.1156 C   0  0  0  0  0  0  0  0  0  0  0  0
    8.0144    9.4669    2.8721 C   0  0  0  0  0  0  0  0  0  0  0  0
    7.6087    9.6862    1.6951 O   0  0  0  0  0  0  0  0  0  0  0  0
    7.1483    9.6996    3.9827 N   0  0  0  0  0  0  0  0  0  0  0  0
    5.7687   10.1321    3.7956 C   0  0  0  0  0  0  0  0  0  0  0  0
    5.1029   10.2810    5.1238 C   0  0  0  0  0  0  0  0  0  0  0  0
    4.4834    9.3035    5.6225 O   0  0  0  0  0  0  0  0  0  0  0  0
    5.2360   11.5013    5.8573 N   0  0  0  0  0  0  0  0  0  0  0  0
    4.6516   11.6423    7.1252 N   0  0  0  0  0  0  0  0  0  0  0  0
   10.3943   10.1684    3.0613 C   0  0  0  0  0  0  0  0  0  0  0  0
   11.8862    9.7890    2.9949 C   0  0  0  0  0  0  0  0  0  0  0  0
   13.5375    6.2975    0.9560 H   0  0  0  0  0  0  0  0  0  0  0  0
   15.0173    7.2752    0.7914 H   0  0  0  0  0  0  0  0  0  0  0  0
   13.4419    7.9749    0.2642 H   0  0  0  0  0  0  0  0  0  0  0  0
   14.0077    7.0850    3.1154 H   0  0  0  0  0  0  0  0  0  0  0  0
   14.5407    9.3810    3.6465 H   0  0  0  0  0  0  0  0  0  0  0  0
   15.6320    8.6700    2.5840 H   0  0  0  0  0  0  0  0  0  0  0  0
   14.5096    9.7863    1.9794 H   0  0  0  0  0  0  0  0  0  0  0  0
   12.2370    8.0291    3.8801 H   0  0  0  0  0  0  0  0  0  0  0  0
   11.0312    6.4819    3.0515 H   0  0  0  0  0  0  0  0  0  0  0  0
   11.4317    6.8319    1.3667 H   0  0  0  0  0  0  0  0  0  0  0  0
    9.7908    8.4052    1.0608 H   0  0  0  0  0  0  0  0  0  0  0  0
    9.0203    7.1279    2.0620 H   0  0  0  0  0  0  0  0  0  0  0  0
    9.4828    8.5130    4.1221 H   0  0  0  0  0  0  0  0  0  0  0  0
    7.5230    9.5520    4.9484 H   0  0  0  0  0  0  0  0  0  0  0  0
    5.7508   11.1040    3.2571 H   0  0  0  0  0  0  0  0  0  0  0  0
    5.2220    9.3807    3.1854 H   0  0  0  0  0  0  0  0  0  0  0  0
    5.8097   12.2803    5.4597 H   0  0  0  0  0  0  0  0  0  0  0  0
    4.9264   12.5791    7.4995 H   0  0  0  0  0  0  0  0  0  0  0  0
    3.6158   11.6688    6.9865 H   0  0  0  0  0  0  0  0  0  0  0  0
   10.2194   10.8143    3.9503 H   0  0  0  0  0  0  0  0  0  0  0  0
   10.1542   10.7911    2.1690 H   0  0  0  0  0  0  0  0  0  0  0  0
   12.3156   10.3469    2.1358 H   0  0  0  0  0  0  0  0  0  0  0  0
   12.3920   10.1921    3.9022 H   0  0  0  0  0  0  0  0  0  0  0  0
  1  2  1  0
  2  3  1  0
  2  4  1  0
  4  5  1  0
  5  6  1  0
  6  7  1  0
  7  8  1  0
  8  9  2  0
  8 10  1  0
 10 11  1  0
 11 12  1  0
 12 13  2  0
 12 14  1  0
 14 15  1  0
  7 16  1  0
 16 17  1  0
 17  4  1  0
  1 18  1  0
  1 19  1  0
  1 20  1  0
  2 21  1  0
  3 22  1  0
  3 23  1  0
  3 24  1  0
  4 25  1  0
  5 26  1  0
  5 27  1  0
  6 28  1  0
  6 29  1  0
  7 30  1  0
 10 31  1  0
 11 32  1  0
 11 33  1  0
 14 34  1  0
 15 35  1  0
 15 36  1  0
 16 37  1  0
 16 38  1  0
 17 39  1  0
 17 40  1  0
M  CHG  1   3   1
M  END
>  <EmbedRMS>  (18) 
0.16865104847114704

$$$$

     RDKit          3D

 47 47  0  0  0  0  0  0  0  0999 V2000
    4.2886   12.1292    3.0535 C   0  0  0  0  0  0  0  0  0  0  0  0
    5.6948   11.5447    3.2086 C   0  0  0  0  0  0  0  0  0  0  0  0
    5.7432   10.1452    3.8835 C   0  0  0  0  0  0  0  0  0  0  0  0
    4.9413    9.1051    3.0695 C   0  0  0  0  0  0  0  0  0  0  0  0
    5.1526   10.2347    5.3124 C   0  0  0  0  0  0  0  0  0  0  0  0
    5.2752    9.0034    5.9698 O   0  0  0  0  0  0  0  0  0  0  0  0
    7.1491    9.7129    3.9883 N   0  0  0  0  0  0  0  0  0  0  0  0
    8.0147    9.4639    2.8715 C   0  0  0  0  0  0  0  0  0  0  0  0
    7.6178    9.6681    1.6898 O   0  0  0  0  0  0  0  0  0  0  0  0
    9.4224    8.9826    3.1175 C   0  0  0  0  0  0  0  0  0  0  0  0
    9.7869    7.9346    2.0726 C   0  0  0  0  0  0  0  0  0  0  0  0
   11.1484    7.3142    2.3218 C   0  0  0  0  0  0  0  0  0  0  0  0
   12.2338    8.2987    2.7962 C   0  0  0  0  0  0  0  0  0  0  0  0
   13.7108    7.9151    2.4297 C   0  0  0  0  0  0  0  0  0  0  0  0
   13.9329    7.3328    1.0256 C   0  0  0  0  0  0  0  0  0  0  0  0
   14.6488    9.0169    2.6728 N   0  0  0  0  0  4  0  0  0  0  0  0
   11.8857    9.7890    2.9939 C   0  0  0  0  0  0  0  0  0  0  0  0
   10.3935   10.1673    3.0631 C   0  0  0  0  0  0  0  0  0  0  0  0
    4.3557   13.0826    2.4879 H   0  0  0  0  0  0  0  0  0  0  0  0
    3.8372   12.3648    4.0383 H   0  0  0  0  0  0  0  0  0  0  0  0
    3.6250   11.4482    2.4831 H   0  0  0  0  0  0  0  0  0  0  0  0
    6.1394   11.5045    2.1943 H   0  0  0  0  0  0  0  0  0  0  0  0
    6.3100   12.2590    3.7988 H   0  0  0  0  0  0  0  0  0  0  0  0
    5.1662    9.1766    1.9853 H   0  0  0  0  0  0  0  0  0  0  0  0
    3.8473    9.2457    3.1992 H   0  0  0  0  0  0  0  0  0  0  0  0
    5.1907    8.0767    3.4085 H   0  0  0  0  0  0  0  0  0  0  0  0
    5.6912   11.0188    5.8922 H   0  0  0  0  0  0  0  0  0  0  0  0
    4.0750   10.5063    5.2775 H   0  0  0  0  0  0  0  0  0  0  0  0
    4.9085    9.1382    6.8822 H   0  0  0  0  0  0  0  0  0  0  0  0
    7.5682    9.5904    4.9388 H   0  0  0  0  0  0  0  0  0  0  0  0
    9.4828    8.5102    4.1235 H   0  0  0  0  0  0  0  0  0  0  0  0
    9.0219    7.1260    2.0624 H   0  0  0  0  0  0  0  0  0  0  0  0
    9.7936    8.4036    1.0621 H   0  0  0  0  0  0  0  0  0  0  0  0
   11.4328    6.8294    1.3694 H   0  0  0  0  0  0  0  0  0  0  0  0
   11.0322    6.4819    3.0548 H   0  0  0  0  0  0  0  0  0  0  0  0
   12.2381    8.0303    3.8811 H   0  0  0  0  0  0  0  0  0  0  0  0
   14.0083    7.0853    3.1154 H   0  0  0  0  0  0  0  0  0  0  0  0
   15.0172    7.2765    0.7907 H   0  0  0  0  0  0  0  0  0  0  0  0
   13.4408    7.9747    0.2644 H   0  0  0  0  0  0  0  0  0  0  0  0
   13.5384    6.2975    0.9563 H   0  0  0  0  0  0  0  0  0  0  0  0
   15.6321    8.6708    2.5832 H   0  0  0  0  0  0  0  0  0  0  0  0
   14.5087    9.7870    1.9799 H   0  0  0  0  0  0  0  0  0  0  0  0
   14.5412    9.3809    3.6467 H   0  0  0  0  0  0  0  0  0  0  0  0
   12.3932   10.1940    3.8994 H   0  0  0  0  0  0  0  0  0  0  0  0
   12.3128   10.3456    2.1328 H   0  0  0  0  0  0  0  0  0  0  0  0
   10.2193   10.8117    3.9533 H   0  0  0  0  0  0  0  0  0  0  0  0
   10.1517   10.7912    2.1722 H   0  0  0  0  0  0  0  0  0  0  0  0
  1  2  1  0
  2  3  1  0
  3  4  1  0
  3  5  1  0
  5  6  1  0
  3  7  1  0
  7  8  1  0
  8  9  2  0
  8 10  1  0
 10 11  1  0
 11 12  1  0
 12 13  1  0
 13 14  1  0
 14 15  1  0
 14 16  1  0
 13 17  1  0
 17 18  1  0
 18 10  1  0
  1 19  1  0
  1 20  1  0
  1 21  1  0
  2 22  1  0
  2 23  1  0
  4 24  1  0
  4 25  1  0
  4 26  1  0
  5 27  1  0
  5 28  1  0
  6 29  1  0
  7 30  1  0
 10 31  1  0
 11 32  1  0
 11 33  1  0
 12 34  1  0
 12 35  1  0
 13 36  1  0
 14 37  1  0
 15 38  1  0
 15 39  1  0
 15 40  1  0
 16 41  1  0
 16 42  1  0
 16 43  1  0
 17 44  1  0
 17 45  1  0
 18 46  1  0
 18 47  1  0
M  CHG  1  16   1
M  END
>  <EmbedRMS>  (19) 
0.16504514334881726

$$$$

     RDKit          3D

 47 48  0  0  0  0  0  0  0  0999 V2000
    3.3550    7.5261    0.2387 C   0  0  0  0  0  0  0  0  0  0  0  0
    3.7591    7.6796    1.6740 C   0  0  0  0  0  0  0  0  0  0  0  0
    3.4093    6.6971    2.6112 C   0  0  0  0  0  0  0  0  0  0  0  0
    3.8066    6.8249    3.9436 C   0  0  0  0  0  0  0  0  0  0  0  0
    4.5708    7.9221    4.3466 C   0  0  0  0  0  0  0  0  0  0  0  0
    4.9400    8.9082    3.4207 C   0  0  0  0  0  0  0  0  0  0  0  0
    5.8031   10.0620    3.8692 C   0  0  0  0  0  0  0  0  0  0  0  0
    7.2179    9.6630    3.9265 N   0  0  0  0  0  0  0  0  0  0  0  0
    7.9878    9.5377    2.7183 C   0  0  0  0  0  0  0  0  0  0  0  0
    7.4195    9.7037    1.6128 O   0  0  0  0  0  0  0  0  0  0  0  0
    9.4506    9.2137    2.6347 C   0  0  0  0  0  0  0  0  0  0  0  0
    9.7340    7.7427    2.3734 C   0  0  0  0  0  0  0  0  0  0  0  0
   11.1976    7.3493    2.5402 C   0  0  0  0  0  0  0  0  0  0  0  0
   12.1819    8.5080    2.2955 C   0  0  0  0  0  0  0  0  0  0  0  0
   13.6459    7.9624    2.3850 C   0  0  0  0  0  0  0  0  0  0  0  0
   14.0279    7.2300    1.0859 C   0  0  0  0  0  0  0  0  0  0  0  0
   14.6271    9.0243    2.6471 N   0  0  0  0  0  4  0  0  0  0  0  0
   11.8957    9.6374    3.3177 C   0  0  0  0  0  0  0  0  0  0  0  0
   10.4177   10.0733    3.4266 C   0  0  0  0  0  0  0  0  0  0  0  0
    4.5324    8.7801    2.0799 C   0  0  0  0  0  0  0  0  0  0  0  0
    3.2257    8.5199   -0.2406 H   0  0  0  0  0  0  0  0  0  0  0  0
    4.1392    6.9607   -0.3066 H   0  0  0  0  0  0  0  0  0  0  0  0
    2.3914    6.9791    0.1583 H   0  0  0  0  0  0  0  0  0  0  0  0
    2.8281    5.8337    2.3113 H   0  0  0  0  0  0  0  0  0  0  0  0
    3.5310    6.0656    4.6641 H   0  0  0  0  0  0  0  0  0  0  0  0
    4.8834    7.9981    5.3809 H   0  0  0  0  0  0  0  0  0  0  0  0
    5.4772   10.3905    4.8801 H   0  0  0  0  0  0  0  0  0  0  0  0
    5.6805   10.9383    3.1956 H   0  0  0  0  0  0  0  0  0  0  0  0
    7.6767    9.5107    4.8522 H   0  0  0  0  0  0  0  0  0  0  0  0
    9.7114    9.6194    1.6251 H   0  0  0  0  0  0  0  0  0  0  0  0
    9.1282    7.1304    3.0776 H   0  0  0  0  0  0  0  0  0  0  0  0
    9.3937    7.4684    1.3478 H   0  0  0  0  0  0  0  0  0  0  0  0
   11.3436    6.9693    3.5766 H   0  0  0  0  0  0  0  0  0  0  0  0
   11.3979    6.4993    1.8571 H   0  0  0  0  0  0  0  0  0  0  0  0
   12.0116    8.9214    1.2757 H   0  0  0  0  0  0  0  0  0  0  0  0
   13.7142    7.2275    3.2200 H   0  0  0  0  0  0  0  0  0  0  0  0
   13.9578    7.9167    0.2154 H   0  0  0  0  0  0  0  0  0  0  0  0
   13.3807    6.3497    0.9044 H   0  0  0  0  0  0  0  0  0  0  0  0
   15.0712    6.8547    1.1520 H   0  0  0  0  0  0  0  0  0  0  0  0
   14.5143    9.3994    3.6160 H   0  0  0  0  0  0  0  0  0  0  0  0
   14.5262    9.7975    1.9495 H   0  0  0  0  0  0  0  0  0  0  0  0
   15.5988    8.6418    2.5850 H   0  0  0  0  0  0  0  0  0  0  0  0
   12.2339    9.3016    4.3236 H   0  0  0  0  0  0  0  0  0  0  0  0
   12.4948   10.5349    3.0515 H   0  0  0  0  0  0  0  0  0  0  0  0
   10.1188   10.0277    4.4963 H   0  0  0  0  0  0  0  0  0  0  0  0
   10.3156   11.1402    3.1210 H   0  0  0  0  0  0  0  0  0  0  0  0
    4.8107    9.5360    1.3560 H   0  0  0  0  0  0  0  0  0  0  0  0
  1  2  1  0
  2  3  2  0
  3  4  1  0
  4  5  2  0
  5  6  1  0
  6  7  1  0
  7  8  1  0
  8  9  1  0
  9 10  2  0
  9 11  1  0
 11 12  1  0
 12 13  1  0
 13 14  1  0
 14 15  1  0
 15 16  1  0
 15 17  1  0
 14 18  1  0
 18 19  1  0
  6 20  2  0
 20  2  1  0
 19 11  1  0
  1 21  1  0
  1 22  1  0
  1 23  1  0
  3 24  1  0
  4 25  1  0
  5 26  1  0
  7 27  1  0
  7 28  1  0
  8 29  1  0
 11 30  1  0
 12 31  1  0
 12 32  1  0
 13 33  1  0
 13 34  1  0
 14 35  1  0
 15 36  1  0
 16 37  1  0
 16 38  1  0
 16 39  1  0
 17 40  1  0
 17 41  1  0
 17 42  1  0
 18 43  1  0
 18 44  1  0
 19 45  1  0
 19 46  1  0
 20 47  1  0
M  CHG  1  17   1
M  END
>  <EmbedRMS>  (20) 
0.16810927383701896

$$$$

     RDKit          3D

 44 45  0  0  0  0  0  0  0  0999 V2000
   13.9320    7.3325    1.0260 C   0  0  0  0  0  0  0  0  0  0  0  0
   13.7094    7.9152    2.4299 C   0  0  0  0  0  0  0  0  0  0  0  0
   14.6477    9.0168    2.6730 N   0  0  0  0  0  4  0  0  0  0  0  0
   12.2321    8.2991    2.7960 C   0  0  0  0  0  0  0  0  0  0  0  0
   11.1460    7.3159    2.3204 C   0  0  0  0  0  0  0  0  0  0  0  0
    9.7822    7.9356    2.0766 C   0  0  0  0  0  0  0  0  0  0  0  0
    9.4195    8.9845    3.1219 C   0  0  0  0  0  0  0  0  0  0  0  0
    8.0108    9.4658    2.8789 C   0  0  0  0  0  0  0  0  0  0  0  0
    7.6122    9.6894    1.7007 O   0  0  0  0  0  0  0  0  0  0  0  0
    7.1405    9.7018    3.9904 N   0  0  0  0  0  0  0  0  0  0  0  0
    5.7430   10.0870    3.8267 C   0  0  0  0  0  0  0  0  0  0  0  0
    4.8838    8.8636    3.4794 C   0  0  0  0  0  0  0  0  0  0  0  0
    4.8650    7.6707    4.4394 C   0  0  0  0  0  0  0  0  0  0  0  0
    4.6455    8.5665    2.0066 C   0  0  0  0  0  0  0  0  0  0  0  0
    3.5389    9.1937    2.8492 C   0  0  0  0  0  0  0  0  0  0  0  0
   10.3922   10.1681    3.0639 C   0  0  0  0  0  0  0  0  0  0  0  0
   11.8845    9.7893    2.9947 C   0  0  0  0  0  0  0  0  0  0  0  0
   13.5349    6.2981    0.9563 H   0  0  0  0  0  0  0  0  0  0  0  0
   15.0164    7.2735    0.7926 H   0  0  0  0  0  0  0  0  0  0  0  0
   13.4423    7.9756    0.2643 H   0  0  0  0  0  0  0  0  0  0  0  0
   14.0065    7.0854    3.1159 H   0  0  0  0  0  0  0  0  0  0  0  0
   15.6310    8.6704    2.5834 H   0  0  0  0  0  0  0  0  0  0  0  0
   14.5402    9.3808    3.6469 H   0  0  0  0  0  0  0  0  0  0  0  0
   14.5078    9.7869    1.9801 H   0  0  0  0  0  0  0  0  0  0  0  0
   12.2356    8.0298    3.8806 H   0  0  0  0  0  0  0  0  0  0  0  0
   11.0328    6.4805    3.0503 H   0  0  0  0  0  0  0  0  0  0  0  0
   11.4289    6.8355    1.3654 H   0  0  0  0  0  0  0  0  0  0  0  0
    9.7839    8.4039    1.0659 H   0  0  0  0  0  0  0  0  0  0  0  0
    9.0177    7.1265    2.0698 H   0  0  0  0  0  0  0  0  0  0  0  0
    9.4795    8.5142    4.1291 H   0  0  0  0  0  0  0  0  0  0  0  0
    7.5257    9.6374    4.9598 H   0  0  0  0  0  0  0  0  0  0  0  0
    5.3699   10.5111    4.7837 H   0  0  0  0  0  0  0  0  0  0  0  0
    5.6624   10.8887    3.0596 H   0  0  0  0  0  0  0  0  0  0  0  0
    5.8862    7.2429    4.5178 H   0  0  0  0  0  0  0  0  0  0  0  0
    4.5405    8.0100    5.4454 H   0  0  0  0  0  0  0  0  0  0  0  0
    4.1766    6.8683    4.0965 H   0  0  0  0  0  0  0  0  0  0  0  0
    4.4539    7.5037    1.7465 H   0  0  0  0  0  0  0  0  0  0  0  0
    5.0788    9.2789    1.2740 H   0  0  0  0  0  0  0  0  0  0  0  0
    3.3542   10.2624    2.6069 H   0  0  0  0  0  0  0  0  0  0  0  0
    2.7033    8.4943    3.0668 H   0  0  0  0  0  0  0  0  0  0  0  0
   10.1502   10.7898    2.1715 H   0  0  0  0  0  0  0  0  0  0  0  0
   10.2192   10.8151    3.9524 H   0  0  0  0  0  0  0  0  0  0  0  0
   12.3120   10.3465    2.1342 H   0  0  0  0  0  0  0  0  0  0  0  0
   12.3919   10.1933    3.9005 H   0  0  0  0  0  0  0  0  0  0  0  0
  1  2  1  0
  2  3  1  0
  2  4  1  0
  4  5  1  0
  5  6  1  0
  6  7  1  0
  7  8  1  0
  8  9  2  0
  8 10  1  0
 10 11  1  0
 11 12  1  0
 12 13  1  0
 12 14  1  0
 14 15  1  0
  7 16  1  0
 16 17  1  0
 17  4  1  0
 15 12  1  0
  1 18  1  0
  1 19  1  0
  1 20  1  0
  2 21  1  0
  3 22  1  0
  3 23  1  0
  3 24  1  0
  4 25  1  0
  5 26  1  0
  5 27  1  0
  6 28  1  0
  6 29  1  0
  7 30  1  0
 10 31  1  0
 11 32  1  0
 11 33  1  0
 13 34  1  0
 13 35  1  0
 13 36  1  0
 14 37  1  0
 14 38  1  0
 15 39  1  0
 15 40  1  0
 16 41  1  0
 16 42  1  0
 17 43  1  0
 17 44  1  0
M  CHG  1   3   1
M  END
>  <EmbedRMS>  (21) 
0.16887367645226622

$$$$

     RDKit          3D

 41 41  0  0  0  0  0  0  0  0999 V2000
   14.0280    7.2298    1.0859 C   0  0  0  0  0  0  0  0  0  0  0  0
   13.6460    7.9623    2.3850 C   0  0  0  0  0  0  0  0  0  0  0  0
   14.6274    9.0240    2.6473 N   0  0  0  0  0  4  0  0  0  0  0  0
   12.1822    8.5084    2.2951 C   0  0  0  0  0  0  0  0  0  0  0  0
   11.1974    7.3503    2.5396 C   0  0  0  0  0  0  0  0  0  0  0  0
    9.7343    7.7449    2.3712 C   0  0  0  0  0  0  0  0  0  0  0  0
    9.4514    9.2167    2.6303 C   0  0  0  0  0  0  0  0  0  0  0  0
    7.9896    9.5414    2.7188 C   0  0  0  0  0  0  0  0  0  0  0  0
    7.4087    9.6836    1.6159 O   0  0  0  0  0  0  0  0  0  0  0  0
    7.2362    9.6966    3.9328 N   0  0  0  0  0  0  0  0  0  0  0  0
    5.8494   10.1851    3.8996 C   0  0  0  0  0  0  0  0  0  0  0  0
    5.8029   11.7179    3.8926 C   0  0  0  0  0  0  0  0  0  0  0  0
    6.3441   12.2626    2.6455 N   0  0  0  0  0  0  0  0  0  0  0  0
    6.3507   13.6650    2.7550 N   0  0  0  0  0  0  0  0  0  0  0  0
   10.4184   10.0748    3.4243 C   0  0  0  0  0  0  0  0  0  0  0  0
   11.8961    9.6380    3.3170 C   0  0  0  0  0  0  0  0  0  0  0  0
   13.9586    7.9167    0.2154 H   0  0  0  0  0  0  0  0  0  0  0  0
   13.3804    6.3499    0.9041 H   0  0  0  0  0  0  0  0  0  0  0  0
   15.0712    6.8540    1.1524 H   0  0  0  0  0  0  0  0  0  0  0  0
   13.7139    7.2275    3.2200 H   0  0  0  0  0  0  0  0  0  0  0  0
   15.5990    8.6413    2.5854 H   0  0  0  0  0  0  0  0  0  0  0  0
   14.5145    9.3992    3.6161 H   0  0  0  0  0  0  0  0  0  0  0  0
   14.5269    9.7972    1.9495 H   0  0  0  0  0  0  0  0  0  0  0  0
   12.0124    8.9218    1.2752 H   0  0  0  0  0  0  0  0  0  0  0  0
   11.3424    6.9708    3.5764 H   0  0  0  0  0  0  0  0  0  0  0  0
   11.3978    6.4998    1.8571 H   0  0  0  0  0  0  0  0  0  0  0  0
    9.3949    7.4700    1.3455 H   0  0  0  0  0  0  0  0  0  0  0  0
    9.1277    7.1336    3.0756 H   0  0  0  0  0  0  0  0  0  0  0  0
    9.7090    9.6234    1.6204 H   0  0  0  0  0  0  0  0  0  0  0  0
    7.6867    9.4859    4.8512 H   0  0  0  0  0  0  0  0  0  0  0  0
    5.3016    9.7687    3.0264 H   0  0  0  0  0  0  0  0  0  0  0  0
    5.3265    9.8261    4.8121 H   0  0  0  0  0  0  0  0  0  0  0  0
    6.3914   12.0934    4.7595 H   0  0  0  0  0  0  0  0  0  0  0  0
    4.7467   12.0466    4.0221 H   0  0  0  0  0  0  0  0  0  0  0  0
    5.6753   12.0110    1.8787 H   0  0  0  0  0  0  0  0  0  0  0  0
    6.5095   14.0559    1.7976 H   0  0  0  0  0  0  0  0  0  0  0  0
    7.1991   13.9278    3.3076 H   0  0  0  0  0  0  0  0  0  0  0  0
   10.3172   11.1419    3.1192 H   0  0  0  0  0  0  0  0  0  0  0  0
   10.1185   10.0290    4.4936 H   0  0  0  0  0  0  0  0  0  0  0  0
   12.2333    9.3021    4.3232 H   0  0  0  0  0  0  0  0  0  0  0  0
   12.4959   10.5351    3.0511 H   0  0  0  0  0  0  0  0  0  0  0  0
  1  2  1  0
  2  3  1  0
  2  4  1  0
  4  5  1  0
  5  6  1  0
  6  7  1  0
  7  8  1  0
  8  9  2  0
  8 10  1  0
 10 11  1  0
 11 12  1  0
 12 13  1  0
 13 14  1  0
  7 15  1  0
 15 16  1  0
 16  4  1  0
  1 17  1  0
  1 18  1  0
  1 19  1  0
  2 20  1  0
  3 21  1  0
  3 22  1  0
  3 23  1  0
  4 24  1  0
  5 25  1  0
  5 26  1  0
  6 27  1  0
  6 28  1  0
  7 29  1  0
 10 30  1  0
 11 31  1  0
 11 32  1  0
 12 33  1  0
 12 34  1  0
 13 35  1  0
 14 36  1  0
 14 37  1  0
 15 38  1  0
 15 39  1  0
 16 40  1  0
 16 41  1  0
M  CHG  1   3   1
M  END
>  <EmbedRMS>  (22) 
0.18953983231979948

$$$$

     RDKit          3D

 39 39  0  0  0  0  0  0  0  0999 V2000
   13.9844    7.0987    1.1852 C   0  0  0  0  0  0  0  0  0  0  0  0
   13.5813    8.3571    1.9535 C   0  0  0  0  0  0  0  0  0  0  0  0
   14.7119    8.8837    2.7303 N   0  0  0  0  0  4  0  0  0  0  0  0
   12.2764    8.3213    2.7731 C   0  0  0  0  0  0  0  0  0  0  0  0
   11.1594    7.3119    2.3952 C   0  0  0  0  0  0  0  0  0  0  0  0
    9.8012    7.9221    2.0807 C   0  0  0  0  0  0  0  0  0  0  0  0
    9.4171    8.9887    3.1032 C   0  0  0  0  0  0  0  0  0  0  0  0
    8.0126    9.4691    2.8593 C   0  0  0  0  0  0  0  0  0  0  0  0
    7.6068    9.6854    1.6829 O   0  0  0  0  0  0  0  0  0  0  0  0
    7.1475    9.7016    3.9728 N   0  0  0  0  0  0  0  0  0  0  0  0
    5.7671   10.1340    3.7917 C   0  0  0  0  0  0  0  0  0  0  0  0
    5.1041   10.2805    5.1224 C   0  0  0  0  0  0  0  0  0  0  0  0
    4.4861    9.3029    5.6225 O   0  0  0  0  0  0  0  0  0  0  0  0
    5.2339   11.4993    5.8568 N   0  0  0  0  0  0  0  0  0  0  0  0
    4.6682   11.6309    7.0797 O   0  0  0  0  0  0  0  0  0  0  0  0
   10.3985   10.1512    3.0055 C   0  0  0  0  0  0  0  0  0  0  0  0
   11.8327    9.7189    3.3043 C   0  0  0  0  0  0  0  0  0  0  0  0
   13.9874    6.2216    1.8663 H   0  0  0  0  0  0  0  0  0  0  0  0
   13.2934    6.9113    0.3368 H   0  0  0  0  0  0  0  0  0  0  0  0
   15.0009    7.2118    0.7517 H   0  0  0  0  0  0  0  0  0  0  0  0
   13.3813    9.1012    1.1484 H   0  0  0  0  0  0  0  0  0  0  0  0
   14.4930    9.7897    3.1976 H   0  0  0  0  0  0  0  0  0  0  0  0
   15.5295    9.0532    2.1000 H   0  0  0  0  0  0  0  0  0  0  0  0
   14.9952    8.1895    3.4598 H   0  0  0  0  0  0  0  0  0  0  0  0
   12.6588    7.8393    3.7041 H   0  0  0  0  0  0  0  0  0  0  0  0
   11.0033    6.5979    3.2375 H   0  0  0  0  0  0  0  0  0  0  0  0
   11.4437    6.6806    1.5333 H   0  0  0  0  0  0  0  0  0  0  0  0
    9.8333    8.3615    1.0581 H   0  0  0  0  0  0  0  0  0  0  0  0
    9.0375    7.1125    2.0748 H   0  0  0  0  0  0  0  0  0  0  0  0
    9.4758    8.5447    4.1227 H   0  0  0  0  0  0  0  0  0  0  0  0
    7.5244    9.5559    4.9379 H   0  0  0  0  0  0  0  0  0  0  0  0
    5.7472   11.1067    3.2549 H   0  0  0  0  0  0  0  0  0  0  0  0
    5.2188    9.3835    3.1817 H   0  0  0  0  0  0  0  0  0  0  0  0
    5.7900   12.2918    5.4642 H   0  0  0  0  0  0  0  0  0  0  0  0
    3.7708   12.0137    6.9045 H   0  0  0  0  0  0  0  0  0  0  0  0
   10.1051   10.9528    3.7197 H   0  0  0  0  0  0  0  0  0  0  0  0
   10.3582   10.5878    1.9818 H   0  0  0  0  0  0  0  0  0  0  0  0
   11.9649    9.7487    4.4103 H   0  0  0  0  0  0  0  0  0  0  0  0
   12.4783   10.5258    2.8994 H   0  0  0  0  0  0  0  0  0  0  0  0
  1  2  1  0
  2  3  1  0
  2  4  1  0
  4  5  1  0
  5  6  1  0
  6  7  1  0
  7  8  1  0
  8  9  2  0
  8 10  1  0
 10 11  1  0
 11 12  1  0
 12 13  2  0
 12 14  1  0
 14 15  1  0
  7 16  1  0
 16 17  1  0
 17  4  1  0
  1 18  1  0
  1 19  1  0
  1 20  1  0
  2 21  1  0
  3 22  1  0
  3 23  1  0
  3 24  1  0
  4 25  1  0
  5 26  1  0
  5 27  1  0
  6 28  1  0
  6 29  1  0
  7 30  1  0
 10 31  1  0
 11 32  1  0
 11 33  1  0
 14 34  1  0
 15 35  1  0
 16 36  1  0
 16 37  1  0
 17 38  1  0
 17 39  1  0
M  CHG  1   3   1
M  END
>  <EmbedRMS>  (23) 
0.20786673572978834

$$$$

     RDKit          3D

 44 44  0  0  0  0  0  0  0  0999 V2000
    8.2507   13.6510    5.6746 C   0  0  0  0  0  0  0  0  0  0  0  0
    7.6935   12.8559    4.5887 N   0  0  0  0  0  0  0  0  0  0  0  0
    6.3008   12.5270    4.5313 C   0  0  0  0  0  0  0  0  0  0  0  0
    5.5148   12.9236    5.4337 O   0  0  0  0  0  0  0  0  0  0  0  0
    5.7719   11.6768    3.4172 C   0  0  0  0  0  0  0  0  0  0  0  0
    5.7738   10.1969    3.8073 C   0  0  0  0  0  0  0  0  0  0  0  0
    7.1370    9.7021    3.9754 N   0  0  0  0  0  0  0  0  0  0  0  0
    8.0104    9.4682    2.8639 C   0  0  0  0  0  0  0  0  0  0  0  0
    7.6101    9.6812    1.6849 O   0  0  0  0  0  0  0  0  0  0  0  0
    9.4149    8.9869    3.1097 C   0  0  0  0  0  0  0  0  0  0  0  0
    9.7998    7.9227    2.0839 C   0  0  0  0  0  0  0  0  0  0  0  0
   11.1587    7.3120    2.3949 C   0  0  0  0  0  0  0  0  0  0  0  0
   12.2760    8.3207    2.7729 C   0  0  0  0  0  0  0  0  0  0  0  0
   13.5811    8.3565    1.9534 C   0  0  0  0  0  0  0  0  0  0  0  0
   13.9845    7.0979    1.1856 C   0  0  0  0  0  0  0  0  0  0  0  0
   14.7114    8.8838    2.7302 N   0  0  0  0  0  4  0  0  0  0  0  0
   11.8334    9.7183    3.3033 C   0  0  0  0  0  0  0  0  0  0  0  0
   10.3972   10.1495    3.0136 C   0  0  0  0  0  0  0  0  0  0  0  0
    8.0958   13.1276    6.6415 H   0  0  0  0  0  0  0  0  0  0  0  0
    9.3401   13.7955    5.5152 H   0  0  0  0  0  0  0  0  0  0  0  0
    7.7569   14.6450    5.7059 H   0  0  0  0  0  0  0  0  0  0  0  0
    8.3259   12.5394    3.8205 H   0  0  0  0  0  0  0  0  0  0  0  0
    4.7287   11.9858    3.1896 H   0  0  0  0  0  0  0  0  0  0  0  0
    6.3701   11.8408    2.4963 H   0  0  0  0  0  0  0  0  0  0  0  0
    5.2093   10.0617    4.7561 H   0  0  0  0  0  0  0  0  0  0  0  0
    5.2556    9.6021    3.0243 H   0  0  0  0  0  0  0  0  0  0  0  0
    7.4662    9.4783    4.9415 H   0  0  0  0  0  0  0  0  0  0  0  0
    9.4721    8.5420    4.1288 H   0  0  0  0  0  0  0  0  0  0  0  0
    9.8312    8.3648    1.0625 H   0  0  0  0  0  0  0  0  0  0  0  0
    9.0366    7.1126    2.0763 H   0  0  0  0  0  0  0  0  0  0  0  0
   11.0042    6.5959    3.2357 H   0  0  0  0  0  0  0  0  0  0  0  0
   11.4418    6.6832    1.5308 H   0  0  0  0  0  0  0  0  0  0  0  0
   12.6579    7.8385    3.7039 H   0  0  0  0  0  0  0  0  0  0  0  0
   13.3811    9.1000    1.1478 H   0  0  0  0  0  0  0  0  0  0  0  0
   13.2937    6.9100    0.3372 H   0  0  0  0  0  0  0  0  0  0  0  0
   13.9875    6.2210    1.8670 H   0  0  0  0  0  0  0  0  0  0  0  0
   15.0010    7.2110    0.7523 H   0  0  0  0  0  0  0  0  0  0  0  0
   14.9943    8.1904    3.4606 H   0  0  0  0  0  0  0  0  0  0  0  0
   14.4920    9.7904    3.1963 H   0  0  0  0  0  0  0  0  0  0  0  0
   15.5293    9.0527    2.1001 H   0  0  0  0  0  0  0  0  0  0  0  0
   11.9737    9.7510    4.4083 H   0  0  0  0  0  0  0  0  0  0  0  0
   12.4757   10.5250    2.8923 H   0  0  0  0  0  0  0  0  0  0  0  0
   10.1109   10.9432    3.7375 H   0  0  0  0  0  0  0  0  0  0  0  0
   10.3502   10.5947    1.9938 H   0  0  0  0  0  0  0  0  0  0  0  0
  1  2  1  0
  2  3  1  0
  3  4  2  0
  3  5  1  0
  5  6  1  0
  6  7  1  0
  7  8  1  0
  8  9  2  0
  8 10  1  0
 10 11  1  0
 11 12  1  0
 12 13  1  0
 13 14  1  0
 14 15  1  0
 14 16  1  0
 13 17  1  0
 17 18  1  0
 18 10  1  0
  1 19  1  0
  1 20  1  0
  1 21  1  0
  2 22  1  0
  5 23  1  0
  5 24  1  0
  6 25  1  0
  6 26  1  0
  7 27  1  0
 10 28  1  0
 11 29  1  0
 11 30  1  0
 12 31  1  0
 12 32  1  0
 13 33  1  0
 14 34  1  0
 15 35  1  0
 15 36  1  0
 15 37  1  0
 16 38  1  0
 16 39  1  0
 16 40  1  0
 17 41  1  0
 17 42  1  0
 18 43  1  0
 18 44  1  0
M  CHG  1  16   1
M  END
>  <EmbedRMS>  (24) 
0.20180190035783102

$$$$

     RDKit          3D

 37 37  0  0  0  0  0  0  0  0999 V2000
    4.9010    8.9493    3.3214 C   0  0  0  0  0  0  0  0  0  0  0  0
    5.7477   10.1185    3.8091 C   0  0  0  0  0  0  0  0  0  0  0  0
    7.1378    9.7075    3.9757 N   0  0  0  0  0  0  0  0  0  0  0  0
    8.0091    9.4709    2.8632 C   0  0  0  0  0  0  0  0  0  0  0  0
    7.6090    9.6877    1.6849 O   0  0  0  0  0  0  0  0  0  0  0  0
    9.4140    8.9898    3.1084 C   0  0  0  0  0  0  0  0  0  0  0  0
    9.7981    7.9225    2.0853 C   0  0  0  0  0  0  0  0  0  0  0  0
   11.1578    7.3127    2.3960 C   0  0  0  0  0  0  0  0  0  0  0  0
   12.2752    8.3218    2.7734 C   0  0  0  0  0  0  0  0  0  0  0  0
   13.5805    8.3571    1.9538 C   0  0  0  0  0  0  0  0  0  0  0  0
   13.9836    7.0985    1.1857 C   0  0  0  0  0  0  0  0  0  0  0  0
   14.7111    8.8839    2.7305 N   0  0  0  0  0  4  0  0  0  0  0  0
   11.8317    9.7194    3.3044 C   0  0  0  0  0  0  0  0  0  0  0  0
   10.3968   10.1516    3.0079 C   0  0  0  0  0  0  0  0  0  0  0  0
    4.9738    8.1023    4.0363 H   0  0  0  0  0  0  0  0  0  0  0  0
    5.2401    8.6114    2.3200 H   0  0  0  0  0  0  0  0  0  0  0  0
    3.8390    9.2647    3.2475 H   0  0  0  0  0  0  0  0  0  0  0  0
    5.6836   10.9644    3.0910 H   0  0  0  0  0  0  0  0  0  0  0  0
    5.3476   10.4660    4.7862 H   0  0  0  0  0  0  0  0  0  0  0  0
    7.5181    9.6307    4.9461 H   0  0  0  0  0  0  0  0  0  0  0  0
    9.4709    8.5475    4.1287 H   0  0  0  0  0  0  0  0  0  0  0  0
    9.8276    8.3613    1.0624 H   0  0  0  0  0  0  0  0  0  0  0  0
    9.0349    7.1124    2.0811 H   0  0  0  0  0  0  0  0  0  0  0  0
   11.0040    6.5968    3.2371 H   0  0  0  0  0  0  0  0  0  0  0  0
   11.4410    6.6836    1.5321 H   0  0  0  0  0  0  0  0  0  0  0  0
   12.6575    7.8399    3.7045 H   0  0  0  0  0  0  0  0  0  0  0  0
   13.3805    9.1010    1.1485 H   0  0  0  0  0  0  0  0  0  0  0  0
   15.0000    7.2116    0.7521 H   0  0  0  0  0  0  0  0  0  0  0  0
   13.2924    6.9108    0.3375 H   0  0  0  0  0  0  0  0  0  0  0  0
   13.9867    6.2216    1.8670 H   0  0  0  0  0  0  0  0  0  0  0  0
   14.9942    8.1900    3.4603 H   0  0  0  0  0  0  0  0  0  0  0  0
   14.4920    9.7901    3.1973 H   0  0  0  0  0  0  0  0  0  0  0  0
   15.5287    9.0531    2.1001 H   0  0  0  0  0  0  0  0  0  0  0  0
   12.4766   10.5261    2.8979 H   0  0  0  0  0  0  0  0  0  0  0  0
   11.9658    9.7500    4.4102 H   0  0  0  0  0  0  0  0  0  0  0  0
   10.3549   10.5873    1.9838 H   0  0  0  0  0  0  0  0  0  0  0  0
   10.1049   10.9541    3.7216 H   0  0  0  0  0  0  0  0  0  0  0  0
  1  2  1  0
  2  3  1  0
  3  4  1  0
  4  5  2  0
  4  6  1  0
  6  7  1  0
  7  8  1  0
  8  9  1  0
  9 10  1  0
 10 11  1  0
 10 12  1  0
  9 13  1  0
 13 14  1  0
 14  6  1  0
  1 15  1  0
  1 16  1  0
  1 17  1  0
  2 18  1  0
  2 19  1  0
  3 20  1  0
  6 21  1  0
  7 22  1  0
  7 23  1  0
  8 24  1  0
  8 25  1  0
  9 26  1  0
 10 27  1  0
 11 28  1  0
 11 29  1  0
 11 30  1  0
 12 31  1  0
 12 32  1  0
 12 33  1  0
 13 34  1  0
 13 35  1  0
 14 36  1  0
 14 37  1  0
M  CHG  1  12   1
M  END
>  <EmbedRMS>  (25) 
0.22880006867790334

$$$$

     RDKit          3D

 46 46  0  0  0  0  0  0  0  0999 V2000
    2.3051    7.2496    3.7607 C   0  0  0  0  0  0  0  0  0  0  0  0
    2.5835    8.2584    2.6485 C   0  0  0  0  0  0  0  0  0  0  0  0
    3.4692    9.4106    3.1274 C   0  0  0  0  0  0  0  0  0  0  0  0
    4.9193    8.9668    3.3261 C   0  0  0  0  0  0  0  0  0  0  0  0
    5.7682   10.1363    3.8153 C   0  0  0  0  0  0  0  0  0  0  0  0
    7.1508    9.7119    3.9893 N   0  0  0  0  0  0  0  0  0  0  0  0
    8.0171    9.4692    2.8772 C   0  0  0  0  0  0  0  0  0  0  0  0
    7.6145    9.6885    1.6987 O   0  0  0  0  0  0  0  0  0  0  0  0
    9.4233    8.9852    3.1202 C   0  0  0  0  0  0  0  0  0  0  0  0
    9.7845    7.9361    2.0751 C   0  0  0  0  0  0  0  0  0  0  0  0
   11.1474    7.3156    2.3199 C   0  0  0  0  0  0  0  0  0  0  0  0
   12.2336    8.2986    2.7958 C   0  0  0  0  0  0  0  0  0  0  0  0
   13.7106    7.9146    2.4296 C   0  0  0  0  0  0  0  0  0  0  0  0
   13.9328    7.3323    1.0256 C   0  0  0  0  0  0  0  0  0  0  0  0
   14.6490    9.0162    2.6728 N   0  0  0  0  0  4  0  0  0  0  0  0
   11.8870    9.7889    2.9953 C   0  0  0  0  0  0  0  0  0  0  0  0
   10.3955   10.1685    3.0627 C   0  0  0  0  0  0  0  0  0  0  0  0
    1.9037    7.7594    4.6623 H   0  0  0  0  0  0  0  0  0  0  0  0
    3.2235    6.6882    4.0285 H   0  0  0  0  0  0  0  0  0  0  0  0
    1.5493    6.5163    3.4086 H   0  0  0  0  0  0  0  0  0  0  0  0
    3.0488    7.7435    1.7799 H   0  0  0  0  0  0  0  0  0  0  0  0
    1.6120    8.6795    2.3098 H   0  0  0  0  0  0  0  0  0  0  0  0
    3.0615    9.8339    4.0721 H   0  0  0  0  0  0  0  0  0  0  0  0
    3.4418   10.2134    2.3580 H   0  0  0  0  0  0  0  0  0  0  0  0
    4.9759    8.1564    4.0830 H   0  0  0  0  0  0  0  0  0  0  0  0
    5.3205    8.5813    2.3642 H   0  0  0  0  0  0  0  0  0  0  0  0
    5.3733   10.4943    4.7916 H   0  0  0  0  0  0  0  0  0  0  0  0
    5.7239   10.9832    3.0957 H   0  0  0  0  0  0  0  0  0  0  0  0
    7.5294    9.6311    4.9600 H   0  0  0  0  0  0  0  0  0  0  0  0
    9.4828    8.5150    4.1274 H   0  0  0  0  0  0  0  0  0  0  0  0
    9.7871    8.4043    1.0643 H   0  0  0  0  0  0  0  0  0  0  0  0
    9.0193    7.1276    2.0682 H   0  0  0  0  0  0  0  0  0  0  0  0
   11.0331    6.4805    3.0501 H   0  0  0  0  0  0  0  0  0  0  0  0
   11.4304    6.8346    1.3652 H   0  0  0  0  0  0  0  0  0  0  0  0
   12.2371    8.0287    3.8803 H   0  0  0  0  0  0  0  0  0  0  0  0
   14.0078    7.0847    3.1154 H   0  0  0  0  0  0  0  0  0  0  0  0
   13.5363    6.2977    0.9558 H   0  0  0  0  0  0  0  0  0  0  0  0
   13.4425    7.9753    0.2642 H   0  0  0  0  0  0  0  0  0  0  0  0
   15.0171    7.2740    0.7917 H   0  0  0  0  0  0  0  0  0  0  0  0
   14.5098    9.7861    1.9795 H   0  0  0  0  0  0  0  0  0  0  0  0
   15.6322    8.6695    2.5837 H   0  0  0  0  0  0  0  0  0  0  0  0
   14.5414    9.3805    3.6466 H   0  0  0  0  0  0  0  0  0  0  0  0
   12.3161   10.3468    2.1360 H   0  0  0  0  0  0  0  0  0  0  0  0
   12.3933   10.1917    3.9024 H   0  0  0  0  0  0  0  0  0  0  0  0
   10.1549   10.7898    2.1695 H   0  0  0  0  0  0  0  0  0  0  0  0
   10.2218   10.8161    3.9507 H   0  0  0  0  0  0  0  0  0  0  0  0
  1  2  1  0
  2  3  1  0
  3  4  1  0
  4  5  1  0
  5  6  1  0
  6  7  1  0
  7  8  2  0
  7  9  1  0
  9 10  1  0
 10 11  1  0
 11 12  1  0
 12 13  1  0
 13 14  1  0
 13 15  1  0
 12 16  1  0
 16 17  1  0
 17  9  1  0
  1 18  1  0
  1 19  1  0
  1 20  1  0
  2 21  1  0
  2 22  1  0
  3 23  1  0
  3 24  1  0
  4 25  1  0
  4 26  1  0
  5 27  1  0
  5 28  1  0
  6 29  1  0
  9 30  1  0
 10 31  1  0
 10 32  1  0
 11 33  1  0
 11 34  1  0
 12 35  1  0
 13 36  1  0
 14 37  1  0
 14 38  1  0
 14 39  1  0
 15 40  1  0
 15 41  1  0
 15 42  1  0
 16 43  1  0
 16 44  1  0
 17 45  1  0
 17 46  1  0
M  CHG  1  15   1
M  END
>  <EmbedRMS>  (26) 
0.16933320433084326

$$$$

     RDKit          3D

 41 41  0  0  0  0  0  0  0  0999 V2000
   14.0115    7.0506    1.2528 C   0  0  0  0  0  0  0  0  0  0  0  0
   13.6007    8.3244    1.9897 C   0  0  0  0  0  0  0  0  0  0  0  0
   14.7026    8.8917    2.7697 N   0  0  0  0  0  4  0  0  0  0  0  0
   12.2613    8.3272    2.7670 C   0  0  0  0  0  0  0  0  0  0  0  0
   11.1798    7.4395    2.1343 C   0  0  0  0  0  0  0  0  0  0  0  0
    9.7449    7.7260    2.5438 C   0  0  0  0  0  0  0  0  0  0  0  0
    9.4498    9.2016    2.6348 C   0  0  0  0  0  0  0  0  0  0  0  0
    7.9883    9.5247    2.7224 C   0  0  0  0  0  0  0  0  0  0  0  0
    7.4124    9.6708    1.6173 O   0  0  0  0  0  0  0  0  0  0  0  0
    7.2314    9.6900    3.9341 N   0  0  0  0  0  0  0  0  0  0  0  0
    5.8391   10.1600    3.8802 C   0  0  0  0  0  0  0  0  0  0  0  0
    5.7848   11.6424    3.4802 C   0  0  0  0  0  0  0  0  0  0  0  0
    4.4046   12.0986    3.3235 N   0  0  0  0  0  0  0  0  0  0  0  0
    4.0979   13.4521    2.9752 C   0  0  0  0  0  0  0  0  0  0  0  0
    5.0150   14.2987    2.8019 O   0  0  0  0  0  0  0  0  0  0  0  0
   10.3846   10.0200    3.4814 C   0  0  0  0  0  0  0  0  0  0  0  0
   11.8491    9.7807    3.1212 C   0  0  0  0  0  0  0  0  0  0  0  0
   14.9833    7.1928    0.7338 H   0  0  0  0  0  0  0  0  0  0  0  0
   14.1168    6.2176    1.9793 H   0  0  0  0  0  0  0  0  0  0  0  0
   13.2678    6.7648    0.4810 H   0  0  0  0  0  0  0  0  0  0  0  0
   13.4367    9.0286    1.1409 H   0  0  0  0  0  0  0  0  0  0  0  0
   15.5920    8.8676    2.2197 H   0  0  0  0  0  0  0  0  0  0  0  0
   14.5201    9.8921    3.0081 H   0  0  0  0  0  0  0  0  0  0  0  0
   14.8383    8.3412    3.6484 H   0  0  0  0  0  0  0  0  0  0  0  0
   12.4685    7.8405    3.7468 H   0  0  0  0  0  0  0  0  0  0  0  0
   11.4064    6.3669    2.3233 H   0  0  0  0  0  0  0  0  0  0  0  0
   11.2136    7.5916    1.0333 H   0  0  0  0  0  0  0  0  0  0  0  0
    9.5620    7.2714    3.5419 H   0  0  0  0  0  0  0  0  0  0  0  0
    9.0548    7.2351    1.8212 H   0  0  0  0  0  0  0  0  0  0  0  0
    9.7207    9.5606    1.6108 H   0  0  0  0  0  0  0  0  0  0  0  0
    7.6691    9.4627    4.8547 H   0  0  0  0  0  0  0  0  0  0  0  0
    5.2621    9.5419    3.1581 H   0  0  0  0  0  0  0  0  0  0  0  0
    5.3740   10.0392    4.8825 H   0  0  0  0  0  0  0  0  0  0  0  0
    6.3234   11.8023    2.5228 H   0  0  0  0  0  0  0  0  0  0  0  0
    6.2851   12.2470    4.2676 H   0  0  0  0  0  0  0  0  0  0  0  0
    3.6094   11.4357    3.4671 H   0  0  0  0  0  0  0  0  0  0  0  0
    3.0657   13.7552    2.8606 H   0  0  0  0  0  0  0  0  0  0  0  0
   10.1471   11.1031    3.3845 H   0  0  0  0  0  0  0  0  0  0  0  0
   10.2299    9.7359    4.5451 H   0  0  0  0  0  0  0  0  0  0  0  0
   12.4695   10.1520    3.9658 H   0  0  0  0  0  0  0  0  0  0  0  0
   12.0655   10.4407    2.2522 H   0  0  0  0  0  0  0  0  0  0  0  0
  1  2  1  0
  2  3  1  0
  2  4  1  0
  4  5  1  0
  5  6  1  0
  6  7  1  0
  7  8  1  0
  8  9  2  0
  8 10  1  0
 10 11  1  0
 11 12  1  0
 12 13  1  0
 13 14  1  0
 14 15  2  0
  7 16  1  0
 16 17  1  0
 17  4  1  0
  1 18  1  0
  1 19  1  0
  1 20  1  0
  2 21  1  0
  3 22  1  0
  3 23  1  0
  3 24  1  0
  4 25  1  0
  5 26  1  0
  5 27  1  0
  6 28  1  0
  6 29  1  0
  7 30  1  0
 10 31  1  0
 11 32  1  0
 11 33  1  0
 12 34  1  0
 12 35  1  0
 13 36  1  0
 14 37  1  0
 16 38  1  0
 16 39  1  0
 17 40  1  0
 17 41  1  0
M  CHG  1   3   1
M  END
>  <EmbedRMS>  (27) 
0.30207850723488733

$$$$

     RDKit          3D

 42 42  0  0  0  0  0  0  0  0999 V2000
   14.0110    7.0505    1.2528 C   0  0  0  0  0  0  0  0  0  0  0  0
   13.6005    8.3243    1.9898 C   0  0  0  0  0  0  0  0  0  0  0  0
   14.7026    8.8916    2.7694 N   0  0  0  0  0  4  0  0  0  0  0  0
   12.2613    8.3272    2.7674 C   0  0  0  0  0  0  0  0  0  0  0  0
   11.1790    7.4403    2.1348 C   0  0  0  0  0  0  0  0  0  0  0  0
    9.7443    7.7263    2.5463 C   0  0  0  0  0  0  0  0  0  0  0  0
    9.4492    9.2018    2.6421 C   0  0  0  0  0  0  0  0  0  0  0  0
    7.9874    9.5271    2.7285 C   0  0  0  0  0  0  0  0  0  0  0  0
    7.4181    9.6849    1.6206 O   0  0  0  0  0  0  0  0  0  0  0  0
    7.2187    9.6821    3.9349 N   0  0  0  0  0  0  0  0  0  0  0  0
    5.8189   10.1170    3.8146 C   0  0  0  0  0  0  0  0  0  0  0  0
    5.1334   10.2659    5.1694 C   0  0  0  0  0  0  0  0  0  0  0  0
    3.7505   10.7132    4.9895 N   0  0  0  0  0  0  0  0  0  0  0  0
    2.8774   10.9284    6.1003 C   0  0  0  0  0  0  0  0  0  0  0  0
    3.2808   10.7322    7.2779 O   0  0  0  0  0  0  0  0  0  0  0  0
    1.5730   11.3572    5.8773 O   0  0  0  0  0  0  0  0  0  0  0  0
   10.3860   10.0198    3.4861 C   0  0  0  0  0  0  0  0  0  0  0  0
   11.8495    9.7807    3.1220 C   0  0  0  0  0  0  0  0  0  0  0  0
   14.9821    7.1931    0.7324 H   0  0  0  0  0  0  0  0  0  0  0  0
   14.1177    6.2179    1.9794 H   0  0  0  0  0  0  0  0  0  0  0  0
   13.2664    6.7640    0.4820 H   0  0  0  0  0  0  0  0  0  0  0  0
   13.4362    9.0285    1.1410 H   0  0  0  0  0  0  0  0  0  0  0  0
   14.5208    9.8924    3.0067 H   0  0  0  0  0  0  0  0  0  0  0  0
   15.5921    8.8662    2.2197 H   0  0  0  0  0  0  0  0  0  0  0  0
   14.8377    8.3419    3.6487 H   0  0  0  0  0  0  0  0  0  0  0  0
   12.4686    7.8402    3.7470 H   0  0  0  0  0  0  0  0  0  0  0  0
   11.2118    7.5937    1.0339 H   0  0  0  0  0  0  0  0  0  0  0  0
   11.4059    6.3674    2.3223 H   0  0  0  0  0  0  0  0  0  0  0  0
    9.5622    7.2690    3.5434 H   0  0  0  0  0  0  0  0  0  0  0  0
    9.0533    7.2374    1.8231 H   0  0  0  0  0  0  0  0  0  0  0  0
    9.7207    9.5612    1.6183 H   0  0  0  0  0  0  0  0  0  0  0  0
    7.6622    9.5169    4.8664 H   0  0  0  0  0  0  0  0  0  0  0  0
    5.2573    9.3711    3.2099 H   0  0  0  0  0  0  0  0  0  0  0  0
    5.7871   11.0961    3.2875 H   0  0  0  0  0  0  0  0  0  0  0  0
    5.1403    9.2868    5.6958 H   0  0  0  0  0  0  0  0  0  0  0  0
    5.6855   11.0108    5.7825 H   0  0  0  0  0  0  0  0  0  0  0  0
    3.3717   10.8850    4.0301 H   0  0  0  0  0  0  0  0  0  0  0  0
    0.9386   11.5153    6.6511 H   0  0  0  0  0  0  0  0  0  0  0  0
   10.1484   11.1029    3.3903 H   0  0  0  0  0  0  0  0  0  0  0  0
   10.2339    9.7352    4.5500 H   0  0  0  0  0  0  0  0  0  0  0  0
   12.4719   10.1526    3.9648 H   0  0  0  0  0  0  0  0  0  0  0  0
   12.0636   10.4402    2.2521 H   0  0  0  0  0  0  0  0  0  0  0  0
  1  2  1  0
  2  3  1  0
  2  4  1  0
  4  5  1  0
  5  6  1  0
  6  7  1  0
  7  8  1  0
  8  9  2  0
  8 10  1  0
 10 11  1  0
 11 12  1  0
 12 13  1  0
 13 14  1  0
 14 15  2  0
 14 16  1  0
  7 17  1  0
 17 18  1  0
 18  4  1  0
  1 19  1  0
  1 20  1  0
  1 21  1  0
  2 22  1  0
  3 23  1  0
  3 24  1  0
  3 25  1  0
  4 26  1  0
  5 27  1  0
  5 28  1  0
  6 29  1  0
  6 30  1  0
  7 31  1  0
 10 32  1  0
 11 33  1  0
 11 34  1  0
 12 35  1  0
 12 36  1  0
 13 37  1  0
 16 38  1  0
 17 39  1  0
 17 40  1  0
 18 41  1  0
 18 42  1  0
M  CHG  1   3   1
M  END
>  <EmbedRMS>  (28) 
0.2924325341636962

$$$$

     RDKit          3D

 44 44  0  0  0  0  0  0  0  0999 V2000
   14.0122    7.0504    1.2528 C   0  0  0  0  0  0  0  0  0  0  0  0
   13.6014    8.3242    1.9895 C   0  0  0  0  0  0  0  0  0  0  0  0
   14.7031    8.8917    2.7695 N   0  0  0  0  0  4  0  0  0  0  0  0
   12.2621    8.3269    2.7668 C   0  0  0  0  0  0  0  0  0  0  0  0
   11.1808    7.4388    2.1343 C   0  0  0  0  0  0  0  0  0  0  0  0
    9.7461    7.7259    2.5428 C   0  0  0  0  0  0  0  0  0  0  0  0
    9.4521    9.2015    2.6313 C   0  0  0  0  0  0  0  0  0  0  0  0
    7.9916    9.5235    2.7203 C   0  0  0  0  0  0  0  0  0  0  0  0
    7.4126    9.6688    1.6167 O   0  0  0  0  0  0  0  0  0  0  0  0
    7.2400    9.6875    3.9339 N   0  0  0  0  0  0  0  0  0  0  0  0
    5.8476   10.1523    3.8888 C   0  0  0  0  0  0  0  0  0  0  0  0
    5.7866   11.6348    3.4787 C   0  0  0  0  0  0  0  0  0  0  0  0
    4.3465   12.1386    3.3126 C   0  0  0  0  0  0  0  0  0  0  0  0
    3.6290   12.3298    4.6495 C   0  0  0  0  0  0  0  0  0  0  0  0
    4.2413   13.3567    5.3785 O   0  0  0  0  0  0  0  0  0  0  0  0
   10.3855   10.0198    3.4797 C   0  0  0  0  0  0  0  0  0  0  0  0
   11.8500    9.7805    3.1211 C   0  0  0  0  0  0  0  0  0  0  0  0
   13.2687    6.7646    0.4806 H   0  0  0  0  0  0  0  0  0  0  0  0
   14.1172    6.2175    1.9793 H   0  0  0  0  0  0  0  0  0  0  0  0
   14.9842    7.1925    0.7340 H   0  0  0  0  0  0  0  0  0  0  0  0
   13.4373    9.0283    1.1407 H   0  0  0  0  0  0  0  0  0  0  0  0
   14.8388    8.3412    3.6483 H   0  0  0  0  0  0  0  0  0  0  0  0
   15.5925    8.8677    2.2196 H   0  0  0  0  0  0  0  0  0  0  0  0
   14.5205    9.8921    3.0080 H   0  0  0  0  0  0  0  0  0  0  0  0
   12.4694    7.8404    3.7467 H   0  0  0  0  0  0  0  0  0  0  0  0
   11.4072    6.3663    2.3242 H   0  0  0  0  0  0  0  0  0  0  0  0
   11.2151    7.5901    1.0331 H   0  0  0  0  0  0  0  0  0  0  0  0
    9.0562    7.2342    1.8205 H   0  0  0  0  0  0  0  0  0  0  0  0
    9.5628    7.2727    3.5415 H   0  0  0  0  0  0  0  0  0  0  0  0
    9.7228    9.5602    1.6072 H   0  0  0  0  0  0  0  0  0  0  0  0
    7.6837    9.4625    4.8522 H   0  0  0  0  0  0  0  0  0  0  0  0
    5.2667    9.5248    3.1781 H   0  0  0  0  0  0  0  0  0  0  0  0
    5.4038   10.0240    4.8977 H   0  0  0  0  0  0  0  0  0  0  0  0
    6.3284   12.2520    4.2280 H   0  0  0  0  0  0  0  0  0  0  0  0
    6.3039   11.7726    2.5063 H   0  0  0  0  0  0  0  0  0  0  0  0
    3.7695   11.4279    2.6816 H   0  0  0  0  0  0  0  0  0  0  0  0
    4.3660   13.1138    2.7785 H   0  0  0  0  0  0  0  0  0  0  0  0
    3.6223   11.3875    5.2378 H   0  0  0  0  0  0  0  0  0  0  0  0
    2.5718   12.6091    4.4429 H   0  0  0  0  0  0  0  0  0  0  0  0
    3.7359   13.4294    6.2295 H   0  0  0  0  0  0  0  0  0  0  0  0
   10.1480   11.1029    3.3827 H   0  0  0  0  0  0  0  0  0  0  0  0
   10.2298    9.7354    4.5431 H   0  0  0  0  0  0  0  0  0  0  0  0
   12.4697   10.1514    3.9664 H   0  0  0  0  0  0  0  0  0  0  0  0
   12.0674   10.4408    2.2526 H   0  0  0  0  0  0  0  0  0  0  0  0
  1  2  1  0
  2  3  1  0
  2  4  1  0
  4  5  1  0
  5  6  1  0
  6  7  1  0
  7  8  1  0
  8  9  2  0
  8 10  1  0
 10 11  1  0
 11 12  1  0
 12 13  1  0
 13 14  1  0
 14 15  1  0
  7 16  1  0
 16 17  1  0
 17  4  1  0
  1 18  1  0
  1 19  1  0
  1 20  1  0
  2 21  1  0
  3 22  1  0
  3 23  1  0
  3 24  1  0
  4 25  1  0
  5 26  1  0
  5 27  1  0
  6 28  1  0
  6 29  1  0
  7 30  1  0
 10 31  1  0
 11 32  1  0
 11 33  1  0
 12 34  1  0
 12 35  1  0
 13 36  1  0
 13 37  1  0
 14 38  1  0
 14 39  1  0
 15 40  1  0
 16 41  1  0
 16 42  1  0
 17 43  1  0
 17 44  1  0
M  CHG  1   3   1
M  END
>  <EmbedRMS>  (29) 
0.3028787039700591

$$$$

     RDKit          3D

 39 39  0  0  0  0  0  0  0  0999 V2000
   13.9228    7.3284    1.0385 C   0  0  0  0  0  0  0  0  0  0  0  0
   13.7075    7.9211    2.4414 C   0  0  0  0  0  0  0  0  0  0  0  0
   14.6424    9.0268    2.6701 N   0  0  0  0  0  4  0  0  0  0  0  0
   12.2294    8.2935    2.8216 C   0  0  0  0  0  0  0  0  0  0  0  0
   11.1739    7.4160    2.1504 C   0  0  0  0  0  0  0  0  0  0  0  0
    9.7354    7.7234    2.5380 C   0  0  0  0  0  0  0  0  0  0  0  0
    9.4499    9.2033    2.6320 C   0  0  0  0  0  0  0  0  0  0  0  0
    7.9882    9.5365    2.7266 C   0  0  0  0  0  0  0  0  0  0  0  0
    7.4142    9.6907    1.6205 O   0  0  0  0  0  0  0  0  0  0  0  0
    7.2198    9.6908    3.9338 N   0  0  0  0  0  0  0  0  0  0  0  0
    5.8144   10.1123    3.8138 C   0  0  0  0  0  0  0  0  0  0  0  0
    5.1548   10.2636    5.1455 C   0  0  0  0  0  0  0  0  0  0  0  0
    4.5006    9.3007    5.6284 O   0  0  0  0  0  0  0  0  0  0  0  0
    5.2713   11.4924    5.8669 N   0  0  0  0  0  0  0  0  0  0  0  0
    4.5239   11.7039    7.4530 S   0  0  0  0  0  0  0  0  0  0  0  0
   10.4246   10.0508    3.4182 C   0  0  0  0  0  0  0  0  0  0  0  0
   11.8788    9.7842    2.9974 C   0  0  0  0  0  0  0  0  0  0  0  0
   14.9998    7.1184    0.8656 H   0  0  0  0  0  0  0  0  0  0  0  0
   13.3782    6.3678    0.9248 H   0  0  0  0  0  0  0  0  0  0  0  0
   13.5732    8.0449    0.2654 H   0  0  0  0  0  0  0  0  0  0  0  0
   14.0112    7.0969    3.1299 H   0  0  0  0  0  0  0  0  0  0  0  0
   14.4330    9.8276    2.0311 H   0  0  0  0  0  0  0  0  0  0  0  0
   15.6232    8.7090    2.4921 H   0  0  0  0  0  0  0  0  0  0  0  0
   14.5985    9.3364    3.6677 H   0  0  0  0  0  0  0  0  0  0  0  0
   12.1629    7.9503    3.8813 H   0  0  0  0  0  0  0  0  0  0  0  0
   11.2459    7.5647    1.0514 H   0  0  0  0  0  0  0  0  0  0  0  0
   11.3807    6.3426    2.3583 H   0  0  0  0  0  0  0  0  0  0  0  0
    9.5320    7.2696    3.5325 H   0  0  0  0  0  0  0  0  0  0  0  0
    9.0502    7.2407    1.8053 H   0  0  0  0  0  0  0  0  0  0  0  0
    9.7009    9.5362    1.5941 H   0  0  0  0  0  0  0  0  0  0  0  0
    7.6689    9.5385    4.8650 H   0  0  0  0  0  0  0  0  0  0  0  0
    5.7634   11.0829    3.2742 H   0  0  0  0  0  0  0  0  0  0  0  0
    5.2546    9.3604    3.2155 H   0  0  0  0  0  0  0  0  0  0  0  0
    5.8188   12.2853    5.4644 H   0  0  0  0  0  0  0  0  0  0  0  0
    5.6712   11.2281    8.1148 H   0  0  0  0  0  0  0  0  0  0  0  0
   10.1924   11.1306    3.2841 H   0  0  0  0  0  0  0  0  0  0  0  0
   10.3107    9.8094    4.4973 H   0  0  0  0  0  0  0  0  0  0  0  0
   12.0560   10.2952    2.0262 H   0  0  0  0  0  0  0  0  0  0  0  0
   12.5389   10.2611    3.7524 H   0  0  0  0  0  0  0  0  0  0  0  0
  1  2  1  0
  2  3  1  0
  2  4  1  0
  4  5  1  0
  5  6  1  0
  6  7  1  0
  7  8  1  0
  8  9  2  0
  8 10  1  0
 10 11  1  0
 11 12  1  0
 12 13  2  0
 12 14  1  0
 14 15  1  0
  7 16  1  0
 16 17  1  0
 17  4  1  0
  1 18  1  0
  1 19  1  0
  1 20  1  0
  2 21  1  0
  3 22  1  0
  3 23  1  0
  3 24  1  0
  4 25  1  0
  5 26  1  0
  5 27  1  0
  6 28  1  0
  6 29  1  0
  7 30  1  0
 10 31  1  0
 11 32  1  0
 11 33  1  0
 14 34  1  0
 15 35  1  0
 16 36  1  0
 16 37  1  0
 17 38  1  0
 17 39  1  0
M  CHG  1   3   1
M  END
>  <EmbedRMS>  (30) 
0.26838957564480415

$$$$

     RDKit          3D

 43 43  0  0  0  0  0  0  0  0999 V2000
   14.0284    7.0396    1.2342 C   0  0  0  0  0  0  0  0  0  0  0  0
   13.6697    8.3363    1.9396 C   0  0  0  0  0  0  0  0  0  0  0  0
   14.6137    8.7685    2.9623 N   0  0  0  0  0  4  0  0  0  0  0  0
   12.1584    8.5896    2.2119 C   0  0  0  0  0  0  0  0  0  0  0  0
   11.2411    7.3768    2.4518 C   0  0  0  0  0  0  0  0  0  0  0  0
    9.7894    7.8238    2.2104 C   0  0  0  0  0  0  0  0  0  0  0  0
    9.4123    8.9837    3.1501 C   0  0  0  0  0  0  0  0  0  0  0  0
    8.0162    9.4657    2.8726 C   0  0  0  0  0  0  0  0  0  0  0  0
    7.6251    9.6725    1.6892 O   0  0  0  0  0  0  0  0  0  0  0  0
    7.1459    9.7188    3.9745 N   0  0  0  0  0  0  0  0  0  0  0  0
    5.7691   10.1593    3.7853 C   0  0  0  0  0  0  0  0  0  0  0  0
    5.0518   10.2638    5.1306 C   0  0  0  0  0  0  0  0  0  0  0  0
    4.8161    8.8785    5.7382 C   0  0  0  0  0  0  0  0  0  0  0  0
    4.1653    9.0116    7.0719 C   0  0  0  0  0  0  0  0  0  0  0  0
    2.9093    9.0084    7.1628 O   0  0  0  0  0  0  0  0  0  0  0  0
    4.9479    9.1880    8.2079 O   0  0  0  0  0  0  0  0  0  0  0  0
   10.4071   10.1583    3.0869 C   0  0  0  0  0  0  0  0  0  0  0  0
   11.8562    9.6803    3.2543 C   0  0  0  0  0  0  0  0  0  0  0  0
   13.9082    6.1865    1.9344 H   0  0  0  0  0  0  0  0  0  0  0  0
   15.0836    7.0602    0.8856 H   0  0  0  0  0  0  0  0  0  0  0  0
   13.3775    6.8822    0.3472 H   0  0  0  0  0  0  0  0  0  0  0  0
   13.8836    9.0581    1.1114 H   0  0  0  0  0  0  0  0  0  0  0  0
   15.5899    8.5017    2.6976 H   0  0  0  0  0  0  0  0  0  0  0  0
   14.3778    8.3022    3.8677 H   0  0  0  0  0  0  0  0  0  0  0  0
   14.5969    9.8058    3.0878 H   0  0  0  0  0  0  0  0  0  0  0  0
   11.8034    9.0088    1.2373 H   0  0  0  0  0  0  0  0  0  0  0  0
   11.3696    6.9867    3.4852 H   0  0  0  0  0  0  0  0  0  0  0  0
   11.4642    6.5563    1.7396 H   0  0  0  0  0  0  0  0  0  0  0  0
    9.6604    8.1224    1.1459 H   0  0  0  0  0  0  0  0  0  0  0  0
    9.1137    6.9614    2.4010 H   0  0  0  0  0  0  0  0  0  0  0  0
    9.4452    8.5779    4.1866 H   0  0  0  0  0  0  0  0  0  0  0  0
    7.5294    9.6146    4.9418 H   0  0  0  0  0  0  0  0  0  0  0  0
    5.2315    9.4464    3.1222 H   0  0  0  0  0  0  0  0  0  0  0  0
    5.7718   11.1576    3.2970 H   0  0  0  0  0  0  0  0  0  0  0  0
    4.0706   10.7627    4.9708 H   0  0  0  0  0  0  0  0  0  0  0  0
    5.6487   10.8963    5.8250 H   0  0  0  0  0  0  0  0  0  0  0  0
    4.1663    8.2757    5.0664 H   0  0  0  0  0  0  0  0  0  0  0  0
    5.7762    8.3351    5.8660 H   0  0  0  0  0  0  0  0  0  0  0  0
    4.5215    9.2980    9.1202 H   0  0  0  0  0  0  0  0  0  0  0  0
   10.1722   10.8875    3.8930 H   0  0  0  0  0  0  0  0  0  0  0  0
   10.3049   10.6875    2.1127 H   0  0  0  0  0  0  0  0  0  0  0  0
   12.5094   10.5637    3.0955 H   0  0  0  0  0  0  0  0  0  0  0  0
   12.0206    9.2941    4.2841 H   0  0  0  0  0  0  0  0  0  0  0  0
  1  2  1  0
  2  3  1  0
  2  4  1  0
  4  5  1  0
  5  6  1  0
  6  7  1  0
  7  8  1  0
  8  9  2  0
  8 10  1  0
 10 11  1  0
 11 12  1  0
 12 13  1  0
 13 14  1  0
 14 15  2  0
 14 16  1  0
  7 17  1  0
 17 18  1  0
 18  4  1  0
  1 19  1  0
  1 20  1  0
  1 21  1  0
  2 22  1  0
  3 23  1  0
  3 24  1  0
  3 25  1  0
  4 26  1  0
  5 27  1  0
  5 28  1  0
  6 29  1  0
  6 30  1  0
  7 31  1  0
 10 32  1  0
 11 33  1  0
 11 34  1  0
 12 35  1  0
 12 36  1  0
 13 37  1  0
 13 38  1  0
 16 39  1  0
 17 40  1  0
 17 41  1  0
 18 42  1  0
 18 43  1  0
M  CHG  1   3   1
M  END
>  <EmbedRMS>  (31) 
0.18258946011905208

$$$$

     RDKit          3D

 44 44  0  0  0  0  0  0  0  0999 V2000
    2.2726   12.2730    1.9197 C   0  0  0  0  0  0  0  0  0  0  0  0
    3.6716   11.7753    2.0767 C   0  0  0  0  0  0  0  0  0  0  0  0
    4.1993   11.0975    1.1535 O   0  0  0  0  0  0  0  0  0  0  0  0
    4.4123   12.0913    3.2636 N   0  0  0  0  0  0  0  0  0  0  0  0
    5.7882   11.6467    3.4755 C   0  0  0  0  0  0  0  0  0  0  0  0
    5.8325   10.1636    3.8751 C   0  0  0  0  0  0  0  0  0  0  0  0
    7.2226    9.6885    3.9384 N   0  0  0  0  0  0  0  0  0  0  0  0
    7.9822    9.5147    2.7306 C   0  0  0  0  0  0  0  0  0  0  0  0
    7.4090    9.6628    1.6229 O   0  0  0  0  0  0  0  0  0  0  0  0
    9.4448    9.1929    2.6561 C   0  0  0  0  0  0  0  0  0  0  0  0
    9.7666    7.7134    2.4316 C   0  0  0  0  0  0  0  0  0  0  0  0
   11.2651    7.3640    2.5402 C   0  0  0  0  0  0  0  0  0  0  0  0
   12.1439    8.5866    2.2323 C   0  0  0  0  0  0  0  0  0  0  0  0
   13.6549    8.3400    1.9333 C   0  0  0  0  0  0  0  0  0  0  0  0
   14.0142    7.0450    1.2245 C   0  0  0  0  0  0  0  0  0  0  0  0
   14.6174    8.7740    2.9401 N   0  0  0  0  0  4  0  0  0  0  0  0
   11.8897    9.6849    3.2851 C   0  0  0  0  0  0  0  0  0  0  0  0
   10.4047   10.0809    3.4318 C   0  0  0  0  0  0  0  0  0  0  0  0
    1.7850   11.7977    1.0420 H   0  0  0  0  0  0  0  0  0  0  0  0
    2.2858   13.3733    1.7753 H   0  0  0  0  0  0  0  0  0  0  0  0
    1.6851   12.0305    2.8298 H   0  0  0  0  0  0  0  0  0  0  0  0
    3.9764   12.7171    3.9782 H   0  0  0  0  0  0  0  0  0  0  0  0
    6.3806   11.8354    2.5554 H   0  0  0  0  0  0  0  0  0  0  0  0
    6.2447   12.2471    4.2922 H   0  0  0  0  0  0  0  0  0  0  0  0
    5.2582    9.5431    3.1538 H   0  0  0  0  0  0  0  0  0  0  0  0
    5.3593   10.0461    4.8739 H   0  0  0  0  0  0  0  0  0  0  0  0
    7.6549    9.4618    4.8617 H   0  0  0  0  0  0  0  0  0  0  0  0
    9.6827    9.5850    1.6377 H   0  0  0  0  0  0  0  0  0  0  0  0
    9.3865    7.3953    1.4337 H   0  0  0  0  0  0  0  0  0  0  0  0
    9.2159    7.1115    3.1869 H   0  0  0  0  0  0  0  0  0  0  0  0
   11.4755    6.5310    1.8379 H   0  0  0  0  0  0  0  0  0  0  0  0
   11.4952    7.0012    3.5662 H   0  0  0  0  0  0  0  0  0  0  0  0
   11.7508    8.9795    1.2653 H   0  0  0  0  0  0  0  0  0  0  0  0
   13.8449    9.0656    1.1033 H   0  0  0  0  0  0  0  0  0  0  0  0
   15.0592    7.0794    0.8478 H   0  0  0  0  0  0  0  0  0  0  0  0
   13.9249    6.1936    1.9314 H   0  0  0  0  0  0  0  0  0  0  0  0
   13.3412    6.8742    0.3568 H   0  0  0  0  0  0  0  0  0  0  0  0
   14.5656    9.8050    3.1029 H   0  0  0  0  0  0  0  0  0  0  0  0
   14.4333    8.2660    3.8350 H   0  0  0  0  0  0  0  0  0  0  0  0
   15.5929    8.5557    2.6317 H   0  0  0  0  0  0  0  0  0  0  0  0
   12.4544   10.6000    3.0036 H   0  0  0  0  0  0  0  0  0  0  0  0
   12.2718    9.3427    4.2720 H   0  0  0  0  0  0  0  0  0  0  0  0
   10.2656   11.1439    3.1275 H   0  0  0  0  0  0  0  0  0  0  0  0
   10.1319   10.0247    4.5078 H   0  0  0  0  0  0  0  0  0  0  0  0
  1  2  1  0
  2  3  2  0
  2  4  1  0
  4  5  1  0
  5  6  1  0
  6  7  1  0
  7  8  1  0
  8  9  2  0
  8 10  1  0
 10 11  1  0
 11 12  1  0
 12 13  1  0
 13 14  1  0
 14 15  1  0
 14 16  1  0
 13 17  1  0
 17 18  1  0
 18 10  1  0
  1 19  1  0
  1 20  1  0
  1 21  1  0
  4 22  1  0
  5 23  1  0
  5 24  1  0
  6 25  1  0
  6 26  1  0
  7 27  1  0
 10 28  1  0
 11 29  1  0
 11 30  1  0
 12 31  1  0
 12 32  1  0
 13 33  1  0
 14 34  1  0
 15 35  1  0
 15 36  1  0
 15 37  1  0
 16 38  1  0
 16 39  1  0
 16 40  1  0
 17 41  1  0
 17 42  1  0
 18 43  1  0
 18 44  1  0
M  CHG  1  16   1
M  END
>  <EmbedRMS>  (32) 
0.2509587523478319

$$$$

     RDKit          3D

 45 45  0  0  0  0  0  0  0  0999 V2000
    1.3162    8.6480    2.4764 C   0  0  0  0  0  0  0  0  0  0  0  0
    2.7690    8.2394    2.6571 C   0  0  0  0  0  0  0  0  0  0  0  0
    3.5588    9.3719    3.1531 N   0  0  0  0  0  0  0  0  0  0  0  0
    4.9457    8.9370    3.3408 C   0  0  0  0  0  0  0  0  0  0  0  0
    5.8111   10.0828    3.8756 C   0  0  0  0  0  0  0  0  0  0  0  0
    7.2212    9.6714    3.9388 N   0  0  0  0  0  0  0  0  0  0  0  0
    7.9871    9.5236    2.7309 C   0  0  0  0  0  0  0  0  0  0  0  0
    7.4226    9.7001    1.6228 O   0  0  0  0  0  0  0  0  0  0  0  0
    9.4479    9.1954    2.6571 C   0  0  0  0  0  0  0  0  0  0  0  0
    9.7662    7.7150    2.4336 C   0  0  0  0  0  0  0  0  0  0  0  0
   11.2648    7.3640    2.5399 C   0  0  0  0  0  0  0  0  0  0  0  0
   12.1448    8.5862    2.2323 C   0  0  0  0  0  0  0  0  0  0  0  0
   13.6556    8.3392    1.9331 C   0  0  0  0  0  0  0  0  0  0  0  0
   14.0143    7.0441    1.2245 C   0  0  0  0  0  0  0  0  0  0  0  0
   14.6184    8.7732    2.9398 N   0  0  0  0  0  4  0  0  0  0  0  0
   11.8922    9.6845    3.2853 C   0  0  0  0  0  0  0  0  0  0  0  0
   10.4083   10.0818    3.4329 C   0  0  0  0  0  0  0  0  0  0  0  0
    1.2358    9.4590    1.7217 H   0  0  0  0  0  0  0  0  0  0  0  0
    0.7229    7.7764    2.1277 H   0  0  0  0  0  0  0  0  0  0  0  0
    0.8974    9.0039    3.4416 H   0  0  0  0  0  0  0  0  0  0  0  0
    2.8047    7.3991    3.3860 H   0  0  0  0  0  0  0  0  0  0  0  0
    3.1635    7.8833    1.6781 H   0  0  0  0  0  0  0  0  0  0  0  0
    3.5555   10.1116    2.4109 H   0  0  0  0  0  0  0  0  0  0  0  0
    5.3566    8.5628    2.3778 H   0  0  0  0  0  0  0  0  0  0  0  0
    4.9851    8.1045    4.0788 H   0  0  0  0  0  0  0  0  0  0  0  0
    5.4617   10.3551    4.8951 H   0  0  0  0  0  0  0  0  0  0  0  0
    5.7127   10.9819    3.2288 H   0  0  0  0  0  0  0  0  0  0  0  0
    7.6863    9.5527    4.8663 H   0  0  0  0  0  0  0  0  0  0  0  0
    9.6891    9.5852    1.6385 H   0  0  0  0  0  0  0  0  0  0  0  0
    9.3835    7.3966    1.4368 H   0  0  0  0  0  0  0  0  0  0  0  0
    9.2157    7.1152    3.1908 H   0  0  0  0  0  0  0  0  0  0  0  0
   11.4737    6.5317    1.8364 H   0  0  0  0  0  0  0  0  0  0  0  0
   11.4958    6.9999    3.5652 H   0  0  0  0  0  0  0  0  0  0  0  0
   11.7524    8.9793    1.2652 H   0  0  0  0  0  0  0  0  0  0  0  0
   13.8459    9.0645    1.1030 H   0  0  0  0  0  0  0  0  0  0  0  0
   13.3413    6.8735    0.3567 H   0  0  0  0  0  0  0  0  0  0  0  0
   13.9244    6.1928    1.9314 H   0  0  0  0  0  0  0  0  0  0  0  0
   15.0594    7.0779    0.8479 H   0  0  0  0  0  0  0  0  0  0  0  0
   15.5937    8.5539    2.6315 H   0  0  0  0  0  0  0  0  0  0  0  0
   14.5676    9.8044    3.1018 H   0  0  0  0  0  0  0  0  0  0  0  0
   14.4339    8.2659    3.8350 H   0  0  0  0  0  0  0  0  0  0  0  0
   12.4575   10.5992    3.0035 H   0  0  0  0  0  0  0  0  0  0  0  0
   12.2747    9.3420    4.2719 H   0  0  0  0  0  0  0  0  0  0  0  0
   10.2702   11.1451    3.1293 H   0  0  0  0  0  0  0  0  0  0  0  0
   10.1366   10.0251    4.5091 H   0  0  0  0  0  0  0  0  0  0  0  0
  1  2  1  0
  2  3  1  0
  3  4  1  0
  4  5  1  0
  5  6  1  0
  6  7  1  0
  7  8  2  0
  7  9  1  0
  9 10  1  0
 10 11  1  0
 11 12  1  0
 12 13  1  0
 13 14  1  0
 13 15  1  0
 12 16  1  0
 16 17  1  0
 17  9  1  0
  1 18  1  0
  1 19  1  0
  1 20  1  0
  2 21  1  0
  2 22  1  0
  3 23  1  0
  4 24  1  0
  4 25  1  0
  5 26  1  0
  5 27  1  0
  6 28  1  0
  9 29  1  0
 10 30  1  0
 10 31  1  0
 11 32  1  0
 11 33  1  0
 12 34  1  0
 13 35  1  0
 14 36  1  0
 14 37  1  0
 14 38  1  0
 15 39  1  0
 15 40  1  0
 15 41  1  0
 16 42  1  0
 16 43  1  0
 17 44  1  0
 17 45  1  0
M  CHG  1  15   1
M  END
>  <EmbedRMS>  (33) 
0.25842907567579826

$$$$

     RDKit          3D

 45 46  0  0  0  0  0  0  0  0999 V2000
   13.9234    7.3284    1.0387 C   0  0  0  0  0  0  0  0  0  0  0  0
   13.7078    7.9211    2.4415 C   0  0  0  0  0  0  0  0  0  0  0  0
   14.6425    9.0270    2.6702 N   0  0  0  0  0  4  0  0  0  0  0  0
   12.2296    8.2935    2.8212 C   0  0  0  0  0  0  0  0  0  0  0  0
   11.1748    7.4151    2.1500 C   0  0  0  0  0  0  0  0  0  0  0  0
    9.7363    7.7236    2.5352 C   0  0  0  0  0  0  0  0  0  0  0  0
    9.4519    9.2036    2.6236 C   0  0  0  0  0  0  0  0  0  0  0  0
    7.9915    9.5358    2.7190 C   0  0  0  0  0  0  0  0  0  0  0  0
    7.4120    9.6818    1.6162 O   0  0  0  0  0  0  0  0  0  0  0  0
    7.2350    9.6955    3.9307 N   0  0  0  0  0  0  0  0  0  0  0  0
    5.8469   10.1791    3.8765 C   0  0  0  0  0  0  0  0  0  0  0  0
    5.8178   11.6565    3.5733 C   0  0  0  0  0  0  0  0  0  0  0  0
    5.5838   12.1324    2.2700 C   0  0  0  0  0  0  0  0  0  0  0  0
    5.6158   13.5065    2.0056 C   0  0  0  0  0  0  0  0  0  0  0  0
    5.8776   14.4125    3.0374 C   0  0  0  0  0  0  0  0  0  0  0  0
    6.1100   13.9476    4.3362 C   0  0  0  0  0  0  0  0  0  0  0  0
    6.3690   14.8561    5.3589 O   0  0  0  0  0  0  0  0  0  0  0  0
    6.0842   12.5728    4.6002 C   0  0  0  0  0  0  0  0  0  0  0  0
   10.4238   10.0509    3.4137 C   0  0  0  0  0  0  0  0  0  0  0  0
   11.8790    9.7843    2.9967 C   0  0  0  0  0  0  0  0  0  0  0  0
   13.3792    6.3675    0.9251 H   0  0  0  0  0  0  0  0  0  0  0  0
   13.5736    8.0448    0.2655 H   0  0  0  0  0  0  0  0  0  0  0  0
   15.0005    7.1188    0.8658 H   0  0  0  0  0  0  0  0  0  0  0  0
   14.0115    7.0971    3.1302 H   0  0  0  0  0  0  0  0  0  0  0  0
   15.6234    8.7092    2.4930 H   0  0  0  0  0  0  0  0  0  0  0  0
   14.5979    9.3372    3.6676 H   0  0  0  0  0  0  0  0  0  0  0  0
   14.4336    9.8275    2.0307 H   0  0  0  0  0  0  0  0  0  0  0  0
   12.1629    7.9506    3.8811 H   0  0  0  0  0  0  0  0  0  0  0  0
   11.3811    6.3420    2.3598 H   0  0  0  0  0  0  0  0  0  0  0  0
   11.2480    7.5622    1.0509 H   0  0  0  0  0  0  0  0  0  0  0  0
    9.0518    7.2388    1.8032 H   0  0  0  0  0  0  0  0  0  0  0  0
    9.5317    7.2730    3.5310 H   0  0  0  0  0  0  0  0  0  0  0  0
    9.7032    9.5358    1.5855 H   0  0  0  0  0  0  0  0  0  0  0  0
    7.6851    9.5036    4.8534 H   0  0  0  0  0  0  0  0  0  0  0  0
    5.3598    9.9973    4.8591 H   0  0  0  0  0  0  0  0  0  0  0  0
    5.2687    9.6024    3.1218 H   0  0  0  0  0  0  0  0  0  0  0  0
    5.3778   11.4425    1.4617 H   0  0  0  0  0  0  0  0  0  0  0  0
    5.4362   13.8681    1.0014 H   0  0  0  0  0  0  0  0  0  0  0  0
    5.8995   15.4745    2.8286 H   0  0  0  0  0  0  0  0  0  0  0  0
    6.5423   14.5501    6.3093 H   0  0  0  0  0  0  0  0  0  0  0  0
    6.2787   12.2178    5.6051 H   0  0  0  0  0  0  0  0  0  0  0  0
   10.1917   11.1307    3.2792 H   0  0  0  0  0  0  0  0  0  0  0  0
   10.3070    9.8091    4.4923 H   0  0  0  0  0  0  0  0  0  0  0  0
   12.5374   10.2609    3.7534 H   0  0  0  0  0  0  0  0  0  0  0  0
   12.0585   10.2955    2.0260 H   0  0  0  0  0  0  0  0  0  0  0  0
  1  2  1  0
  2  3  1  0
  2  4  1  0
  4  5  1  0
  5  6  1  0
  6  7  1  0
  7  8  1  0
  8  9  2  0
  8 10  1  0
 10 11  1  0
 11 12  1  0
 12 13  2  0
 13 14  1  0
 14 15  2  0
 15 16  1  0
 16 17  1  0
 16 18  2  0
  7 19  1  0
 19 20  1  0
 20  4  1  0
 18 12  1  0
  1 21  1  0
  1 22  1  0
  1 23  1  0
  2 24  1  0
  3 25  1  0
  3 26  1  0
  3 27  1  0
  4 28  1  0
  5 29  1  0
  5 30  1  0
  6 31  1  0
  6 32  1  0
  7 33  1  0
 10 34  1  0
 11 35  1  0
 11 36  1  0
 13 37  1  0
 14 38  1  0
 15 39  1  0
 17 40  1  0
 18 41  1  0
 19 42  1  0
 19 43  1  0
 20 44  1  0
 20 45  1  0
M  CHG  1   3   1
M  END
>  <EmbedRMS>  (34) 
0.24874902131530774

$$$$

     RDKit          3D

 46 46  0  0  0  0  0  0  0  0999 V2000
    2.3051    7.2496    3.7607 C   0  0  0  0  0  0  0  0  0  0  0  0
    2.5835    8.2584    2.6485 C   0  0  0  0  0  0  0  0  0  0  0  0
    3.4692    9.4106    3.1274 C   0  0  0  0  0  0  0  0  0  0  0  0
    4.9193    8.9668    3.3261 C   0  0  0  0  0  0  0  0  0  0  0  0
    5.7682   10.1363    3.8153 C   0  0  0  0  0  0  0  0  0  0  0  0
    7.1508    9.7119    3.9893 N   0  0  0  0  0  0  0  0  0  0  0  0
    8.0171    9.4692    2.8772 C   0  0  0  0  0  0  0  0  0  0  0  0
    7.6145    9.6885    1.6987 O   0  0  0  0  0  0  0  0  0  0  0  0
    9.4233    8.9852    3.1202 C   0  0  0  0  0  0  0  0  0  0  0  0
    9.7845    7.9361    2.0751 C   0  0  0  0  0  0  0  0  0  0  0  0
   11.1474    7.3156    2.3199 C   0  0  0  0  0  0  0  0  0  0  0  0
   12.2336    8.2986    2.7958 C   0  0  0  0  0  0  0  0  0  0  0  0
   13.7106    7.9146    2.4296 C   0  0  0  0  0  0  0  0  0  0  0  0
   13.9328    7.3323    1.0256 C   0  0  0  0  0  0  0  0  0  0  0  0
   14.6490    9.0162    2.6728 N   0  0  0  0  0  4  0  0  0  0  0  0
   11.8870    9.7889    2.9953 C   0  0  0  0  0  0  0  0  0  0  0  0
   10.3955   10.1685    3.0627 C   0  0  0  0  0  0  0  0  0  0  0  0
    1.9037    7.7594    4.6623 H   0  0  0  0  0  0  0  0  0  0  0  0
    3.2235    6.6882    4.0285 H   0  0  0  0  0  0  0  0  0  0  0  0
    1.5493    6.5163    3.4086 H   0  0  0  0  0  0  0  0  0  0  0  0
    3.0488    7.7435    1.7799 H   0  0  0  0  0  0  0  0  0  0  0  0
    1.6120    8.6795    2.3098 H   0  0  0  0  0  0  0  0  0  0  0  0
    3.0615    9.8339    4.0721 H   0  0  0  0  0  0  0  0  0  0  0  0
    3.4418   10.2134    2.3580 H   0  0  0  0  0  0  0  0  0  0  0  0
    4.9759    8.1564    4.0830 H   0  0  0  0  0  0  0  0  0  0  0  0
    5.3205    8.5813    2.3642 H   0  0  0  0  0  0  0  0  0  0  0  0
    5.3733   10.4943    4.7916 H   0  0  0  0  0  0  0  0  0  0  0  0
    5.7239   10.9832    3.0957 H   0  0  0  0  0  0  0  0  0  0  0  0
    7.5294    9.6311    4.9600 H   0  0  0  0  0  0  0  0  0  0  0  0
    9.4828    8.5150    4.1274 H   0  0  0  0  0  0  0  0  0  0  0  0
    9.7871    8.4043    1.0643 H   0  0  0  0  0  0  0  0  0  0  0  0
    9.0193    7.1276    2.0682 H   0  0  0  0  0  0  0  0  0  0  0  0
   11.0331    6.4805    3.0501 H   0  0  0  0  0  0  0  0  0  0  0  0
   11.4304    6.8346    1.3652 H   0  0  0  0  0  0  0  0  0  0  0  0
   12.2371    8.0287    3.8803 H   0  0  0  0  0  0  0  0  0  0  0  0
   14.0078    7.0847    3.1154 H   0  0  0  0  0  0  0  0  0  0  0  0
   13.5363    6.2977    0.9558 H   0  0  0  0  0  0  0  0  0  0  0  0
   13.4425    7.9753    0.2642 H   0  0  0  0  0  0  0  0  0  0  0  0
   15.0171    7.2740    0.7917 H   0  0  0  0  0  0  0  0  0  0  0  0
   14.5098    9.7861    1.9795 H   0  0  0  0  0  0  0  0  0  0  0  0
   15.6322    8.6695    2.5837 H   0  0  0  0  0  0  0  0  0  0  0  0
   14.5414    9.3805    3.6466 H   0  0  0  0  0  0  0  0  0  0  0  0
   12.3161   10.3468    2.1360 H   0  0  0  0  0  0  0  0  0  0  0  0
   12.3933   10.1917    3.9024 H   0  0  0  0  0  0  0  0  0  0  0  0
   10.1549   10.7898    2.1695 H   0  0  0  0  0  0  0  0  0  0  0  0
   10.2218   10.8161    3.9507 H   0  0  0  0  0  0  0  0  0  0  0  0
  1  2  1  0
  2  3  1  0
  3  4  1  0
  4  5  1  0
  5  6  1  0
  6  7  1  0
  7  8  2  0
  7  9  1  0
  9 10  1  0
 10 11  1  0
 11 12  1  0
 12 13  1  0
 13 14  1  0
 13 15  1  0
 12 16  1  0
 16 17  1  0
 17  9  1  0
  1 18  1  0
  1 19  1  0
  1 20  1  0
  2 21  1  0
  2 22  1  0
  3 23  1  0
  3 24  1  0
  4 25  1  0
  4 26  1  0
  5 27  1  0
  5 28  1  0
  6 29  1  0
  9 30  1  0
 10 31  1  0
 10 32  1  0
 11 33  1  0
 11 34  1  0
 12 35  1  0
 13 36  1  0
 14 37  1  0
 14 38  1  0
 14 39  1  0
 15 40  1  0
 15 41  1  0
 15 42  1  0
 16 43  1  0
 16 44  1  0
 17 45  1  0
 17 46  1  0
M  CHG  1  15   1
M  END
>  <EmbedRMS>  (35) 
0.16933320433084326

$$$$

     RDKit          3D

 46 46  0  0  0  0  0  0  0  0999 V2000
    6.2789   12.4539    2.4062 C   0  0  0  0  0  0  0  0  0  0  0  0
    5.3422   11.6555    3.2841 C   0  0  0  0  0  0  0  0  0  0  0  0
    4.6626   12.3384    4.4426 C   0  0  0  0  0  0  0  0  0  0  0  0
    5.7329   10.1802    3.3679 C   0  0  0  0  0  0  0  0  0  0  0  0
    4.6629    9.1561    3.4640 C   0  0  0  0  0  0  0  0  0  0  0  0
    7.0730    9.7952    3.8422 N   0  0  0  0  0  0  0  0  0  0  0  0
    8.0536    9.4854    2.8289 C   0  0  0  0  0  0  0  0  0  0  0  0
    7.7719    9.6670    1.6099 O   0  0  0  0  0  0  0  0  0  0  0  0
    9.4247    8.9887    3.1504 C   0  0  0  0  0  0  0  0  0  0  0  0
    9.8120    7.9089    2.1289 C   0  0  0  0  0  0  0  0  0  0  0  0
   11.1709    7.3043    2.4267 C   0  0  0  0  0  0  0  0  0  0  0  0
   12.2862    8.3199    2.7849 C   0  0  0  0  0  0  0  0  0  0  0  0
   13.5832    8.3572    1.9550 C   0  0  0  0  0  0  0  0  0  0  0  0
   13.9828    7.0989    1.1844 C   0  0  0  0  0  0  0  0  0  0  0  0
   14.7184    8.8847    2.7244 N   0  0  0  0  0  4  0  0  0  0  0  0
   11.8444    9.7157    3.3202 C   0  0  0  0  0  0  0  0  0  0  0  0
   10.4108   10.1467    3.0325 C   0  0  0  0  0  0  0  0  0  0  0  0
    7.2792   12.5119    2.8849 H   0  0  0  0  0  0  0  0  0  0  0  0
    6.3882   12.0088    1.3932 H   0  0  0  0  0  0  0  0  0  0  0  0
    5.8985   13.4902    2.2783 H   0  0  0  0  0  0  0  0  0  0  0  0
    4.4516   11.6336    2.6042 H   0  0  0  0  0  0  0  0  0  0  0  0
    5.4013   12.4952    5.2560 H   0  0  0  0  0  0  0  0  0  0  0  0
    4.2532   13.3272    4.1402 H   0  0  0  0  0  0  0  0  0  0  0  0
    3.8336   11.7110    4.8356 H   0  0  0  0  0  0  0  0  0  0  0  0
    5.7540   10.0200    2.2715 H   0  0  0  0  0  0  0  0  0  0  0  0
    3.7628    9.4065    2.8553 H   0  0  0  0  0  0  0  0  0  0  0  0
    5.0372    8.1502    3.1642 H   0  0  0  0  0  0  0  0  0  0  0  0
    4.3390    9.0867    4.5233 H   0  0  0  0  0  0  0  0  0  0  0  0
    7.2884    9.7232    4.8612 H   0  0  0  0  0  0  0  0  0  0  0  0
    9.4406    8.5675    4.1804 H   0  0  0  0  0  0  0  0  0  0  0  0
    9.0506    7.0968    2.1326 H   0  0  0  0  0  0  0  0  0  0  0  0
    9.8440    8.3350    1.1003 H   0  0  0  0  0  0  0  0  0  0  0  0
   11.4473    6.6692    1.5647 H   0  0  0  0  0  0  0  0  0  0  0  0
   11.0265    6.5948    3.2749 H   0  0  0  0  0  0  0  0  0  0  0  0
   12.6804    7.8419    3.7130 H   0  0  0  0  0  0  0  0  0  0  0  0
   13.3763    9.1010    1.1514 H   0  0  0  0  0  0  0  0  0  0  0  0
   13.2827    6.9076    0.3443 H   0  0  0  0  0  0  0  0  0  0  0  0
   13.9966    6.2230    1.8669 H   0  0  0  0  0  0  0  0  0  0  0  0
   14.9939    7.2155    0.7395 H   0  0  0  0  0  0  0  0  0  0  0  0
   15.5312    9.0557    2.0882 H   0  0  0  0  0  0  0  0  0  0  0  0
   14.5024    9.7902    3.1939 H   0  0  0  0  0  0  0  0  0  0  0  0
   15.0084    8.1903    3.4511 H   0  0  0  0  0  0  0  0  0  0  0  0
   12.4867   10.5238    2.9123 H   0  0  0  0  0  0  0  0  0  0  0  0
   11.9835    9.7449    4.4255 H   0  0  0  0  0  0  0  0  0  0  0  0
   10.3679   10.5756    2.0051 H   0  0  0  0  0  0  0  0  0  0  0  0
   10.1259   10.9565    3.7410 H   0  0  0  0  0  0  0  0  0  0  0  0
  1  2  1  0
  2  3  1  0
  2  4  1  0
  4  5  1  0
  4  6  1  0
  6  7  1  0
  7  8  2  0
  7  9  1  0
  9 10  1  0
 10 11  1  0
 11 12  1  0
 12 13  1  0
 13 14  1  0
 13 15  1  0
 12 16  1  0
 16 17  1  0
 17  9  1  0
  1 18  1  0
  1 19  1  0
  1 20  1  0
  2 21  1  0
  3 22  1  0
  3 23  1  0
  3 24  1  0
  4 25  1  0
  5 26  1  0
  5 27  1  0
  5 28  1  0
  6 29  1  0
  9 30  1  0
 10 31  1  0
 10 32  1  0
 11 33  1  0
 11 34  1  0
 12 35  1  0
 13 36  1  0
 14 37  1  0
 14 38  1  0
 14 39  1  0
 15 40  1  0
 15 41  1  0
 15 42  1  0
 16 43  1  0
 16 44  1  0
 17 45  1  0
 17 46  1  0
M  CHG  1  15   1
M  END
>  <EmbedRMS>  (36) 
0.3579708207248589

$$$$

     RDKit          3D

 44 44  0  0  0  0  0  0  0  0999 V2000
   13.9344    7.3325    1.0251 C   0  0  0  0  0  0  0  0  0  0  0  0
   13.7124    7.9143    2.4293 C   0  0  0  0  0  0  0  0  0  0  0  0
   14.6504    9.0161    2.6726 N   0  0  0  0  0  4  0  0  0  0  0  0
   12.2357    8.2978    2.7953 C   0  0  0  0  0  0  0  0  0  0  0  0
   11.1506    7.3136    2.3192 C   0  0  0  0  0  0  0  0  0  0  0  0
    9.7889    7.9336    2.0719 C   0  0  0  0  0  0  0  0  0  0  0  0
    9.4291    8.9809    3.1175 C   0  0  0  0  0  0  0  0  0  0  0  0
    8.0244    9.4610    2.8767 C   0  0  0  0  0  0  0  0  0  0  0  0
    7.6190    9.6840    1.6996 O   0  0  0  0  0  0  0  0  0  0  0  0
    7.1616    9.6889    3.9915 N   0  0  0  0  0  0  0  0  0  0  0  0
    5.7855   10.1247    3.8210 C   0  0  0  0  0  0  0  0  0  0  0  0
    4.7423    8.9630    3.8122 C   0  0  0  0  0  0  0  0  0  0  0  0
    4.1166    8.8214    5.1831 C   0  0  0  0  0  0  0  0  0  0  0  0
    4.2843    8.6567    2.4010 C   0  0  0  0  0  0  0  0  0  0  0  0
    5.0987    7.7653    3.9177 O   0  0  0  0  0  0  0  0  0  0  0  0
   10.3977   10.1666    3.0612 C   0  0  0  0  0  0  0  0  0  0  0  0
   11.8890    9.7883    2.9936 C   0  0  0  0  0  0  0  0  0  0  0  0
   13.5401    6.2970    0.9555 H   0  0  0  0  0  0  0  0  0  0  0  0
   15.0186    7.2763    0.7900 H   0  0  0  0  0  0  0  0  0  0  0  0
   13.4422    7.9745    0.2641 H   0  0  0  0  0  0  0  0  0  0  0  0
   14.0100    7.0843    3.1149 H   0  0  0  0  0  0  0  0  0  0  0  0
   14.5109    9.7861    1.9796 H   0  0  0  0  0  0  0  0  0  0  0  0
   15.6337    8.6698    2.5833 H   0  0  0  0  0  0  0  0  0  0  0  0
   14.5428    9.3801    3.6466 H   0  0  0  0  0  0  0  0  0  0  0  0
   12.2392    8.0286    3.8800 H   0  0  0  0  0  0  0  0  0  0  0  0
   11.0353    6.4797    3.0507 H   0  0  0  0  0  0  0  0  0  0  0  0
   11.4346    6.8309    1.3657 H   0  0  0  0  0  0  0  0  0  0  0  0
    9.7931    8.4028    1.0615 H   0  0  0  0  0  0  0  0  0  0  0  0
    9.0236    7.1252    2.0640 H   0  0  0  0  0  0  0  0  0  0  0  0
    9.4921    8.5093    4.1239 H   0  0  0  0  0  0  0  0  0  0  0  0
    7.5013    9.4861    4.9588 H   0  0  0  0  0  0  0  0  0  0  0  0
    5.5537   10.8434    4.6375 H   0  0  0  0  0  0  0  0  0  0  0  0
    5.6953   10.7432    2.9009 H   0  0  0  0  0  0  0  0  0  0  0  0
    4.8622    8.6933    6.0088 H   0  0  0  0  0  0  0  0  0  0  0  0
    3.3169    8.0378    5.2516 H   0  0  0  0  0  0  0  0  0  0  0  0
    3.5776    9.7669    5.4063 H   0  0  0  0  0  0  0  0  0  0  0  0
    3.4915    7.8674    2.3375 H   0  0  0  0  0  0  0  0  0  0  0  0
    5.1205    8.4243    1.6954 H   0  0  0  0  0  0  0  0  0  0  0  0
    3.7922    9.5686    2.0007 H   0  0  0  0  0  0  0  0  0  0  0  0
    6.0784    7.6314    3.8034 H   0  0  0  0  0  0  0  0  0  0  0  0
   10.1562   10.7885    2.1686 H   0  0  0  0  0  0  0  0  0  0  0  0
   10.2230   10.8125    3.9502 H   0  0  0  0  0  0  0  0  0  0  0  0
   12.3172   10.3454    2.1334 H   0  0  0  0  0  0  0  0  0  0  0  0
   12.3955   10.1922    3.9001 H   0  0  0  0  0  0  0  0  0  0  0  0
  1  2  1  0
  2  3  1  0
  2  4  1  0
  4  5  1  0
  5  6  1  0
  6  7  1  0
  7  8  1  0
  8  9  2  0
  8 10  1  0
 10 11  1  0
 11 12  1  0
 12 13  1  0
 12 14  1  0
 12 15  1  0
  7 16  1  0
 16 17  1  0
 17  4  1  0
  1 18  1  0
  1 19  1  0
  1 20  1  0
  2 21  1  0
  3 22  1  0
  3 23  1  0
  3 24  1  0
  4 25  1  0
  5 26  1  0
  5 27  1  0
  6 28  1  0
  6 29  1  0
  7 30  1  0
 10 31  1  0
 11 32  1  0
 11 33  1  0
 13 34  1  0
 13 35  1  0
 13 36  1  0
 14 37  1  0
 14 38  1  0
 14 39  1  0
 15 40  1  0
 16 41  1  0
 16 42  1  0
 17 43  1  0
 17 44  1  0
M  CHG  1   3   1
M  END
>  <EmbedRMS>  (37) 
0.6861464654853324

$$$$

     RDKit          3D

 44 44  0  0  0  0  0  0  0  0999 V2000
   14.0122    7.0504    1.2528 C   0  0  0  0  0  0  0  0  0  0  0  0
   13.6014    8.3242    1.9895 C   0  0  0  0  0  0  0  0  0  0  0  0
   14.7031    8.8917    2.7695 N   0  0  0  0  0  4  0  0  0  0  0  0
   12.2621    8.3269    2.7668 C   0  0  0  0  0  0  0  0  0  0  0  0
   11.1808    7.4388    2.1343 C   0  0  0  0  0  0  0  0  0  0  0  0
    9.7461    7.7259    2.5428 C   0  0  0  0  0  0  0  0  0  0  0  0
    9.4521    9.2015    2.6313 C   0  0  0  0  0  0  0  0  0  0  0  0
    7.9916    9.5235    2.7203 C   0  0  0  0  0  0  0  0  0  0  0  0
    7.4126    9.6688    1.6167 O   0  0  0  0  0  0  0  0  0  0  0  0
    7.2400    9.6875    3.9339 N   0  0  0  0  0  0  0  0  0  0  0  0
    5.8476   10.1523    3.8888 C   0  0  0  0  0  0  0  0  0  0  0  0
    5.7866   11.6348    3.4787 C   0  0  0  0  0  0  0  0  0  0  0  0
    4.3465   12.1386    3.3126 C   0  0  0  0  0  0  0  0  0  0  0  0
    3.6290   12.3298    4.6495 C   0  0  0  0  0  0  0  0  0  0  0  0
    4.2413   13.3567    5.3785 O   0  0  0  0  0  0  0  0  0  0  0  0
   10.3855   10.0198    3.4797 C   0  0  0  0  0  0  0  0  0  0  0  0
   11.8500    9.7805    3.1211 C   0  0  0  0  0  0  0  0  0  0  0  0
   13.2687    6.7646    0.4806 H   0  0  0  0  0  0  0  0  0  0  0  0
   14.1172    6.2175    1.9793 H   0  0  0  0  0  0  0  0  0  0  0  0
   14.9842    7.1925    0.7340 H   0  0  0  0  0  0  0  0  0  0  0  0
   13.4373    9.0283    1.1407 H   0  0  0  0  0  0  0  0  0  0  0  0
   14.8388    8.3412    3.6483 H   0  0  0  0  0  0  0  0  0  0  0  0
   15.5925    8.8677    2.2196 H   0  0  0  0  0  0  0  0  0  0  0  0
   14.5205    9.8921    3.0080 H   0  0  0  0  0  0  0  0  0  0  0  0
   12.4694    7.8404    3.7467 H   0  0  0  0  0  0  0  0  0  0  0  0
   11.4072    6.3663    2.3242 H   0  0  0  0  0  0  0  0  0  0  0  0
   11.2151    7.5901    1.0331 H   0  0  0  0  0  0  0  0  0  0  0  0
    9.0562    7.2342    1.8205 H   0  0  0  0  0  0  0  0  0  0  0  0
    9.5628    7.2727    3.5415 H   0  0  0  0  0  0  0  0  0  0  0  0
    9.7228    9.5602    1.6072 H   0  0  0  0  0  0  0  0  0  0  0  0
    7.6837    9.4625    4.8522 H   0  0  0  0  0  0  0  0  0  0  0  0
    5.2667    9.5248    3.1781 H   0  0  0  0  0  0  0  0  0  0  0  0
    5.4038   10.0240    4.8977 H   0  0  0  0  0  0  0  0  0  0  0  0
    6.3284   12.2520    4.2280 H   0  0  0  0  0  0  0  0  0  0  0  0
    6.3039   11.7726    2.5063 H   0  0  0  0  0  0  0  0  0  0  0  0
    3.7695   11.4279    2.6816 H   0  0  0  0  0  0  0  0  0  0  0  0
    4.3660   13.1138    2.7785 H   0  0  0  0  0  0  0  0  0  0  0  0
    3.6223   11.3875    5.2378 H   0  0  0  0  0  0  0  0  0  0  0  0
    2.5718   12.6091    4.4429 H   0  0  0  0  0  0  0  0  0  0  0  0
    3.7359   13.4294    6.2295 H   0  0  0  0  0  0  0  0  0  0  0  0
   10.1480   11.1029    3.3827 H   0  0  0  0  0  0  0  0  0  0  0  0
   10.2298    9.7354    4.5431 H   0  0  0  0  0  0  0  0  0  0  0  0
   12.4697   10.1514    3.9664 H   0  0  0  0  0  0  0  0  0  0  0  0
   12.0674   10.4408    2.2526 H   0  0  0  0  0  0  0  0  0  0  0  0
  1  2  1  0
  2  3  1  0
  2  4  1  0
  4  5  1  0
  5  6  1  0
  6  7  1  0
  7  8  1  0
  8  9  2  0
  8 10  1  0
 10 11  1  0
 11 12  1  0
 12 13  1  0
 13 14  1  0
 14 15  1  0
  7 16  1  0
 16 17  1  0
 17  4  1  0
  1 18  1  0
  1 19  1  0
  1 20  1  0
  2 21  1  0
  3 22  1  0
  3 23  1  0
  3 24  1  0
  4 25  1  0
  5 26  1  0
  5 27  1  0
  6 28  1  0
  6 29  1  0
  7 30  1  0
 10 31  1  0
 11 32  1  0
 11 33  1  0
 12 34  1  0
 12 35  1  0
 13 36  1  0
 13 37  1  0
 14 38  1  0
 14 39  1  0
 15 40  1  0
 16 41  1  0
 16 42  1  0
 17 43  1  0
 17 44  1  0
M  CHG  1   3   1
M  END
>  <EmbedRMS>  (38) 
0.3028787039700591

$$$$

     RDKit          3D

 45 46  0  0  0  0  0  0  0  0999 V2000
   13.9234    7.3284    1.0387 C   0  0  0  0  0  0  0  0  0  0  0  0
   13.7078    7.9211    2.4415 C   0  0  0  0  0  0  0  0  0  0  0  0
   14.6425    9.0270    2.6702 N   0  0  0  0  0  4  0  0  0  0  0  0
   12.2296    8.2935    2.8212 C   0  0  0  0  0  0  0  0  0  0  0  0
   11.1748    7.4151    2.1500 C   0  0  0  0  0  0  0  0  0  0  0  0
    9.7363    7.7236    2.5352 C   0  0  0  0  0  0  0  0  0  0  0  0
    9.4519    9.2036    2.6236 C   0  0  0  0  0  0  0  0  0  0  0  0
    7.9915    9.5358    2.7190 C   0  0  0  0  0  0  0  0  0  0  0  0
    7.4120    9.6818    1.6162 O   0  0  0  0  0  0  0  0  0  0  0  0
    7.2350    9.6955    3.9307 N   0  0  0  0  0  0  0  0  0  0  0  0
    5.8469   10.1791    3.8765 C   0  0  0  0  0  0  0  0  0  0  0  0
    5.8178   11.6565    3.5733 C   0  0  0  0  0  0  0  0  0  0  0  0
    5.5838   12.1324    2.2700 C   0  0  0  0  0  0  0  0  0  0  0  0
    5.6158   13.5065    2.0056 C   0  0  0  0  0  0  0  0  0  0  0  0
    5.8776   14.4125    3.0374 C   0  0  0  0  0  0  0  0  0  0  0  0
    6.1100   13.9476    4.3362 C   0  0  0  0  0  0  0  0  0  0  0  0
    6.3690   14.8561    5.3589 O   0  0  0  0  0  0  0  0  0  0  0  0
    6.0842   12.5728    4.6002 C   0  0  0  0  0  0  0  0  0  0  0  0
   10.4238   10.0509    3.4137 C   0  0  0  0  0  0  0  0  0  0  0  0
   11.8790    9.7843    2.9967 C   0  0  0  0  0  0  0  0  0  0  0  0
   13.3792    6.3675    0.9251 H   0  0  0  0  0  0  0  0  0  0  0  0
   13.5736    8.0448    0.2655 H   0  0  0  0  0  0  0  0  0  0  0  0
   15.0005    7.1188    0.8658 H   0  0  0  0  0  0  0  0  0  0  0  0
   14.0115    7.0971    3.1302 H   0  0  0  0  0  0  0  0  0  0  0  0
   15.6234    8.7092    2.4930 H   0  0  0  0  0  0  0  0  0  0  0  0
   14.5979    9.3372    3.6676 H   0  0  0  0  0  0  0  0  0  0  0  0
   14.4336    9.8275    2.0307 H   0  0  0  0  0  0  0  0  0  0  0  0
   12.1629    7.9506    3.8811 H   0  0  0  0  0  0  0  0  0  0  0  0
   11.3811    6.3420    2.3598 H   0  0  0  0  0  0  0  0  0  0  0  0
   11.2480    7.5622    1.0509 H   0  0  0  0  0  0  0  0  0  0  0  0
    9.0518    7.2388    1.8032 H   0  0  0  0  0  0  0  0  0  0  0  0
    9.5317    7.2730    3.5310 H   0  0  0  0  0  0  0  0  0  0  0  0
    9.7032    9.5358    1.5855 H   0  0  0  0  0  0  0  0  0  0  0  0
    7.6851    9.5036    4.8534 H   0  0  0  0  0  0  0  0  0  0  0  0
    5.3598    9.9973    4.8591 H   0  0  0  0  0  0  0  0  0  0  0  0
    5.2687    9.6024    3.1218 H   0  0  0  0  0  0  0  0  0  0  0  0
    5.3778   11.4425    1.4617 H   0  0  0  0  0  0  0  0  0  0  0  0
    5.4362   13.8681    1.0014 H   0  0  0  0  0  0  0  0  0  0  0  0
    5.8995   15.4745    2.8286 H   0  0  0  0  0  0  0  0  0  0  0  0
    6.5423   14.5501    6.3093 H   0  0  0  0  0  0  0  0  0  0  0  0
    6.2787   12.2178    5.6051 H   0  0  0  0  0  0  0  0  0  0  0  0
   10.1917   11.1307    3.2792 H   0  0  0  0  0  0  0  0  0  0  0  0
   10.3070    9.8091    4.4923 H   0  0  0  0  0  0  0  0  0  0  0  0
   12.5374   10.2609    3.7534 H   0  0  0  0  0  0  0  0  0  0  0  0
   12.0585   10.2955    2.0260 H   0  0  0  0  0  0  0  0  0  0  0  0
  1  2  1  0
  2  3  1  0
  2  4  1  0
  4  5  1  0
  5  6  1  0
  6  7  1  0
  7  8  1  0
  8  9  2  0
  8 10  1  0
 10 11  1  0
 11 12  1  0
 12 13  2  0
 13 14  1  0
 14 15  2  0
 15 16  1  0
 16 17  1  0
 16 18  2  0
  7 19  1  0
 19 20  1  0
 20  4  1  0
 18 12  1  0
  1 21  1  0
  1 22  1  0
  1 23  1  0
  2 24  1  0
  3 25  1  0
  3 26  1  0
  3 27  1  0
  4 28  1  0
  5 29  1  0
  5 30  1  0
  6 31  1  0
  6 32  1  0
  7 33  1  0
 10 34  1  0
 11 35  1  0
 11 36  1  0
 13 37  1  0
 14 38  1  0
 15 39  1  0
 17 40  1  0
 18 41  1  0
 19 42  1  0
 19 43  1  0
 20 44  1  0
 20 45  1  0
M  CHG  1   3   1
M  END
>  <EmbedRMS>  (39) 
0.24874902131530774

$$$$

     RDKit          3D

 45 45  0  0  0  0  0  0  0  0999 V2000
    1.3162    8.6480    2.4764 C   0  0  0  0  0  0  0  0  0  0  0  0
    2.7690    8.2394    2.6571 C   0  0  0  0  0  0  0  0  0  0  0  0
    3.5588    9.3719    3.1531 N   0  0  0  0  0  0  0  0  0  0  0  0
    4.9457    8.9370    3.3408 C   0  0  0  0  0  0  0  0  0  0  0  0
    5.8111   10.0828    3.8756 C   0  0  0  0  0  0  0  0  0  0  0  0
    7.2212    9.6714    3.9388 N   0  0  0  0  0  0  0  0  0  0  0  0
    7.9871    9.5236    2.7309 C   0  0  0  0  0  0  0  0  0  0  0  0
    7.4226    9.7001    1.6228 O   0  0  0  0  0  0  0  0  0  0  0  0
    9.4479    9.1954    2.6571 C   0  0  0  0  0  0  0  0  0  0  0  0
    9.7662    7.7150    2.4336 C   0  0  0  0  0  0  0  0  0  0  0  0
   11.2648    7.3640    2.5399 C   0  0  0  0  0  0  0  0  0  0  0  0
   12.1448    8.5862    2.2323 C   0  0  0  0  0  0  0  0  0  0  0  0
   13.6556    8.3392    1.9331 C   0  0  0  0  0  0  0  0  0  0  0  0
   14.0143    7.0441    1.2245 C   0  0  0  0  0  0  0  0  0  0  0  0
   14.6184    8.7732    2.9398 N   0  0  0  0  0  4  0  0  0  0  0  0
   11.8922    9.6845    3.2853 C   0  0  0  0  0  0  0  0  0  0  0  0
   10.4083   10.0818    3.4329 C   0  0  0  0  0  0  0  0  0  0  0  0
    1.2358    9.4590    1.7217 H   0  0  0  0  0  0  0  0  0  0  0  0
    0.7229    7.7764    2.1277 H   0  0  0  0  0  0  0  0  0  0  0  0
    0.8974    9.0039    3.4416 H   0  0  0  0  0  0  0  0  0  0  0  0
    2.8047    7.3991    3.3860 H   0  0  0  0  0  0  0  0  0  0  0  0
    3.1635    7.8833    1.6781 H   0  0  0  0  0  0  0  0  0  0  0  0
    3.5555   10.1116    2.4109 H   0  0  0  0  0  0  0  0  0  0  0  0
    5.3566    8.5628    2.3778 H   0  0  0  0  0  0  0  0  0  0  0  0
    4.9851    8.1045    4.0788 H   0  0  0  0  0  0  0  0  0  0  0  0
    5.4617   10.3551    4.8951 H   0  0  0  0  0  0  0  0  0  0  0  0
    5.7127   10.9819    3.2288 H   0  0  0  0  0  0  0  0  0  0  0  0
    7.6863    9.5527    4.8663 H   0  0  0  0  0  0  0  0  0  0  0  0
    9.6891    9.5852    1.6385 H   0  0  0  0  0  0  0  0  0  0  0  0
    9.3835    7.3966    1.4368 H   0  0  0  0  0  0  0  0  0  0  0  0
    9.2157    7.1152    3.1908 H   0  0  0  0  0  0  0  0  0  0  0  0
   11.4737    6.5317    1.8364 H   0  0  0  0  0  0  0  0  0  0  0  0
   11.4958    6.9999    3.5652 H   0  0  0  0  0  0  0  0  0  0  0  0
   11.7524    8.9793    1.2652 H   0  0  0  0  0  0  0  0  0  0  0  0
   13.8459    9.0645    1.1030 H   0  0  0  0  0  0  0  0  0  0  0  0
   13.3413    6.8735    0.3567 H   0  0  0  0  0  0  0  0  0  0  0  0
   13.9244    6.1928    1.9314 H   0  0  0  0  0  0  0  0  0  0  0  0
   15.0594    7.0779    0.8479 H   0  0  0  0  0  0  0  0  0  0  0  0
   15.5937    8.5539    2.6315 H   0  0  0  0  0  0  0  0  0  0  0  0
   14.5676    9.8044    3.1018 H   0  0  0  0  0  0  0  0  0  0  0  0
   14.4339    8.2659    3.8350 H   0  0  0  0  0  0  0  0  0  0  0  0
   12.4575   10.5992    3.0035 H   0  0  0  0  0  0  0  0  0  0  0  0
   12.2747    9.3420    4.2719 H   0  0  0  0  0  0  0  0  0  0  0  0
   10.2702   11.1451    3.1293 H   0  0  0  0  0  0  0  0  0  0  0  0
   10.1366   10.0251    4.5091 H   0  0  0  0  0  0  0  0  0  0  0  0
  1  2  1  0
  2  3  1  0
  3  4  1  0
  4  5  1  0
  5  6  1  0
  6  7  1  0
  7  8  2  0
  7  9  1  0
  9 10  1  0
 10 11  1  0
 11 12  1  0
 12 13  1  0
 13 14  1  0
 13 15  1  0
 12 16  1  0
 16 17  1  0
 17  9  1  0
  1 18  1  0
  1 19  1  0
  1 20  1  0
  2 21  1  0
  2 22  1  0
  3 23  1  0
  4 24  1  0
  4 25  1  0
  5 26  1  0
  5 27  1  0
  6 28  1  0
  9 29  1  0
 10 30  1  0
 10 31  1  0
 11 32  1  0
 11 33  1  0
 12 34  1  0
 13 35  1  0
 14 36  1  0
 14 37  1  0
 14 38  1  0
 15 39  1  0
 15 40  1  0
 15 41  1  0
 16 42  1  0
 16 43  1  0
 17 44  1  0
 17 45  1  0
M  CHG  1  15   1
M  END
>  <EmbedRMS>  (40) 
0.25842907567579826

$$$$

     RDKit          3D

 39 39  0  0  0  0  0  0  0  0999 V2000
   13.9234    7.3283    1.0386 C   0  0  0  0  0  0  0  0  0  0  0  0
   13.7077    7.9210    2.4414 C   0  0  0  0  0  0  0  0  0  0  0  0
   14.6424    9.0269    2.6703 N   0  0  0  0  0  4  0  0  0  0  0  0
   12.2295    8.2933    2.8211 C   0  0  0  0  0  0  0  0  0  0  0  0
   11.1746    7.4150    2.1499 C   0  0  0  0  0  0  0  0  0  0  0  0
    9.7359    7.7236    2.5348 C   0  0  0  0  0  0  0  0  0  0  0  0
    9.4513    9.2037    2.6226 C   0  0  0  0  0  0  0  0  0  0  0  0
    7.9907    9.5363    2.7198 C   0  0  0  0  0  0  0  0  0  0  0  0
    7.4097    9.6882    1.6181 O   0  0  0  0  0  0  0  0  0  0  0  0
    7.2356    9.6910    3.9330 N   0  0  0  0  0  0  0  0  0  0  0  0
    5.8476   10.1734    3.8827 C   0  0  0  0  0  0  0  0  0  0  0  0
    5.8206   11.6484    3.5921 C   0  0  0  0  0  0  0  0  0  0  0  0
    5.6761   12.0721    2.3753 N   0  0  0  0  0  0  0  0  0  0  0  0
    6.0546   12.5774    4.6515 N   0  0  0  0  0  0  0  0  0  0  0  0
   10.4237   10.0507    3.4128 C   0  0  0  0  0  0  0  0  0  0  0  0
   11.8789    9.7840    2.9961 C   0  0  0  0  0  0  0  0  0  0  0  0
   13.3792    6.3674    0.9250 H   0  0  0  0  0  0  0  0  0  0  0  0
   13.5736    8.0447    0.2654 H   0  0  0  0  0  0  0  0  0  0  0  0
   15.0005    7.1187    0.8658 H   0  0  0  0  0  0  0  0  0  0  0  0
   14.0113    7.0969    3.1301 H   0  0  0  0  0  0  0  0  0  0  0  0
   14.5978    9.3371    3.6676 H   0  0  0  0  0  0  0  0  0  0  0  0
   14.4336    9.8273    2.0307 H   0  0  0  0  0  0  0  0  0  0  0  0
   15.6233    8.7089    2.4932 H   0  0  0  0  0  0  0  0  0  0  0  0
   12.1627    7.9506    3.8809 H   0  0  0  0  0  0  0  0  0  0  0  0
   11.3808    6.3419    2.3598 H   0  0  0  0  0  0  0  0  0  0  0  0
   11.2479    7.5619    1.0508 H   0  0  0  0  0  0  0  0  0  0  0  0
    9.5313    7.2733    3.5307 H   0  0  0  0  0  0  0  0  0  0  0  0
    9.0515    7.2386    1.8029 H   0  0  0  0  0  0  0  0  0  0  0  0
    9.7019    9.5356    1.5844 H   0  0  0  0  0  0  0  0  0  0  0  0
    7.6863    9.4932    4.8542 H   0  0  0  0  0  0  0  0  0  0  0  0
    5.3625    9.9913    4.8655 H   0  0  0  0  0  0  0  0  0  0  0  0
    5.2689    9.6074    3.1202 H   0  0  0  0  0  0  0  0  0  0  0  0
    5.6899   13.0902    2.1429 H   0  0  0  0  0  0  0  0  0  0  0  0
    6.2188   12.2398    5.6259 H   0  0  0  0  0  0  0  0  0  0  0  0
    6.0703   13.6056    4.4692 H   0  0  0  0  0  0  0  0  0  0  0  0
   10.1920   11.1306    3.2783 H   0  0  0  0  0  0  0  0  0  0  0  0
   10.3069    9.8089    4.4915 H   0  0  0  0  0  0  0  0  0  0  0  0
   12.5372   10.2608    3.7528 H   0  0  0  0  0  0  0  0  0  0  0  0
   12.0585   10.2950    2.0253 H   0  0  0  0  0  0  0  0  0  0  0  0
  1  2  1  0
  2  3  1  0
  2  4  1  0
  4  5  1  0
  5  6  1  0
  6  7  1  0
  7  8  1  0
  8  9  2  0
  8 10  1  0
 10 11  1  0
 11 12  1  0
 12 13  2  3
 12 14  1  0
  7 15  1  0
 15 16  1  0
 16  4  1  0
  1 17  1  0
  1 18  1  0
  1 19  1  0
  2 20  1  0
  3 21  1  0
  3 22  1  0
  3 23  1  0
  4 24  1  0
  5 25  1  0
  5 26  1  0
  6 27  1  0
  6 28  1  0
  7 29  1  0
 10 30  1  0
 11 31  1  0
 11 32  1  0
 13 33  1  0
 14 34  1  0
 14 35  1  0
 15 36  1  0
 15 37  1  0
 16 38  1  0
 16 39  1  0
M  CHG  1   3   1
M  END
>  <EmbedRMS>  (41) 
0.27853286693257856

$$$$

     RDKit          3D

 41 41  0  0  0  0  0  0  0  0999 V2000
    4.6460   11.6759    7.1724 C   0  0  0  0  0  0  0  0  0  0  0  0
    5.2633   11.4940    5.8659 N   0  0  0  0  0  0  0  0  0  0  0  0
    5.1493   10.2629    5.1439 C   0  0  0  0  0  0  0  0  0  0  0  0
    4.5014    9.2956    5.6277 O   0  0  0  0  0  0  0  0  0  0  0  0
    5.8086   10.1135    3.8127 C   0  0  0  0  0  0  0  0  0  0  0  0
    7.2095    9.6833    3.9371 N   0  0  0  0  0  0  0  0  0  0  0  0
    7.9808    9.5180    2.7350 C   0  0  0  0  0  0  0  0  0  0  0  0
    7.4142    9.6752    1.6244 O   0  0  0  0  0  0  0  0  0  0  0  0
    9.4440    9.1935    2.6630 C   0  0  0  0  0  0  0  0  0  0  0  0
    9.7658    7.7143    2.4337 C   0  0  0  0  0  0  0  0  0  0  0  0
   11.2644    7.3644    2.5408 C   0  0  0  0  0  0  0  0  0  0  0  0
   12.1433    8.5869    2.2329 C   0  0  0  0  0  0  0  0  0  0  0  0
   13.6544    8.3400    1.9332 C   0  0  0  0  0  0  0  0  0  0  0  0
   14.0135    7.0449    1.2245 C   0  0  0  0  0  0  0  0  0  0  0  0
   14.6174    8.7741    2.9396 N   0  0  0  0  0  4  0  0  0  0  0  0
   11.8904    9.6848    3.2864 C   0  0  0  0  0  0  0  0  0  0  0  0
   10.4058   10.0816    3.4356 C   0  0  0  0  0  0  0  0  0  0  0  0
    3.5459   11.5501    7.0899 H   0  0  0  0  0  0  0  0  0  0  0  0
    4.8632   12.6960    7.5536 H   0  0  0  0  0  0  0  0  0  0  0  0
    5.0530   10.9310    7.8883 H   0  0  0  0  0  0  0  0  0  0  0  0
    5.8124   12.2820    5.4541 H   0  0  0  0  0  0  0  0  0  0  0  0
    5.2457    9.3665    3.2110 H   0  0  0  0  0  0  0  0  0  0  0  0
    5.7655   11.0860    3.2759 H   0  0  0  0  0  0  0  0  0  0  0  0
    7.6527    9.5270    4.8705 H   0  0  0  0  0  0  0  0  0  0  0  0
    9.6833    9.5857    1.6449 H   0  0  0  0  0  0  0  0  0  0  0  0
    9.2152    7.1104    3.1876 H   0  0  0  0  0  0  0  0  0  0  0  0
    9.3851    7.3989    1.4351 H   0  0  0  0  0  0  0  0  0  0  0  0
   11.4740    6.5318    1.8378 H   0  0  0  0  0  0  0  0  0  0  0  0
   11.4952    7.0010    3.5664 H   0  0  0  0  0  0  0  0  0  0  0  0
   11.7498    8.9804    1.2663 H   0  0  0  0  0  0  0  0  0  0  0  0
   13.8441    9.0654    1.1031 H   0  0  0  0  0  0  0  0  0  0  0  0
   15.0584    7.0793    0.8474 H   0  0  0  0  0  0  0  0  0  0  0  0
   13.3402    6.8740    0.3569 H   0  0  0  0  0  0  0  0  0  0  0  0
   13.9243    6.1936    1.9314 H   0  0  0  0  0  0  0  0  0  0  0  0
   15.5927    8.5554    2.6308 H   0  0  0  0  0  0  0  0  0  0  0  0
   14.5660    9.8051    3.1020 H   0  0  0  0  0  0  0  0  0  0  0  0
   14.4336    8.2664    3.8348 H   0  0  0  0  0  0  0  0  0  0  0  0
   12.2736    9.3421    4.2727 H   0  0  0  0  0  0  0  0  0  0  0  0
   12.4550   10.5998    3.0047 H   0  0  0  0  0  0  0  0  0  0  0  0
   10.1351   10.0261    4.5122 H   0  0  0  0  0  0  0  0  0  0  0  0
   10.2667   11.1445    3.1312 H   0  0  0  0  0  0  0  0  0  0  0  0
  1  2  1  0
  2  3  1  0
  3  4  2  0
  3  5  1  0
  5  6  1  0
  6  7  1  0
  7  8  2  0
  7  9  1  0
  9 10  1  0
 10 11  1  0
 11 12  1  0
 12 13  1  0
 13 14  1  0
 13 15  1  0
 12 16  1  0
 16 17  1  0
 17  9  1  0
  1 18  1  0
  1 19  1  0
  1 20  1  0
  2 21  1  0
  5 22  1  0
  5 23  1  0
  6 24  1  0
  9 25  1  0
 10 26  1  0
 10 27  1  0
 11 28  1  0
 11 29  1  0
 12 30  1  0
 13 31  1  0
 14 32  1  0
 14 33  1  0
 14 34  1  0
 15 35  1  0
 15 36  1  0
 15 37  1  0
 16 38  1  0
 16 39  1  0
 17 40  1  0
 17 41  1  0
M  CHG  1  15   1
M  END
>  <EmbedRMS>  (42) 
0.2569057114362328

$$$$

     RDKit          3D

 41 41  0  0  0  0  0  0  0  0999 V2000
    5.1584   10.8739    5.0060 C   0  0  0  0  0  0  0  0  0  0  0  0
    5.8518    9.7483    4.2777 C   0  0  0  0  0  0  0  0  0  0  0  0
    4.9792    8.9509    3.3102 C   0  0  0  0  0  0  0  0  0  0  0  0
    4.7948    7.7006    3.9116 O   0  0  0  0  0  0  0  0  0  0  0  0
    7.2345   10.0272    3.9202 N   0  0  0  0  0  0  0  0  0  0  0  0
    8.0007    9.5023    2.8388 C   0  0  0  0  0  0  0  0  0  0  0  0
    7.5958    9.6422    1.6541 O   0  0  0  0  0  0  0  0  0  0  0  0
    9.3923    8.9975    3.1201 C   0  0  0  0  0  0  0  0  0  0  0  0
    9.7656    7.8695    2.1519 C   0  0  0  0  0  0  0  0  0  0  0  0
   11.1748    7.3654    2.4387 C   0  0  0  0  0  0  0  0  0  0  0  0
   12.1959    8.5103    2.2753 C   0  0  0  0  0  0  0  0  0  0  0  0
   13.6464    7.9548    2.4000 C   0  0  0  0  0  0  0  0  0  0  0  0
   14.0460    7.2193    1.1055 C   0  0  0  0  0  0  0  0  0  0  0  0
   14.6256    9.0152    2.6723 N   0  0  0  0  0  4  0  0  0  0  0  0
   11.8526    9.6337    3.2837 C   0  0  0  0  0  0  0  0  0  0  0  0
   10.4188   10.1466    3.0638 C   0  0  0  0  0  0  0  0  0  0  0  0
    4.1986   10.5255    5.4463 H   0  0  0  0  0  0  0  0  0  0  0  0
    4.9451   11.6982    4.2934 H   0  0  0  0  0  0  0  0  0  0  0  0
    5.7972   11.2717    5.8246 H   0  0  0  0  0  0  0  0  0  0  0  0
    6.0021    9.0661    5.1498 H   0  0  0  0  0  0  0  0  0  0  0  0
    3.9931    9.4475    3.1669 H   0  0  0  0  0  0  0  0  0  0  0  0
    5.4427    8.8238    2.3138 H   0  0  0  0  0  0  0  0  0  0  0  0
    4.2135    7.1820    3.2968 H   0  0  0  0  0  0  0  0  0  0  0  0
    7.7999   10.4793    4.6756 H   0  0  0  0  0  0  0  0  0  0  0  0
    9.3990    8.5770    4.1515 H   0  0  0  0  0  0  0  0  0  0  0  0
    9.0498    7.0263    2.2709 H   0  0  0  0  0  0  0  0  0  0  0  0
    9.7092    8.2227    1.0978 H   0  0  0  0  0  0  0  0  0  0  0  0
   11.2245    6.9443    3.4677 H   0  0  0  0  0  0  0  0  0  0  0  0
   11.3796    6.5407    1.7275 H   0  0  0  0  0  0  0  0  0  0  0  0
   12.0835    8.9459    1.2555 H   0  0  0  0  0  0  0  0  0  0  0  0
   13.6882    7.2237    3.2397 H   0  0  0  0  0  0  0  0  0  0  0  0
   13.9780    7.8987    0.2290 H   0  0  0  0  0  0  0  0  0  0  0  0
   13.4131    6.3285    0.9258 H   0  0  0  0  0  0  0  0  0  0  0  0
   15.0926    6.8555    1.1826 H   0  0  0  0  0  0  0  0  0  0  0  0
   15.5972    8.6298    2.6307 H   0  0  0  0  0  0  0  0  0  0  0  0
   14.4931    9.3921    3.6383 H   0  0  0  0  0  0  0  0  0  0  0  0
   14.5391    9.7863    1.9704 H   0  0  0  0  0  0  0  0  0  0  0  0
   12.5333   10.5003    3.1486 H   0  0  0  0  0  0  0  0  0  0  0  0
   11.9628    9.2592    4.3254 H   0  0  0  0  0  0  0  0  0  0  0  0
   10.1822   10.8990    3.8473 H   0  0  0  0  0  0  0  0  0  0  0  0
   10.3605   10.6541    2.0751 H   0  0  0  0  0  0  0  0  0  0  0  0
  1  2  1  0
  2  3  1  0
  3  4  1  0
  2  5  1  0
  5  6  1  0
  6  7  2  0
  6  8  1  0
  8  9  1  0
  9 10  1  0
 10 11  1  0
 11 12  1  0
 12 13  1  0
 12 14  1  0
 11 15  1  0
 15 16  1  0
 16  8  1  0
  1 17  1  0
  1 18  1  0
  1 19  1  0
  2 20  1  0
  3 21  1  0
  3 22  1  0
  4 23  1  0
  5 24  1  0
  8 25  1  0
  9 26  1  0
  9 27  1  0
 10 28  1  0
 10 29  1  0
 11 30  1  0
 12 31  1  0
 13 32  1  0
 13 33  1  0
 13 34  1  0
 14 35  1  0
 14 36  1  0
 14 37  1  0
 15 38  1  0
 15 39  1  0
 16 40  1  0
 16 41  1  0
M  CHG  1  14   1
M  END
>  <EmbedRMS>  (43) 
0.20925142480886919

$$$$

     RDKit          3D

 37 37  0  0  0  0  0  0  0  0999 V2000
    4.9010    8.9493    3.3214 C   0  0  0  0  0  0  0  0  0  0  0  0
    5.7477   10.1185    3.8091 C   0  0  0  0  0  0  0  0  0  0  0  0
    7.1378    9.7075    3.9757 N   0  0  0  0  0  0  0  0  0  0  0  0
    8.0091    9.4709    2.8632 C   0  0  0  0  0  0  0  0  0  0  0  0
    7.6090    9.6877    1.6849 O   0  0  0  0  0  0  0  0  0  0  0  0
    9.4140    8.9898    3.1084 C   0  0  0  0  0  0  0  0  0  0  0  0
    9.7981    7.9225    2.0853 C   0  0  0  0  0  0  0  0  0  0  0  0
   11.1578    7.3127    2.3960 C   0  0  0  0  0  0  0  0  0  0  0  0
   12.2752    8.3218    2.7734 C   0  0  0  0  0  0  0  0  0  0  0  0
   13.5805    8.3571    1.9538 C   0  0  0  0  0  0  0  0  0  0  0  0
   13.9836    7.0985    1.1857 C   0  0  0  0  0  0  0  0  0  0  0  0
   14.7111    8.8839    2.7305 N   0  0  0  0  0  4  0  0  0  0  0  0
   11.8317    9.7194    3.3044 C   0  0  0  0  0  0  0  0  0  0  0  0
   10.3968   10.1516    3.0079 C   0  0  0  0  0  0  0  0  0  0  0  0
    4.9738    8.1023    4.0363 H   0  0  0  0  0  0  0  0  0  0  0  0
    5.2401    8.6114    2.3200 H   0  0  0  0  0  0  0  0  0  0  0  0
    3.8390    9.2647    3.2475 H   0  0  0  0  0  0  0  0  0  0  0  0
    5.6836   10.9644    3.0910 H   0  0  0  0  0  0  0  0  0  0  0  0
    5.3476   10.4660    4.7862 H   0  0  0  0  0  0  0  0  0  0  0  0
    7.5181    9.6307    4.9461 H   0  0  0  0  0  0  0  0  0  0  0  0
    9.4709    8.5475    4.1287 H   0  0  0  0  0  0  0  0  0  0  0  0
    9.8276    8.3613    1.0624 H   0  0  0  0  0  0  0  0  0  0  0  0
    9.0349    7.1124    2.0811 H   0  0  0  0  0  0  0  0  0  0  0  0
   11.0040    6.5968    3.2371 H   0  0  0  0  0  0  0  0  0  0  0  0
   11.4410    6.6836    1.5321 H   0  0  0  0  0  0  0  0  0  0  0  0
   12.6575    7.8399    3.7045 H   0  0  0  0  0  0  0  0  0  0  0  0
   13.3805    9.1010    1.1485 H   0  0  0  0  0  0  0  0  0  0  0  0
   15.0000    7.2116    0.7521 H   0  0  0  0  0  0  0  0  0  0  0  0
   13.2924    6.9108    0.3375 H   0  0  0  0  0  0  0  0  0  0  0  0
   13.9867    6.2216    1.8670 H   0  0  0  0  0  0  0  0  0  0  0  0
   14.9942    8.1900    3.4603 H   0  0  0  0  0  0  0  0  0  0  0  0
   14.4920    9.7901    3.1973 H   0  0  0  0  0  0  0  0  0  0  0  0
   15.5287    9.0531    2.1001 H   0  0  0  0  0  0  0  0  0  0  0  0
   12.4766   10.5261    2.8979 H   0  0  0  0  0  0  0  0  0  0  0  0
   11.9658    9.7500    4.4102 H   0  0  0  0  0  0  0  0  0  0  0  0
   10.3549   10.5873    1.9838 H   0  0  0  0  0  0  0  0  0  0  0  0
   10.1049   10.9541    3.7216 H   0  0  0  0  0  0  0  0  0  0  0  0
  1  2  1  0
  2  3  1  0
  3  4  1  0
  4  5  2  0
  4  6  1  0
  6  7  1  0
  7  8  1  0
  8  9  1  0
  9 10  1  0
 10 11  1  0
 10 12  1  0
  9 13  1  0
 13 14  1  0
 14  6  1  0
  1 15  1  0
  1 16  1  0
  1 17  1  0
  2 18  1  0
  2 19  1  0
  3 20  1  0
  6 21  1  0
  7 22  1  0
  7 23  1  0
  8 24  1  0
  8 25  1  0
  9 26  1  0
 10 27  1  0
 11 28  1  0
 11 29  1  0
 11 30  1  0
 12 31  1  0
 12 32  1  0
 12 33  1  0
 13 34  1  0
 13 35  1  0
 14 36  1  0
 14 37  1  0
M  CHG  1  12   1
M  END
>  <EmbedRMS>  (44) 
0.22880006867790334

$$$$

     RDKit          3D

 38 38  0  0  0  0  0  0  0  0999 V2000
   14.0485    7.2193    1.1052 C   0  0  0  0  0  0  0  0  0  0  0  0
   13.6494    7.9557    2.3993 C   0  0  0  0  0  0  0  0  0  0  0  0
   14.6287    9.0157    2.6714 N   0  0  0  0  0  4  0  0  0  0  0  0
   12.1999    8.5121    2.2739 C   0  0  0  0  0  0  0  0  0  0  0  0
   11.1802    7.3659    2.4359 C   0  0  0  0  0  0  0  0  0  0  0  0
    9.7714    7.8716    2.1578 C   0  0  0  0  0  0  0  0  0  0  0  0
    9.4086    8.9939    3.1360 C   0  0  0  0  0  0  0  0  0  0  0  0
    8.0119    9.4795    2.8745 C   0  0  0  0  0  0  0  0  0  0  0  0
    7.6187    9.6893    1.6921 O   0  0  0  0  0  0  0  0  0  0  0  0
    7.1292    9.6965    3.9807 N   0  0  0  0  0  0  0  0  0  0  0  0
    5.7624   10.1694    3.8094 C   0  0  0  0  0  0  0  0  0  0  0  0
    5.7587   11.6573    3.4724 C   0  0  0  0  0  0  0  0  0  0  0  0
    4.4421   12.1064    3.3200 O   0  0  0  0  0  0  0  0  0  0  0  0
   10.4229   10.1485    3.0671 C   0  0  0  0  0  0  0  0  0  0  0  0
   11.8582    9.6379    3.2816 C   0  0  0  0  0  0  0  0  0  0  0  0
   15.0958    6.8574    1.1814 H   0  0  0  0  0  0  0  0  0  0  0  0
   13.9784    7.8974    0.2278 H   0  0  0  0  0  0  0  0  0  0  0  0
   13.4173    6.3269    0.9275 H   0  0  0  0  0  0  0  0  0  0  0  0
   13.6910    7.2251    3.2394 H   0  0  0  0  0  0  0  0  0  0  0  0
   14.4960    9.3935    3.6370 H   0  0  0  0  0  0  0  0  0  0  0  0
   15.6002    8.6298    2.6308 H   0  0  0  0  0  0  0  0  0  0  0  0
   14.5433    9.7863    1.9687 H   0  0  0  0  0  0  0  0  0  0  0  0
   12.0876    8.9473    1.2540 H   0  0  0  0  0  0  0  0  0  0  0  0
   11.2347    6.9393    3.4625 H   0  0  0  0  0  0  0  0  0  0  0  0
   11.3816    6.5452    1.7192 H   0  0  0  0  0  0  0  0  0  0  0  0
    9.0563    7.0278    2.2771 H   0  0  0  0  0  0  0  0  0  0  0  0
    9.7089    8.2307    1.1059 H   0  0  0  0  0  0  0  0  0  0  0  0
    9.4455    8.5679    4.1642 H   0  0  0  0  0  0  0  0  0  0  0  0
    7.4525    9.4673    4.9477 H   0  0  0  0  0  0  0  0  0  0  0  0
    5.2572    9.5890    3.0069 H   0  0  0  0  0  0  0  0  0  0  0  0
    5.2000   10.0100    4.7552 H   0  0  0  0  0  0  0  0  0  0  0  0
    6.2767   12.2336    4.2730 H   0  0  0  0  0  0  0  0  0  0  0  0
    6.3008   11.8316    2.5198 H   0  0  0  0  0  0  0  0  0  0  0  0
    4.0707   12.2170    4.2342 H   0  0  0  0  0  0  0  0  0  0  0  0
   10.3565   10.6518    2.0766 H   0  0  0  0  0  0  0  0  0  0  0  0
   10.1846   10.9008    3.8506 H   0  0  0  0  0  0  0  0  0  0  0  0
   12.5372   10.5052    3.1416 H   0  0  0  0  0  0  0  0  0  0  0  0
   11.9739    9.2660    4.3236 H   0  0  0  0  0  0  0  0  0  0  0  0
  1  2  1  0
  2  3  1  0
  2  4  1  0
  4  5  1  0
  5  6  1  0
  6  7  1  0
  7  8  1  0
  8  9  2  0
  8 10  1  0
 10 11  1  0
 11 12  1  0
 12 13  1  0
  7 14  1  0
 14 15  1  0
 15  4  1  0
  1 16  1  0
  1 17  1  0
  1 18  1  0
  2 19  1  0
  3 20  1  0
  3 21  1  0
  3 22  1  0
  4 23  1  0
  5 24  1  0
  5 25  1  0
  6 26  1  0
  6 27  1  0
  7 28  1  0
 10 29  1  0
 11 30  1  0
 11 31  1  0
 12 32  1  0
 12 33  1  0
 13 34  1  0
 14 35  1  0
 14 36  1  0
 15 37  1  0
 15 38  1  0
M  CHG  1   3   1
M  END
>  <EmbedRMS>  (45) 
0.031392693704421666

$$$$

     RDKit          3D

 34 34  0  0  0  0  0  0  0  0999 V2000
    5.8329   10.1084    3.8848 C   0  0  0  0  0  0  0  0  0  0  0  0
    7.2300    9.6721    3.9456 N   0  0  0  0  0  0  0  0  0  0  0  0
    7.9825    9.5176    2.7336 C   0  0  0  0  0  0  0  0  0  0  0  0
    7.4038    9.6808    1.6309 O   0  0  0  0  0  0  0  0  0  0  0  0
    9.4450    9.1949    2.6523 C   0  0  0  0  0  0  0  0  0  0  0  0
    9.7659    7.7145    2.4310 C   0  0  0  0  0  0  0  0  0  0  0  0
   11.2645    7.3643    2.5394 C   0  0  0  0  0  0  0  0  0  0  0  0
   12.1440    8.5865    2.2316 C   0  0  0  0  0  0  0  0  0  0  0  0
   13.6550    8.3396    1.9330 C   0  0  0  0  0  0  0  0  0  0  0  0
   14.0142    7.0445    1.2245 C   0  0  0  0  0  0  0  0  0  0  0  0
   14.6175    8.7737    2.9400 N   0  0  0  0  0  4  0  0  0  0  0  0
   11.8902    9.6847    3.2842 C   0  0  0  0  0  0  0  0  0  0  0  0
   10.4057   10.0818    3.4290 C   0  0  0  0  0  0  0  0  0  0  0  0
    5.7674   11.1015    3.3922 H   0  0  0  0  0  0  0  0  0  0  0  0
    5.4215   10.1915    4.9127 H   0  0  0  0  0  0  0  0  0  0  0  0
    5.2299    9.3684    3.3173 H   0  0  0  0  0  0  0  0  0  0  0  0
    7.6848    9.4991    4.8697 H   0  0  0  0  0  0  0  0  0  0  0  0
    9.6804    9.5858    1.6329 H   0  0  0  0  0  0  0  0  0  0  0  0
    9.2153    7.1145    3.1879 H   0  0  0  0  0  0  0  0  0  0  0  0
    9.3849    7.3947    1.4340 H   0  0  0  0  0  0  0  0  0  0  0  0
   11.4945    7.0012    3.5653 H   0  0  0  0  0  0  0  0  0  0  0  0
   11.4746    6.5314    1.8369 H   0  0  0  0  0  0  0  0  0  0  0  0
   11.7511    8.9795    1.2646 H   0  0  0  0  0  0  0  0  0  0  0  0
   13.8453    9.0650    1.1029 H   0  0  0  0  0  0  0  0  0  0  0  0
   15.0594    7.0787    0.8480 H   0  0  0  0  0  0  0  0  0  0  0  0
   13.3413    6.8737    0.3566 H   0  0  0  0  0  0  0  0  0  0  0  0
   13.9245    6.1932    1.9314 H   0  0  0  0  0  0  0  0  0  0  0  0
   15.5929    8.5546    2.6319 H   0  0  0  0  0  0  0  0  0  0  0  0
   14.5663    9.8048    3.1021 H   0  0  0  0  0  0  0  0  0  0  0  0
   14.4328    8.2662    3.8350 H   0  0  0  0  0  0  0  0  0  0  0  0
   12.2711    9.3420    4.2714 H   0  0  0  0  0  0  0  0  0  0  0  0
   12.4559   10.5993    3.0033 H   0  0  0  0  0  0  0  0  0  0  0  0
   10.1327   10.0263    4.5050 H   0  0  0  0  0  0  0  0  0  0  0  0
   10.2681   11.1447    3.1242 H   0  0  0  0  0  0  0  0  0  0  0  0
  1  2  1  0
  2  3  1  0
  3  4  2  0
  3  5  1  0
  5  6  1  0
  6  7  1  0
  7  8  1  0
  8  9  1  0
  9 10  1  0
  9 11  1  0
  8 12  1  0
 12 13  1  0
 13  5  1  0
  1 14  1  0
  1 15  1  0
  1 16  1  0
  2 17  1  0
  5 18  1  0
  6 19  1  0
  6 20  1  0
  7 21  1  0
  7 22  1  0
  8 23  1  0
  9 24  1  0
 10 25  1  0
 10 26  1  0
 10 27  1  0
 11 28  1  0
 11 29  1  0
 11 30  1  0
 12 31  1  0
 12 32  1  0
 13 33  1  0
 13 34  1  0
M  CHG  1  11   1
M  END
>  <EmbedRMS>  (46) 
0.29639754771625826

$$$$

     RDKit          3D

 45 46  0  0  0  0  0  0  0  0999 V2000
   13.9234    7.3284    1.0387 C   0  0  0  0  0  0  0  0  0  0  0  0
   13.7078    7.9211    2.4415 C   0  0  0  0  0  0  0  0  0  0  0  0
   14.6425    9.0270    2.6702 N   0  0  0  0  0  4  0  0  0  0  0  0
   12.2296    8.2935    2.8212 C   0  0  0  0  0  0  0  0  0  0  0  0
   11.1748    7.4151    2.1500 C   0  0  0  0  0  0  0  0  0  0  0  0
    9.7363    7.7236    2.5352 C   0  0  0  0  0  0  0  0  0  0  0  0
    9.4519    9.2036    2.6236 C   0  0  0  0  0  0  0  0  0  0  0  0
    7.9915    9.5358    2.7190 C   0  0  0  0  0  0  0  0  0  0  0  0
    7.4120    9.6818    1.6162 O   0  0  0  0  0  0  0  0  0  0  0  0
    7.2350    9.6955    3.9307 N   0  0  0  0  0  0  0  0  0  0  0  0
    5.8469   10.1791    3.8765 C   0  0  0  0  0  0  0  0  0  0  0  0
    5.8178   11.6565    3.5733 C   0  0  0  0  0  0  0  0  0  0  0  0
    5.5838   12.1324    2.2700 C   0  0  0  0  0  0  0  0  0  0  0  0
    5.6158   13.5065    2.0056 C   0  0  0  0  0  0  0  0  0  0  0  0
    5.8776   14.4125    3.0374 C   0  0  0  0  0  0  0  0  0  0  0  0
    6.1100   13.9476    4.3362 C   0  0  0  0  0  0  0  0  0  0  0  0
    6.3690   14.8561    5.3589 O   0  0  0  0  0  0  0  0  0  0  0  0
    6.0842   12.5728    4.6002 C   0  0  0  0  0  0  0  0  0  0  0  0
   10.4238   10.0509    3.4137 C   0  0  0  0  0  0  0  0  0  0  0  0
   11.8790    9.7843    2.9967 C   0  0  0  0  0  0  0  0  0  0  0  0
   13.3792    6.3675    0.9251 H   0  0  0  0  0  0  0  0  0  0  0  0
   13.5736    8.0448    0.2655 H   0  0  0  0  0  0  0  0  0  0  0  0
   15.0005    7.1188    0.8658 H   0  0  0  0  0  0  0  0  0  0  0  0
   14.0115    7.0971    3.1302 H   0  0  0  0  0  0  0  0  0  0  0  0
   15.6234    8.7092    2.4930 H   0  0  0  0  0  0  0  0  0  0  0  0
   14.5979    9.3372    3.6676 H   0  0  0  0  0  0  0  0  0  0  0  0
   14.4336    9.8275    2.0307 H   0  0  0  0  0  0  0  0  0  0  0  0
   12.1629    7.9506    3.8811 H   0  0  0  0  0  0  0  0  0  0  0  0
   11.3811    6.3420    2.3598 H   0  0  0  0  0  0  0  0  0  0  0  0
   11.2480    7.5622    1.0509 H   0  0  0  0  0  0  0  0  0  0  0  0
    9.0518    7.2388    1.8032 H   0  0  0  0  0  0  0  0  0  0  0  0
    9.5317    7.2730    3.5310 H   0  0  0  0  0  0  0  0  0  0  0  0
    9.7032    9.5358    1.5855 H   0  0  0  0  0  0  0  0  0  0  0  0
    7.6851    9.5036    4.8534 H   0  0  0  0  0  0  0  0  0  0  0  0
    5.3598    9.9973    4.8591 H   0  0  0  0  0  0  0  0  0  0  0  0
    5.2687    9.6024    3.1218 H   0  0  0  0  0  0  0  0  0  0  0  0
    5.3778   11.4425    1.4617 H   0  0  0  0  0  0  0  0  0  0  0  0
    5.4362   13.8681    1.0014 H   0  0  0  0  0  0  0  0  0  0  0  0
    5.8995   15.4745    2.8286 H   0  0  0  0  0  0  0  0  0  0  0  0
    6.5423   14.5501    6.3093 H   0  0  0  0  0  0  0  0  0  0  0  0
    6.2787   12.2178    5.6051 H   0  0  0  0  0  0  0  0  0  0  0  0
   10.1917   11.1307    3.2792 H   0  0  0  0  0  0  0  0  0  0  0  0
   10.3070    9.8091    4.4923 H   0  0  0  0  0  0  0  0  0  0  0  0
   12.5374   10.2609    3.7534 H   0  0  0  0  0  0  0  0  0  0  0  0
   12.0585   10.2955    2.0260 H   0  0  0  0  0  0  0  0  0  0  0  0
  1  2  1  0
  2  3  1  0
  2  4  1  0
  4  5  1  0
  5  6  1  0
  6  7  1  0
  7  8  1  0
  8  9  2  0
  8 10  1  0
 10 11  1  0
 11 12  1  0
 12 13  2  0
 13 14  1  0
 14 15  2  0
 15 16  1  0
 16 17  1  0
 16 18  2  0
  7 19  1  0
 19 20  1  0
 20  4  1  0
 18 12  1  0
  1 21  1  0
  1 22  1  0
  1 23  1  0
  2 24  1  0
  3 25  1  0
  3 26  1  0
  3 27  1  0
  4 28  1  0
  5 29  1  0
  5 30  1  0
  6 31  1  0
  6 32  1  0
  7 33  1  0
 10 34  1  0
 11 35  1  0
 11 36  1  0
 13 37  1  0
 14 38  1  0
 15 39  1  0
 17 40  1  0
 18 41  1  0
 19 42  1  0
 19 43  1  0
 20 44  1  0
 20 45  1  0
M  CHG  1   3   1
M  END
>  <EmbedRMS>  (47) 
0.24874902131530774

$$$$

     RDKit          3D

 37 37  0  0  0  0  0  0  0  0999 V2000
    4.9010    8.9493    3.3214 C   0  0  0  0  0  0  0  0  0  0  0  0
    5.7477   10.1185    3.8091 C   0  0  0  0  0  0  0  0  0  0  0  0
    7.1378    9.7075    3.9757 N   0  0  0  0  0  0  0  0  0  0  0  0
    8.0091    9.4709    2.8632 C   0  0  0  0  0  0  0  0  0  0  0  0
    7.6090    9.6877    1.6849 O   0  0  0  0  0  0  0  0  0  0  0  0
    9.4140    8.9898    3.1084 C   0  0  0  0  0  0  0  0  0  0  0  0
    9.7981    7.9225    2.0853 C   0  0  0  0  0  0  0  0  0  0  0  0
   11.1578    7.3127    2.3960 C   0  0  0  0  0  0  0  0  0  0  0  0
   12.2752    8.3218    2.7734 C   0  0  0  0  0  0  0  0  0  0  0  0
   13.5805    8.3571    1.9538 C   0  0  0  0  0  0  0  0  0  0  0  0
   13.9836    7.0985    1.1857 C   0  0  0  0  0  0  0  0  0  0  0  0
   14.7111    8.8839    2.7305 N   0  0  0  0  0  4  0  0  0  0  0  0
   11.8317    9.7194    3.3044 C   0  0  0  0  0  0  0  0  0  0  0  0
   10.3968   10.1516    3.0079 C   0  0  0  0  0  0  0  0  0  0  0  0
    4.9738    8.1023    4.0363 H   0  0  0  0  0  0  0  0  0  0  0  0
    5.2401    8.6114    2.3200 H   0  0  0  0  0  0  0  0  0  0  0  0
    3.8390    9.2647    3.2475 H   0  0  0  0  0  0  0  0  0  0  0  0
    5.6836   10.9644    3.0910 H   0  0  0  0  0  0  0  0  0  0  0  0
    5.3476   10.4660    4.7862 H   0  0  0  0  0  0  0  0  0  0  0  0
    7.5181    9.6307    4.9461 H   0  0  0  0  0  0  0  0  0  0  0  0
    9.4709    8.5475    4.1287 H   0  0  0  0  0  0  0  0  0  0  0  0
    9.8276    8.3613    1.0624 H   0  0  0  0  0  0  0  0  0  0  0  0
    9.0349    7.1124    2.0811 H   0  0  0  0  0  0  0  0  0  0  0  0
   11.0040    6.5968    3.2371 H   0  0  0  0  0  0  0  0  0  0  0  0
   11.4410    6.6836    1.5321 H   0  0  0  0  0  0  0  0  0  0  0  0
   12.6575    7.8399    3.7045 H   0  0  0  0  0  0  0  0  0  0  0  0
   13.3805    9.1010    1.1485 H   0  0  0  0  0  0  0  0  0  0  0  0
   15.0000    7.2116    0.7521 H   0  0  0  0  0  0  0  0  0  0  0  0
   13.2924    6.9108    0.3375 H   0  0  0  0  0  0  0  0  0  0  0  0
   13.9867    6.2216    1.8670 H   0  0  0  0  0  0  0  0  0  0  0  0
   14.9942    8.1900    3.4603 H   0  0  0  0  0  0  0  0  0  0  0  0
   14.4920    9.7901    3.1973 H   0  0  0  0  0  0  0  0  0  0  0  0
   15.5287    9.0531    2.1001 H   0  0  0  0  0  0  0  0  0  0  0  0
   12.4766   10.5261    2.8979 H   0  0  0  0  0  0  0  0  0  0  0  0
   11.9658    9.7500    4.4102 H   0  0  0  0  0  0  0  0  0  0  0  0
   10.3549   10.5873    1.9838 H   0  0  0  0  0  0  0  0  0  0  0  0
   10.1049   10.9541    3.7216 H   0  0  0  0  0  0  0  0  0  0  0  0
  1  2  1  0
  2  3  1  0
  3  4  1  0
  4  5  2  0
  4  6  1  0
  6  7  1  0
  7  8  1  0
  8  9  1  0
  9 10  1  0
 10 11  1  0
 10 12  1  0
  9 13  1  0
 13 14  1  0
 14  6  1  0
  1 15  1  0
  1 16  1  0
  1 17  1  0
  2 18  1  0
  2 19  1  0
  3 20  1  0
  6 21  1  0
  7 22  1  0
  7 23  1  0
  8 24  1  0
  8 25  1  0
  9 26  1  0
 10 27  1  0
 11 28  1  0
 11 29  1  0
 11 30  1  0
 12 31  1  0
 12 32  1  0
 12 33  1  0
 13 34  1  0
 13 35  1  0
 14 36  1  0
 14 37  1  0
M  CHG  1  12   1
M  END
>  <EmbedRMS>  (48) 
0.22880006867790334

$$$$

     RDKit          3D

 45 46  0  0  0  0  0  0  0  0999 V2000
   13.9234    7.3284    1.0387 C   0  0  0  0  0  0  0  0  0  0  0  0
   13.7078    7.9211    2.4415 C   0  0  0  0  0  0  0  0  0  0  0  0
   14.6425    9.0270    2.6702 N   0  0  0  0  0  4  0  0  0  0  0  0
   12.2296    8.2935    2.8212 C   0  0  0  0  0  0  0  0  0  0  0  0
   11.1748    7.4151    2.1500 C   0  0  0  0  0  0  0  0  0  0  0  0
    9.7363    7.7236    2.5352 C   0  0  0  0  0  0  0  0  0  0  0  0
    9.4519    9.2036    2.6236 C   0  0  0  0  0  0  0  0  0  0  0  0
    7.9915    9.5358    2.7190 C   0  0  0  0  0  0  0  0  0  0  0  0
    7.4120    9.6818    1.6162 O   0  0  0  0  0  0  0  0  0  0  0  0
    7.2350    9.6955    3.9307 N   0  0  0  0  0  0  0  0  0  0  0  0
    5.8469   10.1791    3.8765 C   0  0  0  0  0  0  0  0  0  0  0  0
    5.8178   11.6565    3.5733 C   0  0  0  0  0  0  0  0  0  0  0  0
    5.5838   12.1324    2.2700 C   0  0  0  0  0  0  0  0  0  0  0  0
    5.6158   13.5065    2.0056 C   0  0  0  0  0  0  0  0  0  0  0  0
    5.8776   14.4125    3.0374 C   0  0  0  0  0  0  0  0  0  0  0  0
    6.1100   13.9476    4.3362 C   0  0  0  0  0  0  0  0  0  0  0  0
    6.3690   14.8561    5.3589 O   0  0  0  0  0  0  0  0  0  0  0  0
    6.0842   12.5728    4.6002 C   0  0  0  0  0  0  0  0  0  0  0  0
   10.4238   10.0509    3.4137 C   0  0  0  0  0  0  0  0  0  0  0  0
   11.8790    9.7843    2.9967 C   0  0  0  0  0  0  0  0  0  0  0  0
   13.3792    6.3675    0.9251 H   0  0  0  0  0  0  0  0  0  0  0  0
   13.5736    8.0448    0.2655 H   0  0  0  0  0  0  0  0  0  0  0  0
   15.0005    7.1188    0.8658 H   0  0  0  0  0  0  0  0  0  0  0  0
   14.0115    7.0971    3.1302 H   0  0  0  0  0  0  0  0  0  0  0  0
   15.6234    8.7092    2.4930 H   0  0  0  0  0  0  0  0  0  0  0  0
   14.5979    9.3372    3.6676 H   0  0  0  0  0  0  0  0  0  0  0  0
   14.4336    9.8275    2.0307 H   0  0  0  0  0  0  0  0  0  0  0  0
   12.1629    7.9506    3.8811 H   0  0  0  0  0  0  0  0  0  0  0  0
   11.3811    6.3420    2.3598 H   0  0  0  0  0  0  0  0  0  0  0  0
   11.2480    7.5622    1.0509 H   0  0  0  0  0  0  0  0  0  0  0  0
    9.0518    7.2388    1.8032 H   0  0  0  0  0  0  0  0  0  0  0  0
    9.5317    7.2730    3.5310 H   0  0  0  0  0  0  0  0  0  0  0  0
    9.7032    9.5358    1.5855 H   0  0  0  0  0  0  0  0  0  0  0  0
    7.6851    9.5036    4.8534 H   0  0  0  0  0  0  0  0  0  0  0  0
    5.3598    9.9973    4.8591 H   0  0  0  0  0  0  0  0  0  0  0  0
    5.2687    9.6024    3.1218 H   0  0  0  0  0  0  0  0  0  0  0  0
    5.3778   11.4425    1.4617 H   0  0  0  0  0  0  0  0  0  0  0  0
    5.4362   13.8681    1.0014 H   0  0  0  0  0  0  0  0  0  0  0  0
    5.8995   15.4745    2.8286 H   0  0  0  0  0  0  0  0  0  0  0  0
    6.5423   14.5501    6.3093 H   0  0  0  0  0  0  0  0  0  0  0  0
    6.2787   12.2178    5.6051 H   0  0  0  0  0  0  0  0  0  0  0  0
   10.1917   11.1307    3.2792 H   0  0  0  0  0  0  0  0  0  0  0  0
   10.3070    9.8091    4.4923 H   0  0  0  0  0  0  0  0  0  0  0  0
   12.5374   10.2609    3.7534 H   0  0  0  0  0  0  0  0  0  0  0  0
   12.0585   10.2955    2.0260 H   0  0  0  0  0  0  0  0  0  0  0  0
  1  2  1  0
  2  3  1  0
  2  4  1  0
  4  5  1  0
  5  6  1  0
  6  7  1  0
  7  8  1  0
  8  9  2  0
  8 10  1  0
 10 11  1  0
 11 12  1  0
 12 13  2  0
 13 14  1  0
 14 15  2  0
 15 16  1  0
 16 17  1  0
 16 18  2  0
  7 19  1  0
 19 20  1  0
 20  4  1  0
 18 12  1  0
  1 21  1  0
  1 22  1  0
  1 23  1  0
  2 24  1  0
  3 25  1  0
  3 26  1  0
  3 27  1  0
  4 28  1  0
  5 29  1  0
  5 30  1  0
  6 31  1  0
  6 32  1  0
  7 33  1  0
 10 34  1  0
 11 35  1  0
 11 36  1  0
 13 37  1  0
 14 38  1  0
 15 39  1  0
 17 40  1  0
 18 41  1  0
 19 42  1  0
 19 43  1  0
 20 44  1  0
 20 45  1  0
M  CHG  1   3   1
M  END
>  <EmbedRMS>  (49) 
0.24874902131530774

$$$$

     RDKit          3D

 41 41  0  0  0  0  0  0  0  0999 V2000
    4.6460   11.6759    7.1724 C   0  0  0  0  0  0  0  0  0  0  0  0
    5.2633   11.4940    5.8659 N   0  0  0  0  0  0  0  0  0  0  0  0
    5.1493   10.2629    5.1439 C   0  0  0  0  0  0  0  0  0  0  0  0
    4.5014    9.2956    5.6277 O   0  0  0  0  0  0  0  0  0  0  0  0
    5.8086   10.1135    3.8127 C   0  0  0  0  0  0  0  0  0  0  0  0
    7.2095    9.6833    3.9371 N   0  0  0  0  0  0  0  0  0  0  0  0
    7.9808    9.5180    2.7350 C   0  0  0  0  0  0  0  0  0  0  0  0
    7.4142    9.6752    1.6244 O   0  0  0  0  0  0  0  0  0  0  0  0
    9.4440    9.1935    2.6630 C   0  0  0  0  0  0  0  0  0  0  0  0
    9.7658    7.7143    2.4337 C   0  0  0  0  0  0  0  0  0  0  0  0
   11.2644    7.3644    2.5408 C   0  0  0  0  0  0  0  0  0  0  0  0
   12.1433    8.5869    2.2329 C   0  0  0  0  0  0  0  0  0  0  0  0
   13.6544    8.3400    1.9332 C   0  0  0  0  0  0  0  0  0  0  0  0
   14.0135    7.0449    1.2245 C   0  0  0  0  0  0  0  0  0  0  0  0
   14.6174    8.7741    2.9396 N   0  0  0  0  0  4  0  0  0  0  0  0
   11.8904    9.6848    3.2864 C   0  0  0  0  0  0  0  0  0  0  0  0
   10.4058   10.0816    3.4356 C   0  0  0  0  0  0  0  0  0  0  0  0
    3.5459   11.5501    7.0899 H   0  0  0  0  0  0  0  0  0  0  0  0
    4.8632   12.6960    7.5536 H   0  0  0  0  0  0  0  0  0  0  0  0
    5.0530   10.9310    7.8883 H   0  0  0  0  0  0  0  0  0  0  0  0
    5.8124   12.2820    5.4541 H   0  0  0  0  0  0  0  0  0  0  0  0
    5.2457    9.3665    3.2110 H   0  0  0  0  0  0  0  0  0  0  0  0
    5.7655   11.0860    3.2759 H   0  0  0  0  0  0  0  0  0  0  0  0
    7.6527    9.5270    4.8705 H   0  0  0  0  0  0  0  0  0  0  0  0
    9.6833    9.5857    1.6449 H   0  0  0  0  0  0  0  0  0  0  0  0
    9.2152    7.1104    3.1876 H   0  0  0  0  0  0  0  0  0  0  0  0
    9.3851    7.3989    1.4351 H   0  0  0  0  0  0  0  0  0  0  0  0
   11.4740    6.5318    1.8378 H   0  0  0  0  0  0  0  0  0  0  0  0
   11.4952    7.0010    3.5664 H   0  0  0  0  0  0  0  0  0  0  0  0
   11.7498    8.9804    1.2663 H   0  0  0  0  0  0  0  0  0  0  0  0
   13.8441    9.0654    1.1031 H   0  0  0  0  0  0  0  0  0  0  0  0
   15.0584    7.0793    0.8474 H   0  0  0  0  0  0  0  0  0  0  0  0
   13.3402    6.8740    0.3569 H   0  0  0  0  0  0  0  0  0  0  0  0
   13.9243    6.1936    1.9314 H   0  0  0  0  0  0  0  0  0  0  0  0
   15.5927    8.5554    2.6308 H   0  0  0  0  0  0  0  0  0  0  0  0
   14.5660    9.8051    3.1020 H   0  0  0  0  0  0  0  0  0  0  0  0
   14.4336    8.2664    3.8348 H   0  0  0  0  0  0  0  0  0  0  0  0
   12.2736    9.3421    4.2727 H   0  0  0  0  0  0  0  0  0  0  0  0
   12.4550   10.5998    3.0047 H   0  0  0  0  0  0  0  0  0  0  0  0
   10.1351   10.0261    4.5122 H   0  0  0  0  0  0  0  0  0  0  0  0
   10.2667   11.1445    3.1312 H   0  0  0  0  0  0  0  0  0  0  0  0
  1  2  1  0
  2  3  1  0
  3  4  2  0
  3  5  1  0
  5  6  1  0
  6  7  1  0
  7  8  2  0
  7  9  1  0
  9 10  1  0
 10 11  1  0
 11 12  1  0
 12 13  1  0
 13 14  1  0
 13 15  1  0
 12 16  1  0
 16 17  1  0
 17  9  1  0
  1 18  1  0
  1 19  1  0
  1 20  1  0
  2 21  1  0
  5 22  1  0
  5 23  1  0
  6 24  1  0
  9 25  1  0
 10 26  1  0
 10 27  1  0
 11 28  1  0
 11 29  1  0
 12 30  1  0
 13 31  1  0
 14 32  1  0
 14 33  1  0
 14 34  1  0
 15 35  1  0
 15 36  1  0
 15 37  1  0
 16 38  1  0
 16 39  1  0
 17 40  1  0
 17 41  1  0
M  CHG  1  15   1
M  END
>  <EmbedRMS>  (50) 
0.2569057114362328

$$$$

     RDKit          3D

 44 45  0  0  0  0  0  0  0  0999 V2000
   14.0266    7.0402    1.2345 C   0  0  0  0  0  0  0  0  0  0  0  0
   13.6677    8.3369    1.9399 C   0  0  0  0  0  0  0  0  0  0  0  0
   14.6122    8.7693    2.9622 N   0  0  0  0  0  4  0  0  0  0  0  0
   12.1560    8.5905    2.2126 C   0  0  0  0  0  0  0  0  0  0  0  0
   11.2387    7.3779    2.4534 C   0  0  0  0  0  0  0  0  0  0  0  0
    9.7859    7.8251    2.2157 C   0  0  0  0  0  0  0  0  0  0  0  0
    9.4084    8.9843    3.1580 C   0  0  0  0  0  0  0  0  0  0  0  0
    8.0095    9.4641    2.8837 C   0  0  0  0  0  0  0  0  0  0  0  0
    7.6244    9.6786    1.6993 O   0  0  0  0  0  0  0  0  0  0  0  0
    7.1246    9.6924    3.9865 N   0  0  0  0  0  0  0  0  0  0  0  0
    5.7681   10.1954    3.8177 C   0  0  0  0  0  0  0  0  0  0  0  0
    5.7997   11.6690    3.5407 C   0  0  0  0  0  0  0  0  0  0  0  0
    5.5715   12.1510    2.2429 C   0  0  0  0  0  0  0  0  0  0  0  0
    5.6128   13.5235    1.9866 C   0  0  0  0  0  0  0  0  0  0  0  0
    5.8878   14.4218    3.0210 C   0  0  0  0  0  0  0  0  0  0  0  0
    6.1267   13.9481    4.3152 C   0  0  0  0  0  0  0  0  0  0  0  0
    6.4746   15.0762    5.6114 Cl  0  0  0  0  0  0  0  0  0  0  0  0
    6.0876   12.5741    4.5749 C   0  0  0  0  0  0  0  0  0  0  0  0
   10.4033   10.1590    3.0894 C   0  0  0  0  0  0  0  0  0  0  0  0
   11.8537    9.6818    3.2546 C   0  0  0  0  0  0  0  0  0  0  0  0
   15.0817    7.0610    0.8857 H   0  0  0  0  0  0  0  0  0  0  0  0
   13.9066    6.1871    1.9349 H   0  0  0  0  0  0  0  0  0  0  0  0
   13.3754    6.8825    0.3478 H   0  0  0  0  0  0  0  0  0  0  0  0
   13.8811    9.0587    1.1117 H   0  0  0  0  0  0  0  0  0  0  0  0
   15.5885    8.5039    2.6964 H   0  0  0  0  0  0  0  0  0  0  0  0
   14.5940    9.8065    3.0887 H   0  0  0  0  0  0  0  0  0  0  0  0
   14.3775    8.3020    3.8674 H   0  0  0  0  0  0  0  0  0  0  0  0
   11.8002    9.0092    1.2381 H   0  0  0  0  0  0  0  0  0  0  0  0
   11.4605    6.5579    1.7402 H   0  0  0  0  0  0  0  0  0  0  0  0
   11.3694    6.9871    3.4863 H   0  0  0  0  0  0  0  0  0  0  0  0
    9.1111    6.9620    2.4064 H   0  0  0  0  0  0  0  0  0  0  0  0
    9.6547    8.1249    1.1519 H   0  0  0  0  0  0  0  0  0  0  0  0
    9.4445    8.5805    4.1949 H   0  0  0  0  0  0  0  0  0  0  0  0
    7.4564    9.4984    4.9583 H   0  0  0  0  0  0  0  0  0  0  0  0
    5.2538    9.6359    3.0058 H   0  0  0  0  0  0  0  0  0  0  0  0
    5.1905   10.0149    4.7505 H   0  0  0  0  0  0  0  0  0  0  0  0
    5.3587   11.4673    1.4305 H   0  0  0  0  0  0  0  0  0  0  0  0
    5.4323   13.8918    0.9849 H   0  0  0  0  0  0  0  0  0  0  0  0
    5.9176   15.4843    2.8155 H   0  0  0  0  0  0  0  0  0  0  0  0
    6.2773   12.2116    5.5780 H   0  0  0  0  0  0  0  0  0  0  0  0
   10.2983   10.6859    2.1144 H   0  0  0  0  0  0  0  0  0  0  0  0
   10.1697   10.8901    3.8943 H   0  0  0  0  0  0  0  0  0  0  0  0
   12.5061   10.5655    3.0942 H   0  0  0  0  0  0  0  0  0  0  0  0
   12.0201    9.2965    4.2845 H   0  0  0  0  0  0  0  0  0  0  0  0
  1  2  1  0
  2  3  1  0
  2  4  1  0
  4  5  1  0
  5  6  1  0
  6  7  1  0
  7  8  1  0
  8  9  2  0
  8 10  1  0
 10 11  1  0
 11 12  1  0
 12 13  2  0
 13 14  1  0
 14 15  2  0
 15 16  1  0
 16 17  1  0
 16 18  2  0
  7 19  1  0
 19 20  1  0
 20  4  1  0
 18 12  1  0
  1 21  1  0
  1 22  1  0
  1 23  1  0
  2 24  1  0
  3 25  1  0
  3 26  1  0
  3 27  1  0
  4 28  1  0
  5 29  1  0
  5 30  1  0
  6 31  1  0
  6 32  1  0
  7 33  1  0
 10 34  1  0
 11 35  1  0
 11 36  1  0
 13 37  1  0
 14 38  1  0
 15 39  1  0
 18 40  1  0
 19 41  1  0
 19 42  1  0
 20 43  1  0
 20 44  1  0
M  CHG  1   3   1
M  END
>  <EmbedRMS>  (51) 
0.1730785370746659

$$$$

     RDKit          3D

 40 40  0  0  0  0  0  0  0  0999 V2000
    4.7996    8.8875    5.7514 C   0  0  0  0  0  0  0  0  0  0  0  0
    5.0467   10.2639    5.1374 C   0  0  0  0  0  0  0  0  0  0  0  0
    5.7665   10.1567    3.7915 C   0  0  0  0  0  0  0  0  0  0  0  0
    7.1428    9.7130    3.9787 N   0  0  0  0  0  0  0  0  0  0  0  0
    8.0146    9.4652    2.8756 C   0  0  0  0  0  0  0  0  0  0  0  0
    7.6236    9.6740    1.6923 O   0  0  0  0  0  0  0  0  0  0  0  0
    9.4117    8.9838    3.1514 C   0  0  0  0  0  0  0  0  0  0  0  0
    9.7887    7.8242    2.2110 C   0  0  0  0  0  0  0  0  0  0  0  0
   11.2406    7.3770    2.4518 C   0  0  0  0  0  0  0  0  0  0  0  0
   12.1580    8.5898    2.2119 C   0  0  0  0  0  0  0  0  0  0  0  0
   13.6694    8.3363    1.9396 C   0  0  0  0  0  0  0  0  0  0  0  0
   14.0282    7.0396    1.2342 C   0  0  0  0  0  0  0  0  0  0  0  0
   14.6135    8.7686    2.9623 N   0  0  0  0  0  4  0  0  0  0  0  0
   11.8558    9.6805    3.2543 C   0  0  0  0  0  0  0  0  0  0  0  0
   10.4065   10.1585    3.0871 C   0  0  0  0  0  0  0  0  0  0  0  0
    5.7572    8.3688    5.9654 H   0  0  0  0  0  0  0  0  0  0  0  0
    4.2454    9.0044    6.7064 H   0  0  0  0  0  0  0  0  0  0  0  0
    4.1898    8.2616    5.0655 H   0  0  0  0  0  0  0  0  0  0  0  0
    4.0659   10.7624    4.9797 H   0  0  0  0  0  0  0  0  0  0  0  0
    5.6383   10.8902    5.8402 H   0  0  0  0  0  0  0  0  0  0  0  0
    5.7713   11.1553    3.3036 H   0  0  0  0  0  0  0  0  0  0  0  0
    5.2272    9.4458    3.1277 H   0  0  0  0  0  0  0  0  0  0  0  0
    7.5227    9.5975    4.9460 H   0  0  0  0  0  0  0  0  0  0  0  0
    9.4460    8.5780    4.1877 H   0  0  0  0  0  0  0  0  0  0  0  0
    9.1131    6.9617    2.4015 H   0  0  0  0  0  0  0  0  0  0  0  0
    9.6593    8.1232    1.1467 H   0  0  0  0  0  0  0  0  0  0  0  0
   11.3694    6.9867    3.4850 H   0  0  0  0  0  0  0  0  0  0  0  0
   11.4634    6.5566    1.7393 H   0  0  0  0  0  0  0  0  0  0  0  0
   11.8029    9.0089    1.2373 H   0  0  0  0  0  0  0  0  0  0  0  0
   13.8833    9.0581    1.1114 H   0  0  0  0  0  0  0  0  0  0  0  0
   15.0833    7.0602    0.8857 H   0  0  0  0  0  0  0  0  0  0  0  0
   13.3773    6.8823    0.3472 H   0  0  0  0  0  0  0  0  0  0  0  0
   13.9078    6.1866    1.9345 H   0  0  0  0  0  0  0  0  0  0  0  0
   15.5897    8.5020    2.6974 H   0  0  0  0  0  0  0  0  0  0  0  0
   14.5964    9.8059    3.0880 H   0  0  0  0  0  0  0  0  0  0  0  0
   14.3778    8.3021    3.8677 H   0  0  0  0  0  0  0  0  0  0  0  0
   12.5089   10.5640    3.0952 H   0  0  0  0  0  0  0  0  0  0  0  0
   12.0205    9.2944    4.2841 H   0  0  0  0  0  0  0  0  0  0  0  0
   10.1719   10.8879    3.8931 H   0  0  0  0  0  0  0  0  0  0  0  0
   10.3038   10.6871    2.1128 H   0  0  0  0  0  0  0  0  0  0  0  0
  1  2  1  0
  2  3  1  0
  3  4  1  0
  4  5  1  0
  5  6  2  0
  5  7  1  0
  7  8  1  0
  8  9  1  0
  9 10  1  0
 10 11  1  0
 11 12  1  0
 11 13  1  0
 10 14  1  0
 14 15  1  0
 15  7  1  0
  1 16  1  0
  1 17  1  0
  1 18  1  0
  2 19  1  0
  2 20  1  0
  3 21  1  0
  3 22  1  0
  4 23  1  0
  7 24  1  0
  8 25  1  0
  8 26  1  0
  9 27  1  0
  9 28  1  0
 10 29  1  0
 11 30  1  0
 12 31  1  0
 12 32  1  0
 12 33  1  0
 13 34  1  0
 13 35  1  0
 13 36  1  0
 14 37  1  0
 14 38  1  0
 15 39  1  0
 15 40  1  0
M  CHG  1  13   1
M  END
>  <EmbedRMS>  (52) 
0.2000484947854372

$$$$

     RDKit          3D

 40 40  0  0  0  0  0  0  0  0999 V2000
   13.9325    7.3326    1.0259 C   0  0  0  0  0  0  0  0  0  0  0  0
   13.7100    7.9153    2.4298 C   0  0  0  0  0  0  0  0  0  0  0  0
   14.6481    9.0170    2.6728 N   0  0  0  0  0  4  0  0  0  0  0  0
   12.2327    8.2991    2.7958 C   0  0  0  0  0  0  0  0  0  0  0  0
   11.1471    7.3156    2.3202 C   0  0  0  0  0  0  0  0  0  0  0  0
    9.7838    7.9353    2.0756 C   0  0  0  0  0  0  0  0  0  0  0  0
    9.4206    8.9836    3.1211 C   0  0  0  0  0  0  0  0  0  0  0  0
    8.0117    9.4642    2.8778 C   0  0  0  0  0  0  0  0  0  0  0  0
    7.6107    9.6833    1.6988 O   0  0  0  0  0  0  0  0  0  0  0  0
    7.1357    9.6868    3.9879 N   0  0  0  0  0  0  0  0  0  0  0  0
    5.7694   10.1676    3.8175 C   0  0  0  0  0  0  0  0  0  0  0  0
    5.7738   11.6497    3.4684 C   0  0  0  0  0  0  0  0  0  0  0  0
    4.4354   12.1031    3.3127 O   0  0  0  0  0  0  0  0  0  0  0  0
    4.1335   13.4251    2.9836 C   0  0  0  0  0  0  0  0  0  0  0  0
    5.0475   14.2753    2.8106 O   0  0  0  0  0  0  0  0  0  0  0  0
   10.3924   10.1679    3.0630 C   0  0  0  0  0  0  0  0  0  0  0  0
   11.8848    9.7893    2.9953 C   0  0  0  0  0  0  0  0  0  0  0  0
   13.5363    6.2979    0.9564 H   0  0  0  0  0  0  0  0  0  0  0  0
   13.4422    7.9752    0.2642 H   0  0  0  0  0  0  0  0  0  0  0  0
   15.0169    7.2744    0.7922 H   0  0  0  0  0  0  0  0  0  0  0  0
   14.0073    7.0856    3.1158 H   0  0  0  0  0  0  0  0  0  0  0  0
   15.6314    8.6708    2.5836 H   0  0  0  0  0  0  0  0  0  0  0  0
   14.5083    9.7869    1.9796 H   0  0  0  0  0  0  0  0  0  0  0  0
   14.5403    9.3814    3.6466 H   0  0  0  0  0  0  0  0  0  0  0  0
   12.2364    8.0294    3.8804 H   0  0  0  0  0  0  0  0  0  0  0  0
   11.0335    6.4804    3.0503 H   0  0  0  0  0  0  0  0  0  0  0  0
   11.4303    6.8349    1.3654 H   0  0  0  0  0  0  0  0  0  0  0  0
    9.0196    7.1260    2.0677 H   0  0  0  0  0  0  0  0  0  0  0  0
    9.7864    8.4041    1.0650 H   0  0  0  0  0  0  0  0  0  0  0  0
    9.4828    8.5135    4.1281 H   0  0  0  0  0  0  0  0  0  0  0  0
    7.4634    9.4544    4.9526 H   0  0  0  0  0  0  0  0  0  0  0  0
    5.2082   10.0221    4.7662 H   0  0  0  0  0  0  0  0  0  0  0  0
    5.2579    9.5840    3.0215 H   0  0  0  0  0  0  0  0  0  0  0  0
    6.3310   11.8175    2.5218 H   0  0  0  0  0  0  0  0  0  0  0  0
    6.2681   12.2200    4.2854 H   0  0  0  0  0  0  0  0  0  0  0  0
    3.0998   13.7234    2.8757 H   0  0  0  0  0  0  0  0  0  0  0  0
   10.2182   10.8156    3.9508 H   0  0  0  0  0  0  0  0  0  0  0  0
   10.1507   10.7887    2.1698 H   0  0  0  0  0  0  0  0  0  0  0  0
   12.3133   10.3473    2.1358 H   0  0  0  0  0  0  0  0  0  0  0  0
   12.3911   10.1926    3.9021 H   0  0  0  0  0  0  0  0  0  0  0  0
  1  2  1  0
  2  3  1  0
  2  4  1  0
  4  5  1  0
  5  6  1  0
  6  7  1  0
  7  8  1  0
  8  9  2  0
  8 10  1  0
 10 11  1  0
 11 12  1  0
 12 13  1  0
 13 14  1  0
 14 15  2  0
  7 16  1  0
 16 17  1  0
 17  4  1  0
  1 18  1  0
  1 19  1  0
  1 20  1  0
  2 21  1  0
  3 22  1  0
  3 23  1  0
  3 24  1  0
  4 25  1  0
  5 26  1  0
  5 27  1  0
  6 28  1  0
  6 29  1  0
  7 30  1  0
 10 31  1  0
 11 32  1  0
 11 33  1  0
 12 34  1  0
 12 35  1  0
 14 36  1  0
 16 37  1  0
 16 38  1  0
 17 39  1  0
 17 40  1  0
M  CHG  1   3   1
M  END
>  <EmbedRMS>  (53) 
0.16848989566473074

$$$$

     RDKit          3D

 44 44  0  0  0  0  0  0  0  0999 V2000
   14.0122    7.0504    1.2528 C   0  0  0  0  0  0  0  0  0  0  0  0
   13.6014    8.3242    1.9895 C   0  0  0  0  0  0  0  0  0  0  0  0
   14.7031    8.8917    2.7695 N   0  0  0  0  0  4  0  0  0  0  0  0
   12.2621    8.3269    2.7668 C   0  0  0  0  0  0  0  0  0  0  0  0
   11.1808    7.4388    2.1343 C   0  0  0  0  0  0  0  0  0  0  0  0
    9.7461    7.7259    2.5428 C   0  0  0  0  0  0  0  0  0  0  0  0
    9.4521    9.2015    2.6313 C   0  0  0  0  0  0  0  0  0  0  0  0
    7.9916    9.5235    2.7203 C   0  0  0  0  0  0  0  0  0  0  0  0
    7.4126    9.6688    1.6167 O   0  0  0  0  0  0  0  0  0  0  0  0
    7.2400    9.6875    3.9339 N   0  0  0  0  0  0  0  0  0  0  0  0
    5.8476   10.1523    3.8888 C   0  0  0  0  0  0  0  0  0  0  0  0
    5.7866   11.6348    3.4787 C   0  0  0  0  0  0  0  0  0  0  0  0
    4.3465   12.1386    3.3126 C   0  0  0  0  0  0  0  0  0  0  0  0
    3.6290   12.3298    4.6495 C   0  0  0  0  0  0  0  0  0  0  0  0
    4.2413   13.3567    5.3785 O   0  0  0  0  0  0  0  0  0  0  0  0
   10.3855   10.0198    3.4797 C   0  0  0  0  0  0  0  0  0  0  0  0
   11.8500    9.7805    3.1211 C   0  0  0  0  0  0  0  0  0  0  0  0
   13.2687    6.7646    0.4806 H   0  0  0  0  0  0  0  0  0  0  0  0
   14.1172    6.2175    1.9793 H   0  0  0  0  0  0  0  0  0  0  0  0
   14.9842    7.1925    0.7340 H   0  0  0  0  0  0  0  0  0  0  0  0
   13.4373    9.0283    1.1407 H   0  0  0  0  0  0  0  0  0  0  0  0
   14.8388    8.3412    3.6483 H   0  0  0  0  0  0  0  0  0  0  0  0
   15.5925    8.8677    2.2196 H   0  0  0  0  0  0  0  0  0  0  0  0
   14.5205    9.8921    3.0080 H   0  0  0  0  0  0  0  0  0  0  0  0
   12.4694    7.8404    3.7467 H   0  0  0  0  0  0  0  0  0  0  0  0
   11.4072    6.3663    2.3242 H   0  0  0  0  0  0  0  0  0  0  0  0
   11.2151    7.5901    1.0331 H   0  0  0  0  0  0  0  0  0  0  0  0
    9.0562    7.2342    1.8205 H   0  0  0  0  0  0  0  0  0  0  0  0
    9.5628    7.2727    3.5415 H   0  0  0  0  0  0  0  0  0  0  0  0
    9.7228    9.5602    1.6072 H   0  0  0  0  0  0  0  0  0  0  0  0
    7.6837    9.4625    4.8522 H   0  0  0  0  0  0  0  0  0  0  0  0
    5.2667    9.5248    3.1781 H   0  0  0  0  0  0  0  0  0  0  0  0
    5.4038   10.0240    4.8977 H   0  0  0  0  0  0  0  0  0  0  0  0
    6.3284   12.2520    4.2280 H   0  0  0  0  0  0  0  0  0  0  0  0
    6.3039   11.7726    2.5063 H   0  0  0  0  0  0  0  0  0  0  0  0
    3.7695   11.4279    2.6816 H   0  0  0  0  0  0  0  0  0  0  0  0
    4.3660   13.1138    2.7785 H   0  0  0  0  0  0  0  0  0  0  0  0
    3.6223   11.3875    5.2378 H   0  0  0  0  0  0  0  0  0  0  0  0
    2.5718   12.6091    4.4429 H   0  0  0  0  0  0  0  0  0  0  0  0
    3.7359   13.4294    6.2295 H   0  0  0  0  0  0  0  0  0  0  0  0
   10.1480   11.1029    3.3827 H   0  0  0  0  0  0  0  0  0  0  0  0
   10.2298    9.7354    4.5431 H   0  0  0  0  0  0  0  0  0  0  0  0
   12.4697   10.1514    3.9664 H   0  0  0  0  0  0  0  0  0  0  0  0
   12.0674   10.4408    2.2526 H   0  0  0  0  0  0  0  0  0  0  0  0
  1  2  1  0
  2  3  1  0
  2  4  1  0
  4  5  1  0
  5  6  1  0
  6  7  1  0
  7  8  1  0
  8  9  2  0
  8 10  1  0
 10 11  1  0
 11 12  1  0
 12 13  1  0
 13 14  1  0
 14 15  1  0
  7 16  1  0
 16 17  1  0
 17  4  1  0
  1 18  1  0
  1 19  1  0
  1 20  1  0
  2 21  1  0
  3 22  1  0
  3 23  1  0
  3 24  1  0
  4 25  1  0
  5 26  1  0
  5 27  1  0
  6 28  1  0
  6 29  1  0
  7 30  1  0
 10 31  1  0
 11 32  1  0
 11 33  1  0
 12 34  1  0
 12 35  1  0
 13 36  1  0
 13 37  1  0
 14 38  1  0
 14 39  1  0
 15 40  1  0
 16 41  1  0
 16 42  1  0
 17 43  1  0
 17 44  1  0
M  CHG  1   3   1
M  END
>  <EmbedRMS>  (54) 
0.3028787039700591

$$$$

     RDKit          3D

 38 38  0  0  0  0  0  0  0  0999 V2000
   14.0281    7.0397    1.2343 C   0  0  0  0  0  0  0  0  0  0  0  0
   13.6693    8.3364    1.9396 C   0  0  0  0  0  0  0  0  0  0  0  0
   14.6134    8.7687    2.9623 N   0  0  0  0  0  4  0  0  0  0  0  0
   12.1578    8.5899    2.2120 C   0  0  0  0  0  0  0  0  0  0  0  0
   11.2405    7.3772    2.4519 C   0  0  0  0  0  0  0  0  0  0  0  0
    9.7885    7.8243    2.2114 C   0  0  0  0  0  0  0  0  0  0  0  0
    9.4114    8.9838    3.1519 C   0  0  0  0  0  0  0  0  0  0  0  0
    8.0137    9.4644    2.8764 C   0  0  0  0  0  0  0  0  0  0  0  0
    7.6236    9.6755    1.6931 O   0  0  0  0  0  0  0  0  0  0  0  0
    7.1388    9.7055    3.9791 N   0  0  0  0  0  0  0  0  0  0  0  0
    5.7610   10.1385    3.7918 C   0  0  0  0  0  0  0  0  0  0  0  0
    5.0964   10.2807    5.1228 C   0  0  0  0  0  0  0  0  0  0  0  0
    5.2137   11.4974    5.8582 N   0  0  0  0  0  0  0  0  0  0  0  0
    4.4940    9.2972    5.6288 O   0  0  0  0  0  0  0  0  0  0  0  0
   10.4061   10.1586    3.0871 C   0  0  0  0  0  0  0  0  0  0  0  0
   11.8556    9.6808    3.2542 C   0  0  0  0  0  0  0  0  0  0  0  0
   13.3771    6.8823    0.3473 H   0  0  0  0  0  0  0  0  0  0  0  0
   13.9078    6.1867    1.9346 H   0  0  0  0  0  0  0  0  0  0  0  0
   15.0832    7.0603    0.8857 H   0  0  0  0  0  0  0  0  0  0  0  0
   13.8831    9.0582    1.1114 H   0  0  0  0  0  0  0  0  0  0  0  0
   15.5896    8.5022    2.6974 H   0  0  0  0  0  0  0  0  0  0  0  0
   14.3777    8.3021    3.8677 H   0  0  0  0  0  0  0  0  0  0  0  0
   14.5961    9.8060    3.0881 H   0  0  0  0  0  0  0  0  0  0  0  0
   11.8027    9.0089    1.2373 H   0  0  0  0  0  0  0  0  0  0  0  0
   11.3695    6.9868    3.4852 H   0  0  0  0  0  0  0  0  0  0  0  0
   11.4632    6.5568    1.7395 H   0  0  0  0  0  0  0  0  0  0  0  0
    9.6589    8.1233    1.1472 H   0  0  0  0  0  0  0  0  0  0  0  0
    9.1130    6.9617    2.4019 H   0  0  0  0  0  0  0  0  0  0  0  0
    9.4464    8.5784    4.1883 H   0  0  0  0  0  0  0  0  0  0  0  0
    7.5087    9.5678    4.9482 H   0  0  0  0  0  0  0  0  0  0  0  0
    5.7440   11.1125    3.2573 H   0  0  0  0  0  0  0  0  0  0  0  0
    5.2145    9.3890    3.1791 H   0  0  0  0  0  0  0  0  0  0  0  0
    5.7459   12.3067    5.4681 H   0  0  0  0  0  0  0  0  0  0  0  0
    4.7721   11.5883    6.8000 H   0  0  0  0  0  0  0  0  0  0  0  0
   10.1715   10.8883    3.8929 H   0  0  0  0  0  0  0  0  0  0  0  0
   10.3032   10.6869    2.1126 H   0  0  0  0  0  0  0  0  0  0  0  0
   12.5086   10.5642    3.0949 H   0  0  0  0  0  0  0  0  0  0  0  0
   12.0204    9.2949    4.2840 H   0  0  0  0  0  0  0  0  0  0  0  0
  1  2  1  0
  2  3  1  0
  2  4  1  0
  4  5  1  0
  5  6  1  0
  6  7  1  0
  7  8  1  0
  8  9  2  0
  8 10  1  0
 10 11  1  0
 11 12  1  0
 12 13  1  0
 12 14  2  0
  7 15  1  0
 15 16  1  0
 16  4  1  0
  1 17  1  0
  1 18  1  0
  1 19  1  0
  2 20  1  0
  3 21  1  0
  3 22  1  0
  3 23  1  0
  4 24  1  0
  5 25  1  0
  5 26  1  0
  6 27  1  0
  6 28  1  0
  7 29  1  0
 10 30  1  0
 11 31  1  0
 11 32  1  0
 13 33  1  0
 13 34  1  0
 15 35  1  0
 15 36  1  0
 16 37  1  0
 16 38  1  0
M  CHG  1   3   1
M  END
>  <EmbedRMS>  (55) 
0.1933160619529778

$$$$

     RDKit          3D

 37 37  0  0  0  0  0  0  0  0999 V2000
    4.9010    8.9493    3.3214 C   0  0  0  0  0  0  0  0  0  0  0  0
    5.7477   10.1185    3.8091 C   0  0  0  0  0  0  0  0  0  0  0  0
    7.1378    9.7075    3.9757 N   0  0  0  0  0  0  0  0  0  0  0  0
    8.0091    9.4709    2.8632 C   0  0  0  0  0  0  0  0  0  0  0  0
    7.6090    9.6877    1.6849 O   0  0  0  0  0  0  0  0  0  0  0  0
    9.4140    8.9898    3.1084 C   0  0  0  0  0  0  0  0  0  0  0  0
    9.7981    7.9225    2.0853 C   0  0  0  0  0  0  0  0  0  0  0  0
   11.1578    7.3127    2.3960 C   0  0  0  0  0  0  0  0  0  0  0  0
   12.2752    8.3218    2.7734 C   0  0  0  0  0  0  0  0  0  0  0  0
   13.5805    8.3571    1.9538 C   0  0  0  0  0  0  0  0  0  0  0  0
   13.9836    7.0985    1.1857 C   0  0  0  0  0  0  0  0  0  0  0  0
   14.7111    8.8839    2.7305 N   0  0  0  0  0  4  0  0  0  0  0  0
   11.8317    9.7194    3.3044 C   0  0  0  0  0  0  0  0  0  0  0  0
   10.3968   10.1516    3.0079 C   0  0  0  0  0  0  0  0  0  0  0  0
    4.9738    8.1023    4.0363 H   0  0  0  0  0  0  0  0  0  0  0  0
    5.2401    8.6114    2.3200 H   0  0  0  0  0  0  0  0  0  0  0  0
    3.8390    9.2647    3.2475 H   0  0  0  0  0  0  0  0  0  0  0  0
    5.6836   10.9644    3.0910 H   0  0  0  0  0  0  0  0  0  0  0  0
    5.3476   10.4660    4.7862 H   0  0  0  0  0  0  0  0  0  0  0  0
    7.5181    9.6307    4.9461 H   0  0  0  0  0  0  0  0  0  0  0  0
    9.4709    8.5475    4.1287 H   0  0  0  0  0  0  0  0  0  0  0  0
    9.8276    8.3613    1.0624 H   0  0  0  0  0  0  0  0  0  0  0  0
    9.0349    7.1124    2.0811 H   0  0  0  0  0  0  0  0  0  0  0  0
   11.0040    6.5968    3.2371 H   0  0  0  0  0  0  0  0  0  0  0  0
   11.4410    6.6836    1.5321 H   0  0  0  0  0  0  0  0  0  0  0  0
   12.6575    7.8399    3.7045 H   0  0  0  0  0  0  0  0  0  0  0  0
   13.3805    9.1010    1.1485 H   0  0  0  0  0  0  0  0  0  0  0  0
   15.0000    7.2116    0.7521 H   0  0  0  0  0  0  0  0  0  0  0  0
   13.2924    6.9108    0.3375 H   0  0  0  0  0  0  0  0  0  0  0  0
   13.9867    6.2216    1.8670 H   0  0  0  0  0  0  0  0  0  0  0  0
   14.9942    8.1900    3.4603 H   0  0  0  0  0  0  0  0  0  0  0  0
   14.4920    9.7901    3.1973 H   0  0  0  0  0  0  0  0  0  0  0  0
   15.5287    9.0531    2.1001 H   0  0  0  0  0  0  0  0  0  0  0  0
   12.4766   10.5261    2.8979 H   0  0  0  0  0  0  0  0  0  0  0  0
   11.9658    9.7500    4.4102 H   0  0  0  0  0  0  0  0  0  0  0  0
   10.3549   10.5873    1.9838 H   0  0  0  0  0  0  0  0  0  0  0  0
   10.1049   10.9541    3.7216 H   0  0  0  0  0  0  0  0  0  0  0  0
  1  2  1  0
  2  3  1  0
  3  4  1  0
  4  5  2  0
  4  6  1  0
  6  7  1  0
  7  8  1  0
  8  9  1  0
  9 10  1  0
 10 11  1  0
 10 12  1  0
  9 13  1  0
 13 14  1  0
 14  6  1  0
  1 15  1  0
  1 16  1  0
  1 17  1  0
  2 18  1  0
  2 19  1  0
  3 20  1  0
  6 21  1  0
  7 22  1  0
  7 23  1  0
  8 24  1  0
  8 25  1  0
  9 26  1  0
 10 27  1  0
 11 28  1  0
 11 29  1  0
 11 30  1  0
 12 31  1  0
 12 32  1  0
 12 33  1  0
 13 34  1  0
 13 35  1  0
 14 36  1  0
 14 37  1  0
M  CHG  1  12   1
M  END
>  <EmbedRMS>  (56) 
0.22880006867790334

$$$$

     RDKit          3D

 45 46  0  0  0  0  0  0  0  0999 V2000
    5.8514   12.6998    5.6895 C   0  0  0  0  0  0  0  0  0  0  0  0
    5.2036   11.3793    5.9660 C   0  0  0  0  0  0  0  0  0  0  0  0
    5.1570   10.2726    5.1406 C   0  0  0  0  0  0  0  0  0  0  0  0
    5.8097   10.1082    3.8070 C   0  0  0  0  0  0  0  0  0  0  0  0
    7.2150    9.6895    3.9297 N   0  0  0  0  0  0  0  0  0  0  0  0
    7.9857    9.5289    2.7256 C   0  0  0  0  0  0  0  0  0  0  0  0
    7.4179    9.6832    1.6168 O   0  0  0  0  0  0  0  0  0  0  0  0
    9.4481    9.2027    2.6420 C   0  0  0  0  0  0  0  0  0  0  0  0
    9.7434    7.7270    2.5462 C   0  0  0  0  0  0  0  0  0  0  0  0
   11.1783    7.4407    2.1350 C   0  0  0  0  0  0  0  0  0  0  0  0
   12.2607    8.3275    2.7676 C   0  0  0  0  0  0  0  0  0  0  0  0
   13.6000    8.3245    1.9899 C   0  0  0  0  0  0  0  0  0  0  0  0
   14.0105    7.0507    1.2529 C   0  0  0  0  0  0  0  0  0  0  0  0
   14.7021    8.8917    2.7696 N   0  0  0  0  0  4  0  0  0  0  0  0
   11.8488    9.7810    3.1224 C   0  0  0  0  0  0  0  0  0  0  0  0
   10.3850   10.0204    3.4863 C   0  0  0  0  0  0  0  0  0  0  0  0
    4.4309    9.3084    5.8146 C   0  0  0  0  0  0  0  0  0  0  0  0
    4.0409    9.7884    6.9746 O   0  0  0  0  0  0  0  0  0  0  0  0
    4.4839   11.0196    7.0876 C   0  0  0  0  0  0  0  0  0  0  0  0
    4.2510   11.8196    8.2021 O   0  0  0  0  0  0  0  0  0  0  0  0
    5.0892   13.4152    5.3175 H   0  0  0  0  0  0  0  0  0  0  0  0
    6.3120   13.1014    6.6157 H   0  0  0  0  0  0  0  0  0  0  0  0
    6.6527   12.5914    4.9295 H   0  0  0  0  0  0  0  0  0  0  0  0
    5.2496    9.3456    3.2232 H   0  0  0  0  0  0  0  0  0  0  0  0
    5.7521   11.0686    3.2509 H   0  0  0  0  0  0  0  0  0  0  0  0
    7.6622    9.5421    4.8626 H   0  0  0  0  0  0  0  0  0  0  0  0
    9.7208    9.5621    1.6186 H   0  0  0  0  0  0  0  0  0  0  0  0
    9.0525    7.2383    1.8228 H   0  0  0  0  0  0  0  0  0  0  0  0
    9.5609    7.2698    3.5431 H   0  0  0  0  0  0  0  0  0  0  0  0
   11.2113    7.5939    1.0341 H   0  0  0  0  0  0  0  0  0  0  0  0
   11.4049    6.3678    2.3227 H   0  0  0  0  0  0  0  0  0  0  0  0
   12.4679    7.8404    3.7472 H   0  0  0  0  0  0  0  0  0  0  0  0
   13.4357    9.0287    1.1412 H   0  0  0  0  0  0  0  0  0  0  0  0
   14.9817    7.1933    0.7326 H   0  0  0  0  0  0  0  0  0  0  0  0
   13.2659    6.7643    0.4821 H   0  0  0  0  0  0  0  0  0  0  0  0
   14.1171    6.2180    1.9796 H   0  0  0  0  0  0  0  0  0  0  0  0
   14.8373    8.3420    3.6488 H   0  0  0  0  0  0  0  0  0  0  0  0
   14.5203    9.8925    3.0070 H   0  0  0  0  0  0  0  0  0  0  0  0
   15.5917    8.8665    2.2198 H   0  0  0  0  0  0  0  0  0  0  0  0
   12.0633   10.4407    2.2527 H   0  0  0  0  0  0  0  0  0  0  0  0
   12.4711   10.1526    3.9655 H   0  0  0  0  0  0  0  0  0  0  0  0
   10.2326    9.7357    4.5502 H   0  0  0  0  0  0  0  0  0  0  0  0
   10.1475   11.1036    3.3907 H   0  0  0  0  0  0  0  0  0  0  0  0
    4.2107    8.3097    5.4609 H   0  0  0  0  0  0  0  0  0  0  0  0
    4.5968   12.7697    8.2542 H   0  0  0  0  0  0  0  0  0  0  0  0
  1  2  1  0
  2  3  1  0
  3  4  1  0
  4  5  1  0
  5  6  1  0
  6  7  2  0
  6  8  1  0
  8  9  1  0
  9 10  1  0
 10 11  1  0
 11 12  1  0
 12 13  1  0
 12 14  1  0
 11 15  1  0
 15 16  1  0
  3 17  2  0
 17 18  1  0
 18 19  1  0
 19 20  1  0
 19  2  2  0
 16  8  1  0
  1 21  1  0
  1 22  1  0
  1 23  1  0
  4 24  1  0
  4 25  1  0
  5 26  1  0
  8 27  1  0
  9 28  1  0
  9 29  1  0
 10 30  1  0
 10 31  1  0
 11 32  1  0
 12 33  1  0
 13 34  1  0
 13 35  1  0
 13 36  1  0
 14 37  1  0
 14 38  1  0
 14 39  1  0
 15 40  1  0
 15 41  1  0
 16 42  1  0
 16 43  1  0
 17 44  1  0
 20 45  1  0
M  CHG  1  14   1
M  END
>  <EmbedRMS>  (57) 
0.27767967460211923

$$$$

     RDKit          3D

 48 48  0  0  0  0  0  0  0  0999 V2000
   14.0274    7.2291    1.0855 C   0  0  0  0  0  0  0  0  0  0  0  0
   13.6459    7.9613    2.3847 C   0  0  0  0  0  0  0  0  0  0  0  0
   14.6278    9.0228    2.6469 N   0  0  0  0  0  4  0  0  0  0  0  0
   12.1823    8.5077    2.2955 C   0  0  0  0  0  0  0  0  0  0  0  0
   11.1959    7.3497    2.5384 C   0  0  0  0  0  0  0  0  0  0  0  0
    9.7315    7.7460    2.3771 C   0  0  0  0  0  0  0  0  0  0  0  0
    9.4546    9.2190    2.6345 C   0  0  0  0  0  0  0  0  0  0  0  0
    7.9960    9.5562    2.7208 C   0  0  0  0  0  0  0  0  0  0  0  0
    7.4317    9.7473    1.6163 O   0  0  0  0  0  0  0  0  0  0  0  0
    7.2244    9.6569    3.9322 N   0  0  0  0  0  0  0  0  0  0  0  0
    5.8037   10.0451    3.8981 C   0  0  0  0  0  0  0  0  0  0  0  0
    4.8816    8.8215    3.7784 C   0  0  0  0  0  0  0  0  0  0  0  0
    5.0325    8.1185    2.4285 C   0  0  0  0  0  0  0  0  0  0  0  0
    4.1676    6.9267    2.3602 N   0  0  0  0  0  0  0  0  0  0  0  0
    4.8202    5.8964    1.5379 C   0  0  0  0  0  0  0  0  0  0  0  0
    2.8710    7.2687    1.7566 C   0  0  0  0  0  0  0  0  0  0  0  0
   10.4222   10.0752    3.4274 C   0  0  0  0  0  0  0  0  0  0  0  0
   11.8984    9.6363    3.3188 C   0  0  0  0  0  0  0  0  0  0  0  0
   15.0705    6.8531    1.1515 H   0  0  0  0  0  0  0  0  0  0  0  0
   13.3795    6.3493    0.9040 H   0  0  0  0  0  0  0  0  0  0  0  0
   13.9576    7.9160    0.2152 H   0  0  0  0  0  0  0  0  0  0  0  0
   13.7138    7.2262    3.2195 H   0  0  0  0  0  0  0  0  0  0  0  0
   15.5993    8.6400    2.5838 H   0  0  0  0  0  0  0  0  0  0  0  0
   14.5161    9.3971    3.6162 H   0  0  0  0  0  0  0  0  0  0  0  0
   14.5268    9.7965    1.9499 H   0  0  0  0  0  0  0  0  0  0  0  0
   12.0129    8.9226    1.2762 H   0  0  0  0  0  0  0  0  0  0  0  0
   11.3439    6.9655    3.5729 H   0  0  0  0  0  0  0  0  0  0  0  0
   11.3932    6.5022    1.8513 H   0  0  0  0  0  0  0  0  0  0  0  0
    9.3848    7.4696    1.3542 H   0  0  0  0  0  0  0  0  0  0  0  0
    9.1267    7.1386    3.0863 H   0  0  0  0  0  0  0  0  0  0  0  0
    9.7188    9.6207    1.6242 H   0  0  0  0  0  0  0  0  0  0  0  0
    7.6810    9.4612    4.8509 H   0  0  0  0  0  0  0  0  0  0  0  0
    5.6091   10.7667    3.0747 H   0  0  0  0  0  0  0  0  0  0  0  0
    5.5603   10.5692    4.8473 H   0  0  0  0  0  0  0  0  0  0  0  0
    5.1117    8.1066    4.5985 H   0  0  0  0  0  0  0  0  0  0  0  0
    3.8308    9.1593    3.9027 H   0  0  0  0  0  0  0  0  0  0  0  0
    4.8310    8.8298    1.5942 H   0  0  0  0  0  0  0  0  0  0  0  0
    6.0946    7.8059    2.3502 H   0  0  0  0  0  0  0  0  0  0  0  0
    5.7513    5.5451    2.0334 H   0  0  0  0  0  0  0  0  0  0  0  0
    5.0683    6.2818    0.5229 H   0  0  0  0  0  0  0  0  0  0  0  0
    4.1597    5.0079    1.4351 H   0  0  0  0  0  0  0  0  0  0  0  0
    2.9863    7.6143    0.7043 H   0  0  0  0  0  0  0  0  0  0  0  0
    2.1992    6.3835    1.7727 H   0  0  0  0  0  0  0  0  0  0  0  0
    2.3696    8.0669    2.3439 H   0  0  0  0  0  0  0  0  0  0  0  0
   10.3228   11.1425    3.1220 H   0  0  0  0  0  0  0  0  0  0  0  0
   10.1225   10.0298    4.4969 H   0  0  0  0  0  0  0  0  0  0  0  0
   12.4993   10.5329    3.0541 H   0  0  0  0  0  0  0  0  0  0  0  0
   12.2353    9.2985    4.3244 H   0  0  0  0  0  0  0  0  0  0  0  0
  1  2  1  0
  2  3  1  0
  2  4  1  0
  4  5  1  0
  5  6  1  0
  6  7  1  0
  7  8  1  0
  8  9  2  0
  8 10  1  0
 10 11  1  0
 11 12  1  0
 12 13  1  0
 13 14  1  0
 14 15  1  0
 14 16  1  0
  7 17  1  0
 17 18  1  0
 18  4  1  0
  1 19  1  0
  1 20  1  0
  1 21  1  0
  2 22  1  0
  3 23  1  0
  3 24  1  0
  3 25  1  0
  4 26  1  0
  5 27  1  0
  5 28  1  0
  6 29  1  0
  6 30  1  0
  7 31  1  0
 10 32  1  0
 11 33  1  0
 11 34  1  0
 12 35  1  0
 12 36  1  0
 13 37  1  0
 13 38  1  0
 15 39  1  0
 15 40  1  0
 15 41  1  0
 16 42  1  0
 16 43  1  0
 16 44  1  0
 17 45  1  0
 17 46  1  0
 18 47  1  0
 18 48  1  0
M  CHG  1   3   1
M  END
>  <EmbedRMS>  (58) 
0.1809547169271366

$$$$

     RDKit          3D

 42 43  0  0  0  0  0  0  0  0999 V2000
   13.9171    7.3347    1.0272 C   0  0  0  0  0  0  0  0  0  0  0  0
   13.6993    7.9162    2.4326 C   0  0  0  0  0  0  0  0  0  0  0  0
   14.6410    9.0156    2.6743 N   0  0  0  0  0  4  0  0  0  0  0  0
   12.2229    8.3036    2.8083 C   0  0  0  0  0  0  0  0  0  0  0  0
   11.1305    7.3175    2.3590 C   0  0  0  0  0  0  0  0  0  0  0  0
    9.7737    7.9446    2.0853 C   0  0  0  0  0  0  0  0  0  0  0  0
    9.3704    9.0157    3.1059 C   0  0  0  0  0  0  0  0  0  0  0  0
    7.9788    9.5384    2.7584 C   0  0  0  0  0  0  0  0  0  0  0  0
    7.6122    9.5956    1.5600 O   0  0  0  0  0  0  0  0  0  0  0  0
    7.1269   10.1459    3.7189 N   0  0  0  0  0  0  0  0  0  0  0  0
    6.0176    9.4386    4.2739 C   0  0  0  0  0  0  0  0  0  0  0  0
    5.0748   10.1024    5.1994 C   0  0  0  0  0  0  0  0  0  0  0  0
    4.0430    9.2397    4.7572 O   0  0  0  0  0  0  0  0  0  0  0  0
    4.7944    8.8280    3.6355 C   0  0  0  0  0  0  0  0  0  0  0  0
    4.1092    9.3886    2.3922 C   0  0  0  0  0  0  0  0  0  0  0  0
   10.3798   10.1770    3.0898 C   0  0  0  0  0  0  0  0  0  0  0  0
   11.8723    9.7927    2.9809 C   0  0  0  0  0  0  0  0  0  0  0  0
   13.5195    6.3007    0.9574 H   0  0  0  0  0  0  0  0  0  0  0  0
   15.0005    7.2763    0.7889 H   0  0  0  0  0  0  0  0  0  0  0  0
   13.4231    7.9782    0.2687 H   0  0  0  0  0  0  0  0  0  0  0  0
   13.9966    7.0850    3.1166 H   0  0  0  0  0  0  0  0  0  0  0  0
   14.4933    9.7912    1.9891 H   0  0  0  0  0  0  0  0  0  0  0  0
   15.6234    8.6702    2.5730 H   0  0  0  0  0  0  0  0  0  0  0  0
   14.5422    9.3723    3.6519 H   0  0  0  0  0  0  0  0  0  0  0  0
   12.2391    8.0542    3.8975 H   0  0  0  0  0  0  0  0  0  0  0  0
   11.0003    6.5107    3.1176 H   0  0  0  0  0  0  0  0  0  0  0  0
   11.4170    6.7986    1.4253 H   0  0  0  0  0  0  0  0  0  0  0  0
    9.8075    8.3992    1.0689 H   0  0  0  0  0  0  0  0  0  0  0  0
    9.0061    7.1389    2.0649 H   0  0  0  0  0  0  0  0  0  0  0  0
    9.3458    8.5593    4.1201 H   0  0  0  0  0  0  0  0  0  0  0  0
    7.5209   10.9361    4.2772 H   0  0  0  0  0  0  0  0  0  0  0  0
    6.4821    8.6091    4.8599 H   0  0  0  0  0  0  0  0  0  0  0  0
    4.8618   11.1611    4.9280 H   0  0  0  0  0  0  0  0  0  0  0  0
    5.3122    9.9440    6.2743 H   0  0  0  0  0  0  0  0  0  0  0  0
    4.8523    7.7171    3.5896 H   0  0  0  0  0  0  0  0  0  0  0  0
    4.0061   10.4922    2.4659 H   0  0  0  0  0  0  0  0  0  0  0  0
    4.7180    9.1467    1.4965 H   0  0  0  0  0  0  0  0  0  0  0  0
    3.1027    8.9338    2.2765 H   0  0  0  0  0  0  0  0  0  0  0  0
   10.1389   10.8508    2.2357 H   0  0  0  0  0  0  0  0  0  0  0  0
   10.2278   10.7835    4.0099 H   0  0  0  0  0  0  0  0  0  0  0  0
   12.2713   10.3233    2.0899 H   0  0  0  0  0  0  0  0  0  0  0  0
   12.4103   10.2247    3.8554 H   0  0  0  0  0  0  0  0  0  0  0  0
  1  2  1  0
  2  3  1  0
  2  4  1  0
  4  5  1  0
  5  6  1  0
  6  7  1  0
  7  8  1  0
  8  9  2  0
  8 10  1  0
 10 11  1  0
 11 12  1  0
 12 13  1  0
 13 14  1  0
 14 15  1  0
  7 16  1  0
 16 17  1  0
 17  4  1  0
 14 11  1  0
  1 18  1  0
  1 19  1  0
  1 20  1  0
  2 21  1  0
  3 22  1  0
  3 23  1  0
  3 24  1  0
  4 25  1  0
  5 26  1  0
  5 27  1  0
  6 28  1  0
  6 29  1  0
  7 30  1  0
 10 31  1  0
 11 32  1  0
 12 33  1  0
 12 34  1  0
 14 35  1  0
 15 36  1  0
 15 37  1  0
 15 38  1  0
 16 39  1  0
 16 40  1  0
 17 41  1  0
 17 42  1  0
M  CHG  1   3   1
M  END
>  <EmbedRMS>  (59) 
0.3235717638598405

$$$$

     RDKit          3D

 39 39  0  0  0  0  0  0  0  0999 V2000
   14.0279    7.0398    1.2343 C   0  0  0  0  0  0  0  0  0  0  0  0
   13.6691    8.3365    1.9397 C   0  0  0  0  0  0  0  0  0  0  0  0
   14.6132    8.7687    2.9623 N   0  0  0  0  0  4  0  0  0  0  0  0
   12.1576    8.5899    2.2120 C   0  0  0  0  0  0  0  0  0  0  0  0
   11.2403    7.3773    2.4521 C   0  0  0  0  0  0  0  0  0  0  0  0
    9.7882    7.8244    2.2120 C   0  0  0  0  0  0  0  0  0  0  0  0
    9.4110    8.9839    3.1528 C   0  0  0  0  0  0  0  0  0  0  0  0
    8.0130    9.4644    2.8776 C   0  0  0  0  0  0  0  0  0  0  0  0
    7.6231    9.6752    1.6942 O   0  0  0  0  0  0  0  0  0  0  0  0
    7.1378    9.7062    3.9804 N   0  0  0  0  0  0  0  0  0  0  0  0
    5.7556   10.1301    3.7908 C   0  0  0  0  0  0  0  0  0  0  0  0
    5.0620   10.3118    5.1402 C   0  0  0  0  0  0  0  0  0  0  0  0
    5.6764   11.4079    5.8833 N   0  0  0  0  0  0  0  0  0  0  0  0
   10.4058   10.1587    3.0875 C   0  0  0  0  0  0  0  0  0  0  0  0
   11.8554    9.6809    3.2543 C   0  0  0  0  0  0  0  0  0  0  0  0
   13.9076    6.1867    1.9346 H   0  0  0  0  0  0  0  0  0  0  0  0
   13.3769    6.8823    0.3473 H   0  0  0  0  0  0  0  0  0  0  0  0
   15.0830    7.0604    0.8857 H   0  0  0  0  0  0  0  0  0  0  0  0
   13.8829    9.0582    1.1115 H   0  0  0  0  0  0  0  0  0  0  0  0
   14.5959    9.8060    3.0882 H   0  0  0  0  0  0  0  0  0  0  0  0
   14.3777    8.3021    3.8676 H   0  0  0  0  0  0  0  0  0  0  0  0
   15.5895    8.5025    2.6972 H   0  0  0  0  0  0  0  0  0  0  0  0
   11.8024    9.0089    1.2374 H   0  0  0  0  0  0  0  0  0  0  0  0
   11.4628    6.5569    1.7395 H   0  0  0  0  0  0  0  0  0  0  0  0
   11.3695    6.9868    3.4853 H   0  0  0  0  0  0  0  0  0  0  0  0
    9.1127    6.9617    2.4025 H   0  0  0  0  0  0  0  0  0  0  0  0
    9.6583    8.1236    1.1478 H   0  0  0  0  0  0  0  0  0  0  0  0
    9.4462    8.5786    4.1892 H   0  0  0  0  0  0  0  0  0  0  0  0
    7.5068    9.5681    4.9493 H   0  0  0  0  0  0  0  0  0  0  0  0
    5.7299   11.0850    3.2219 H   0  0  0  0  0  0  0  0  0  0  0  0
    5.2125    9.3559    3.2070 H   0  0  0  0  0  0  0  0  0  0  0  0
    3.9835   10.5293    4.9729 H   0  0  0  0  0  0  0  0  0  0  0  0
    5.1375    9.3708    5.7286 H   0  0  0  0  0  0  0  0  0  0  0  0
    5.4346   12.3055    5.4034 H   0  0  0  0  0  0  0  0  0  0  0  0
    5.2252   11.4448    6.8258 H   0  0  0  0  0  0  0  0  0  0  0  0
   10.1714   10.8885    3.8932 H   0  0  0  0  0  0  0  0  0  0  0  0
   10.3026   10.6868    2.1130 H   0  0  0  0  0  0  0  0  0  0  0  0
   12.5083   10.5644    3.0948 H   0  0  0  0  0  0  0  0  0  0  0  0
   12.0204    9.2950    4.2841 H   0  0  0  0  0  0  0  0  0  0  0  0
  1  2  1  0
  2  3  1  0
  2  4  1  0
  4  5  1  0
  5  6  1  0
  6  7  1  0
  7  8  1  0
  8  9  2  0
  8 10  1  0
 10 11  1  0
 11 12  1  0
 12 13  1  0
  7 14  1  0
 14 15  1  0
 15  4  1  0
  1 16  1  0
  1 17  1  0
  1 18  1  0
  2 19  1  0
  3 20  1  0
  3 21  1  0
  3 22  1  0
  4 23  1  0
  5 24  1  0
  5 25  1  0
  6 26  1  0
  6 27  1  0
  7 28  1  0
 10 29  1  0
 11 30  1  0
 11 31  1  0
 12 32  1  0
 12 33  1  0
 13 34  1  0
 13 35  1  0
 14 36  1  0
 14 37  1  0
 15 38  1  0
 15 39  1  0
M  CHG  1   3   1
M  END
>  <EmbedRMS>  (60) 
0.19998376465474313

$$$$

     RDKit          3D

 38 38  0  0  0  0  0  0  0  0999 V2000
   14.0484    7.2192    1.1054 C   0  0  0  0  0  0  0  0  0  0  0  0
   13.6490    7.9555    2.3993 C   0  0  0  0  0  0  0  0  0  0  0  0
   14.6284    9.0155    2.6717 N   0  0  0  0  0  4  0  0  0  0  0  0
   12.1996    8.5122    2.2735 C   0  0  0  0  0  0  0  0  0  0  0  0
   11.1791    7.3663    2.4342 C   0  0  0  0  0  0  0  0  0  0  0  0
    9.7706    7.8728    2.1537 C   0  0  0  0  0  0  0  0  0  0  0  0
    9.4074    8.9953    3.1309 C   0  0  0  0  0  0  0  0  0  0  0  0
    8.0092    9.4827    2.8723 C   0  0  0  0  0  0  0  0  0  0  0  0
    7.6145    9.6924    1.6909 O   0  0  0  0  0  0  0  0  0  0  0  0
    7.1393    9.7074    3.9883 N   0  0  0  0  0  0  0  0  0  0  0  0
    5.7804   10.1377    3.8888 C   0  0  0  0  0  0  0  0  0  0  0  0
    5.2520   10.3697    2.7675 O   0  0  0  0  0  0  0  0  0  0  0  0
    5.0456   10.3050    5.0607 O   0  0  0  0  0  0  0  0  0  0  0  0
    3.7343   10.7274    5.0346 N   0  0  0  0  0  0  0  0  0  0  0  0
    3.2951   10.7692    6.3684 N   0  0  0  0  0  0  0  0  0  0  0  0
   10.4228   10.1492    3.0651 C   0  0  0  0  0  0  0  0  0  0  0  0
   11.8575    9.6377    3.2813 C   0  0  0  0  0  0  0  0  0  0  0  0
   13.4173    6.3267    0.9276 H   0  0  0  0  0  0  0  0  0  0  0  0
   15.0957    6.8572    1.1818 H   0  0  0  0  0  0  0  0  0  0  0  0
   13.9785    7.8971    0.2279 H   0  0  0  0  0  0  0  0  0  0  0  0
   13.6901    7.2249    3.2395 H   0  0  0  0  0  0  0  0  0  0  0  0
   14.4955    9.3933    3.6373 H   0  0  0  0  0  0  0  0  0  0  0  0
   15.5998    8.6295    2.6312 H   0  0  0  0  0  0  0  0  0  0  0  0
   14.5432    9.7861    1.9690 H   0  0  0  0  0  0  0  0  0  0  0  0
   12.0882    8.9478    1.2536 H   0  0  0  0  0  0  0  0  0  0  0  0
   11.2320    6.9399    3.4609 H   0  0  0  0  0  0  0  0  0  0  0  0
   11.3812    6.5454    1.7179 H   0  0  0  0  0  0  0  0  0  0  0  0
    9.0548    7.0296    2.2722 H   0  0  0  0  0  0  0  0  0  0  0  0
    9.7095    8.2321    1.1018 H   0  0  0  0  0  0  0  0  0  0  0  0
    9.4452    8.5670    4.1582 H   0  0  0  0  0  0  0  0  0  0  0  0
    7.5137    9.5503    4.9511 H   0  0  0  0  0  0  0  0  0  0  0  0
    3.7219   11.7052    4.6557 H   0  0  0  0  0  0  0  0  0  0  0  0
    2.2694   10.9701    6.3496 H   0  0  0  0  0  0  0  0  0  0  0  0
    3.7588   11.5771    6.8478 H   0  0  0  0  0  0  0  0  0  0  0  0
   10.1840   10.9007    3.8491 H   0  0  0  0  0  0  0  0  0  0  0  0
   10.3582   10.6535    2.0751 H   0  0  0  0  0  0  0  0  0  0  0  0
   11.9718    9.2651    4.3232 H   0  0  0  0  0  0  0  0  0  0  0  0
   12.5371   10.5046    3.1425 H   0  0  0  0  0  0  0  0  0  0  0  0
  1  2  1  0
  2  3  1  0
  2  4  1  0
  4  5  1  0
  5  6  1  0
  6  7  1  0
  7  8  1  0
  8  9  2  0
  8 10  1  0
 10 11  1  0
 11 12  2  0
 11 13  1  0
 13 14  1  0
 14 15  1  0
  7 16  1  0
 16 17  1  0
 17  4  1  0
  1 18  1  0
  1 19  1  0
  1 20  1  0
  2 21  1  0
  3 22  1  0
  3 23  1  0
  3 24  1  0
  4 25  1  0
  5 26  1  0
  5 27  1  0
  6 28  1  0
  6 29  1  0
  7 30  1  0
 10 31  1  0
 14 32  1  0
 15 33  1  0
 15 34  1  0
 16 35  1  0
 16 36  1  0
 17 37  1  0
 17 38  1  0
M  CHG  1   3   1
M  END
>  <EmbedRMS>  (61) 
0.029047894984658724

$$$$

     RDKit          3D

 45 46  0  0  0  0  0  0  0  0999 V2000
   14.0491    7.2185    1.1042 C   0  0  0  0  0  0  0  0  0  0  0  0
   13.6510    7.9543    2.3988 C   0  0  0  0  0  0  0  0  0  0  0  0
   14.6308    9.0140    2.6709 N   0  0  0  0  0  4  0  0  0  0  0  0
   12.2021    8.5112    2.2742 C   0  0  0  0  0  0  0  0  0  0  0  0
   11.1811    7.3656    2.4357 C   0  0  0  0  0  0  0  0  0  0  0  0
    9.7729    7.8734    2.1591 C   0  0  0  0  0  0  0  0  0  0  0  0
    9.4153    8.9972    3.1374 C   0  0  0  0  0  0  0  0  0  0  0  0
    8.0280    9.4946    2.8698 C   0  0  0  0  0  0  0  0  0  0  0  0
    7.6580    9.7404    1.6875 O   0  0  0  0  0  0  0  0  0  0  0  0
    7.1403    9.7095    3.9705 N   0  0  0  0  0  0  0  0  0  0  0  0
    5.7458   10.0898    3.7989 C   0  0  0  0  0  0  0  0  0  0  0  0
    4.8517    8.8407    3.7584 C   0  0  0  0  0  0  0  0  0  0  0  0
    3.3907    9.2166    3.8944 C   0  0  0  0  0  0  0  0  0  0  0  0
    2.7656    8.7558    2.5912 C   0  0  0  0  0  0  0  0  0  0  0  0
    3.7916    8.5397    1.6577 O   0  0  0  0  0  0  0  0  0  0  0  0
    4.8957    8.1199    2.4129 C   0  0  0  0  0  0  0  0  0  0  0  0
   10.4310   10.1493    3.0691 C   0  0  0  0  0  0  0  0  0  0  0  0
   11.8635    9.6361    3.2834 C   0  0  0  0  0  0  0  0  0  0  0  0
   13.4170    6.3267    0.9261 H   0  0  0  0  0  0  0  0  0  0  0  0
   13.9793    7.8971    0.2273 H   0  0  0  0  0  0  0  0  0  0  0  0
   15.0960    6.8555    1.1799 H   0  0  0  0  0  0  0  0  0  0  0  0
   13.6926    7.2232    3.2385 H   0  0  0  0  0  0  0  0  0  0  0  0
   15.6022    8.6280    2.6281 H   0  0  0  0  0  0  0  0  0  0  0  0
   14.5000    9.3903    3.6373 H   0  0  0  0  0  0  0  0  0  0  0  0
   14.5446    9.7855    1.9693 H   0  0  0  0  0  0  0  0  0  0  0  0
   12.0897    8.9474    1.2547 H   0  0  0  0  0  0  0  0  0  0  0  0
   11.3811    6.5454    1.7181 H   0  0  0  0  0  0  0  0  0  0  0  0
   11.2357    6.9382    3.4619 H   0  0  0  0  0  0  0  0  0  0  0  0
    9.0555    7.0318    2.2804 H   0  0  0  0  0  0  0  0  0  0  0  0
    9.7098    8.2316    1.1070 H   0  0  0  0  0  0  0  0  0  0  0  0
    9.4467    8.5712    4.1658 H   0  0  0  0  0  0  0  0  0  0  0  0
    7.4770    9.5230    4.9422 H   0  0  0  0  0  0  0  0  0  0  0  0
    5.6117   10.7087    2.8842 H   0  0  0  0  0  0  0  0  0  0  0  0
    5.4577   10.7220    4.6676 H   0  0  0  0  0  0  0  0  0  0  0  0
    5.1449    8.1459    4.5780 H   0  0  0  0  0  0  0  0  0  0  0  0
    3.2321   10.3111    4.0225 H   0  0  0  0  0  0  0  0  0  0  0  0
    2.9237    8.6886    4.7549 H   0  0  0  0  0  0  0  0  0  0  0  0
    2.0659    9.5257    2.2017 H   0  0  0  0  0  0  0  0  0  0  0  0
    2.1992    7.8097    2.7435 H   0  0  0  0  0  0  0  0  0  0  0  0
    4.8208    7.0212    2.5781 H   0  0  0  0  0  0  0  0  0  0  0  0
    5.8182    8.2870    1.8384 H   0  0  0  0  0  0  0  0  0  0  0  0
   10.1948   10.9017    3.8533 H   0  0  0  0  0  0  0  0  0  0  0  0
   10.3670   10.6536    2.0790 H   0  0  0  0  0  0  0  0  0  0  0  0
   12.5438   10.5024    3.1445 H   0  0  0  0  0  0  0  0  0  0  0  0
   11.9784    9.2625    4.3249 H   0  0  0  0  0  0  0  0  0  0  0  0
  1  2  1  0
  2  3  1  0
  2  4  1  0
  4  5  1  0
  5  6  1  0
  6  7  1  0
  7  8  1  0
  8  9  2  0
  8 10  1  0
 10 11  1  0
 11 12  1  0
 12 13  1  0
 13 14  1  0
 14 15  1  0
 15 16  1  0
  7 17  1  0
 17 18  1  0
 18  4  1  0
 16 12  1  0
  1 19  1  0
  1 20  1  0
  1 21  1  0
  2 22  1  0
  3 23  1  0
  3 24  1  0
  3 25  1  0
  4 26  1  0
  5 27  1  0
  5 28  1  0
  6 29  1  0
  6 30  1  0
  7 31  1  0
 10 32  1  0
 11 33  1  0
 11 34  1  0
 12 35  1  0
 13 36  1  0
 13 37  1  0
 14 38  1  0
 14 39  1  0
 16 40  1  0
 16 41  1  0
 17 42  1  0
 17 43  1  0
 18 44  1  0
 18 45  1  0
M  CHG  1   3   1
M  END
>  <EmbedRMS>  (62) 
0.04148526611260124

$$$$

     RDKit          3D

 42 42  0  0  0  0  0  0  0  0999 V2000
   14.0110    7.0505    1.2528 C   0  0  0  0  0  0  0  0  0  0  0  0
   13.6005    8.3243    1.9898 C   0  0  0  0  0  0  0  0  0  0  0  0
   14.7026    8.8916    2.7694 N   0  0  0  0  0  4  0  0  0  0  0  0
   12.2613    8.3272    2.7674 C   0  0  0  0  0  0  0  0  0  0  0  0
   11.1790    7.4403    2.1348 C   0  0  0  0  0  0  0  0  0  0  0  0
    9.7443    7.7263    2.5463 C   0  0  0  0  0  0  0  0  0  0  0  0
    9.4492    9.2018    2.6421 C   0  0  0  0  0  0  0  0  0  0  0  0
    7.9874    9.5271    2.7285 C   0  0  0  0  0  0  0  0  0  0  0  0
    7.4181    9.6849    1.6206 O   0  0  0  0  0  0  0  0  0  0  0  0
    7.2187    9.6821    3.9349 N   0  0  0  0  0  0  0  0  0  0  0  0
    5.8189   10.1170    3.8146 C   0  0  0  0  0  0  0  0  0  0  0  0
    5.1334   10.2659    5.1694 C   0  0  0  0  0  0  0  0  0  0  0  0
    3.7505   10.7132    4.9895 N   0  0  0  0  0  0  0  0  0  0  0  0
    2.8774   10.9284    6.1003 C   0  0  0  0  0  0  0  0  0  0  0  0
    3.2808   10.7322    7.2779 O   0  0  0  0  0  0  0  0  0  0  0  0
    1.5730   11.3572    5.8773 O   0  0  0  0  0  0  0  0  0  0  0  0
   10.3860   10.0198    3.4861 C   0  0  0  0  0  0  0  0  0  0  0  0
   11.8495    9.7807    3.1220 C   0  0  0  0  0  0  0  0  0  0  0  0
   14.9821    7.1931    0.7324 H   0  0  0  0  0  0  0  0  0  0  0  0
   14.1177    6.2179    1.9794 H   0  0  0  0  0  0  0  0  0  0  0  0
   13.2664    6.7640    0.4820 H   0  0  0  0  0  0  0  0  0  0  0  0
   13.4362    9.0285    1.1410 H   0  0  0  0  0  0  0  0  0  0  0  0
   14.5208    9.8924    3.0067 H   0  0  0  0  0  0  0  0  0  0  0  0
   15.5921    8.8662    2.2197 H   0  0  0  0  0  0  0  0  0  0  0  0
   14.8377    8.3419    3.6487 H   0  0  0  0  0  0  0  0  0  0  0  0
   12.4686    7.8402    3.7470 H   0  0  0  0  0  0  0  0  0  0  0  0
   11.2118    7.5937    1.0339 H   0  0  0  0  0  0  0  0  0  0  0  0
   11.4059    6.3674    2.3223 H   0  0  0  0  0  0  0  0  0  0  0  0
    9.5622    7.2690    3.5434 H   0  0  0  0  0  0  0  0  0  0  0  0
    9.0533    7.2374    1.8231 H   0  0  0  0  0  0  0  0  0  0  0  0
    9.7207    9.5612    1.6183 H   0  0  0  0  0  0  0  0  0  0  0  0
    7.6622    9.5169    4.8664 H   0  0  0  0  0  0  0  0  0  0  0  0
    5.2573    9.3711    3.2099 H   0  0  0  0  0  0  0  0  0  0  0  0
    5.7871   11.0961    3.2875 H   0  0  0  0  0  0  0  0  0  0  0  0
    5.1403    9.2868    5.6958 H   0  0  0  0  0  0  0  0  0  0  0  0
    5.6855   11.0108    5.7825 H   0  0  0  0  0  0  0  0  0  0  0  0
    3.3717   10.8850    4.0301 H   0  0  0  0  0  0  0  0  0  0  0  0
    0.9386   11.5153    6.6511 H   0  0  0  0  0  0  0  0  0  0  0  0
   10.1484   11.1029    3.3903 H   0  0  0  0  0  0  0  0  0  0  0  0
   10.2339    9.7352    4.5500 H   0  0  0  0  0  0  0  0  0  0  0  0
   12.4719   10.1526    3.9648 H   0  0  0  0  0  0  0  0  0  0  0  0
   12.0636   10.4402    2.2521 H   0  0  0  0  0  0  0  0  0  0  0  0
  1  2  1  0
  2  3  1  0
  2  4  1  0
  4  5  1  0
  5  6  1  0
  6  7  1  0
  7  8  1  0
  8  9  2  0
  8 10  1  0
 10 11  1  0
 11 12  1  0
 12 13  1  0
 13 14  1  0
 14 15  2  0
 14 16  1  0
  7 17  1  0
 17 18  1  0
 18  4  1  0
  1 19  1  0
  1 20  1  0
  1 21  1  0
  2 22  1  0
  3 23  1  0
  3 24  1  0
  3 25  1  0
  4 26  1  0
  5 27  1  0
  5 28  1  0
  6 29  1  0
  6 30  1  0
  7 31  1  0
 10 32  1  0
 11 33  1  0
 11 34  1  0
 12 35  1  0
 12 36  1  0
 13 37  1  0
 16 38  1  0
 17 39  1  0
 17 40  1  0
 18 41  1  0
 18 42  1  0
M  CHG  1   3   1
M  END
>  <EmbedRMS>  (63) 
0.2924325341636962

$$$$

     RDKit          3D

 44 44  0  0  0  0  0  0  0  0999 V2000
   13.9344    7.3325    1.0251 C   0  0  0  0  0  0  0  0  0  0  0  0
   13.7124    7.9143    2.4293 C   0  0  0  0  0  0  0  0  0  0  0  0
   14.6504    9.0161    2.6726 N   0  0  0  0  0  4  0  0  0  0  0  0
   12.2357    8.2978    2.7953 C   0  0  0  0  0  0  0  0  0  0  0  0
   11.1506    7.3136    2.3192 C   0  0  0  0  0  0  0  0  0  0  0  0
    9.7889    7.9336    2.0719 C   0  0  0  0  0  0  0  0  0  0  0  0
    9.4291    8.9809    3.1175 C   0  0  0  0  0  0  0  0  0  0  0  0
    8.0244    9.4610    2.8767 C   0  0  0  0  0  0  0  0  0  0  0  0
    7.6190    9.6840    1.6996 O   0  0  0  0  0  0  0  0  0  0  0  0
    7.1616    9.6889    3.9915 N   0  0  0  0  0  0  0  0  0  0  0  0
    5.7855   10.1247    3.8210 C   0  0  0  0  0  0  0  0  0  0  0  0
    4.7423    8.9630    3.8122 C   0  0  0  0  0  0  0  0  0  0  0  0
    4.1166    8.8214    5.1831 C   0  0  0  0  0  0  0  0  0  0  0  0
    4.2843    8.6567    2.4010 C   0  0  0  0  0  0  0  0  0  0  0  0
    5.0987    7.7653    3.9177 O   0  0  0  0  0  0  0  0  0  0  0  0
   10.3977   10.1666    3.0612 C   0  0  0  0  0  0  0  0  0  0  0  0
   11.8890    9.7883    2.9936 C   0  0  0  0  0  0  0  0  0  0  0  0
   13.5401    6.2970    0.9555 H   0  0  0  0  0  0  0  0  0  0  0  0
   15.0186    7.2763    0.7900 H   0  0  0  0  0  0  0  0  0  0  0  0
   13.4422    7.9745    0.2641 H   0  0  0  0  0  0  0  0  0  0  0  0
   14.0100    7.0843    3.1149 H   0  0  0  0  0  0  0  0  0  0  0  0
   14.5109    9.7861    1.9796 H   0  0  0  0  0  0  0  0  0  0  0  0
   15.6337    8.6698    2.5833 H   0  0  0  0  0  0  0  0  0  0  0  0
   14.5428    9.3801    3.6466 H   0  0  0  0  0  0  0  0  0  0  0  0
   12.2392    8.0286    3.8800 H   0  0  0  0  0  0  0  0  0  0  0  0
   11.0353    6.4797    3.0507 H   0  0  0  0  0  0  0  0  0  0  0  0
   11.4346    6.8309    1.3657 H   0  0  0  0  0  0  0  0  0  0  0  0
    9.7931    8.4028    1.0615 H   0  0  0  0  0  0  0  0  0  0  0  0
    9.0236    7.1252    2.0640 H   0  0  0  0  0  0  0  0  0  0  0  0
    9.4921    8.5093    4.1239 H   0  0  0  0  0  0  0  0  0  0  0  0
    7.5013    9.4861    4.9588 H   0  0  0  0  0  0  0  0  0  0  0  0
    5.5537   10.8434    4.6375 H   0  0  0  0  0  0  0  0  0  0  0  0
    5.6953   10.7432    2.9009 H   0  0  0  0  0  0  0  0  0  0  0  0
    4.8622    8.6933    6.0088 H   0  0  0  0  0  0  0  0  0  0  0  0
    3.3169    8.0378    5.2516 H   0  0  0  0  0  0  0  0  0  0  0  0
    3.5776    9.7669    5.4063 H   0  0  0  0  0  0  0  0  0  0  0  0
    3.4915    7.8674    2.3375 H   0  0  0  0  0  0  0  0  0  0  0  0
    5.1205    8.4243    1.6954 H   0  0  0  0  0  0  0  0  0  0  0  0
    3.7922    9.5686    2.0007 H   0  0  0  0  0  0  0  0  0  0  0  0
    6.0784    7.6314    3.8034 H   0  0  0  0  0  0  0  0  0  0  0  0
   10.1562   10.7885    2.1686 H   0  0  0  0  0  0  0  0  0  0  0  0
   10.2230   10.8125    3.9502 H   0  0  0  0  0  0  0  0  0  0  0  0
   12.3172   10.3454    2.1334 H   0  0  0  0  0  0  0  0  0  0  0  0
   12.3955   10.1922    3.9001 H   0  0  0  0  0  0  0  0  0  0  0  0
  1  2  1  0
  2  3  1  0
  2  4  1  0
  4  5  1  0
  5  6  1  0
  6  7  1  0
  7  8  1  0
  8  9  2  0
  8 10  1  0
 10 11  1  0
 11 12  1  0
 12 13  1  0
 12 14  1  0
 12 15  1  0
  7 16  1  0
 16 17  1  0
 17  4  1  0
  1 18  1  0
  1 19  1  0
  1 20  1  0
  2 21  1  0
  3 22  1  0
  3 23  1  0
  3 24  1  0
  4 25  1  0
  5 26  1  0
  5 27  1  0
  6 28  1  0
  6 29  1  0
  7 30  1  0
 10 31  1  0
 11 32  1  0
 11 33  1  0
 13 34  1  0
 13 35  1  0
 13 36  1  0
 14 37  1  0
 14 38  1  0
 14 39  1  0
 15 40  1  0
 16 41  1  0
 16 42  1  0
 17 43  1  0
 17 44  1  0
M  CHG  1   3   1
M  END
>  <EmbedRMS>  (64) 
0.6861464654853324

$$$$

     RDKit          3D

 46 46  0  0  0  0  0  0  0  0999 V2000
   14.0126    7.0514    1.2527 C   0  0  0  0  0  0  0  0  0  0  0  0
   13.6015    8.3251    1.9898 C   0  0  0  0  0  0  0  0  0  0  0  0
   14.7030    8.8922    2.7702 N   0  0  0  0  0  4  0  0  0  0  0  0
   12.2621    8.3275    2.7669 C   0  0  0  0  0  0  0  0  0  0  0  0
   11.1826    7.4383    2.1338 C   0  0  0  0  0  0  0  0  0  0  0  0
    9.7484    7.7213    2.5445 C   0  0  0  0  0  0  0  0  0  0  0  0
    9.4500    9.1954    2.6334 C   0  0  0  0  0  0  0  0  0  0  0  0
    7.9874    9.5077    2.7205 C   0  0  0  0  0  0  0  0  0  0  0  0
    7.4117    9.6529    1.6149 O   0  0  0  0  0  0  0  0  0  0  0  0
    7.2330    9.6829    3.9322 N   0  0  0  0  0  0  0  0  0  0  0  0
    5.8508   10.1849    3.8857 C   0  0  0  0  0  0  0  0  0  0  0  0
    5.8163   11.7168    3.9014 C   0  0  0  0  0  0  0  0  0  0  0  0
    6.4053   12.2838    2.6818 N   0  0  0  0  0  0  0  0  0  0  0  0
    6.4054   13.7433    2.7801 C   0  0  0  0  0  0  0  0  0  0  0  0
    7.0451   14.3513    1.5371 C   0  0  0  0  0  0  0  0  0  0  0  0
    7.0977   15.7439    1.6676 O   0  0  0  0  0  0  0  0  0  0  0  0
   10.3824   10.0186    3.4790 C   0  0  0  0  0  0  0  0  0  0  0  0
   11.8478    9.7809    3.1203 C   0  0  0  0  0  0  0  0  0  0  0  0
   14.9849    7.1937    0.7346 H   0  0  0  0  0  0  0  0  0  0  0  0
   13.2696    6.7660    0.4800 H   0  0  0  0  0  0  0  0  0  0  0  0
   14.1172    6.2181    1.9790 H   0  0  0  0  0  0  0  0  0  0  0  0
   13.4376    9.0295    1.1412 H   0  0  0  0  0  0  0  0  0  0  0  0
   14.5194    9.8921    3.0104 H   0  0  0  0  0  0  0  0  0  0  0  0
   15.5921    8.8699    2.2198 H   0  0  0  0  0  0  0  0  0  0  0  0
   14.8396    8.3405    3.6480 H   0  0  0  0  0  0  0  0  0  0  0  0
   12.4694    7.8415    3.7470 H   0  0  0  0  0  0  0  0  0  0  0  0
   11.2154    7.5914    1.0329 H   0  0  0  0  0  0  0  0  0  0  0  0
   11.4114    6.3659    2.3219 H   0  0  0  0  0  0  0  0  0  0  0  0
    9.5682    7.2678    3.5437 H   0  0  0  0  0  0  0  0  0  0  0  0
    9.0590    7.2269    1.8235 H   0  0  0  0  0  0  0  0  0  0  0  0
    9.7192    9.5545    1.6090 H   0  0  0  0  0  0  0  0  0  0  0  0
    7.6952    9.5306    4.8562 H   0  0  0  0  0  0  0  0  0  0  0  0
    5.3144    9.7935    2.9941 H   0  0  0  0  0  0  0  0  0  0  0  0
    5.3086    9.8120    4.7812 H   0  0  0  0  0  0  0  0  0  0  0  0
    6.3602   12.0737    4.8062 H   0  0  0  0  0  0  0  0  0  0  0  0
    4.7536   12.0361    3.9839 H   0  0  0  0  0  0  0  0  0  0  0  0
    7.4139   12.0108    2.6648 H   0  0  0  0  0  0  0  0  0  0  0  0
    6.9771   14.0744    3.6780 H   0  0  0  0  0  0  0  0  0  0  0  0
    5.3609   14.1189    2.8618 H   0  0  0  0  0  0  0  0  0  0  0  0
    8.0691   13.9400    1.3816 H   0  0  0  0  0  0  0  0  0  0  0  0
    6.4327   14.0976    0.6457 H   0  0  0  0  0  0  0  0  0  0  0  0
    7.8655   15.9465    2.2639 H   0  0  0  0  0  0  0  0  0  0  0  0
   10.1420   11.1009    3.3787 H   0  0  0  0  0  0  0  0  0  0  0  0
   10.2279    9.7372    4.5433 H   0  0  0  0  0  0  0  0  0  0  0  0
   12.0642   10.4407    2.2512 H   0  0  0  0  0  0  0  0  0  0  0  0
   12.4671   10.1534    3.9652 H   0  0  0  0  0  0  0  0  0  0  0  0
  1  2  1  0
  2  3  1  0
  2  4  1  0
  4  5  1  0
  5  6  1  0
  6  7  1  0
  7  8  1  0
  8  9  2  0
  8 10  1  0
 10 11  1  0
 11 12  1  0
 12 13  1  0
 13 14  1  0
 14 15  1  0
 15 16  1  0
  7 17  1  0
 17 18  1  0
 18  4  1  0
  1 19  1  0
  1 20  1  0
  1 21  1  0
  2 22  1  0
  3 23  1  0
  3 24  1  0
  3 25  1  0
  4 26  1  0
  5 27  1  0
  5 28  1  0
  6 29  1  0
  6 30  1  0
  7 31  1  0
 10 32  1  0
 11 33  1  0
 11 34  1  0
 12 35  1  0
 12 36  1  0
 13 37  1  0
 14 38  1  0
 14 39  1  0
 15 40  1  0
 15 41  1  0
 16 42  1  0
 17 43  1  0
 17 44  1  0
 18 45  1  0
 18 46  1  0
M  CHG  1   3   1
M  END
>  <EmbedRMS>  (65) 
0.29448169156509657

$$$$

     RDKit          3D

 37 37  0  0  0  0  0  0  0  0999 V2000
    4.9010    8.9493    3.3214 C   0  0  0  0  0  0  0  0  0  0  0  0
    5.7477   10.1185    3.8091 C   0  0  0  0  0  0  0  0  0  0  0  0
    7.1378    9.7075    3.9757 N   0  0  0  0  0  0  0  0  0  0  0  0
    8.0091    9.4709    2.8632 C   0  0  0  0  0  0  0  0  0  0  0  0
    7.6090    9.6877    1.6849 O   0  0  0  0  0  0  0  0  0  0  0  0
    9.4140    8.9898    3.1084 C   0  0  0  0  0  0  0  0  0  0  0  0
    9.7981    7.9225    2.0853 C   0  0  0  0  0  0  0  0  0  0  0  0
   11.1578    7.3127    2.3960 C   0  0  0  0  0  0  0  0  0  0  0  0
   12.2752    8.3218    2.7734 C   0  0  0  0  0  0  0  0  0  0  0  0
   13.5805    8.3571    1.9538 C   0  0  0  0  0  0  0  0  0  0  0  0
   13.9836    7.0985    1.1857 C   0  0  0  0  0  0  0  0  0  0  0  0
   14.7111    8.8839    2.7305 N   0  0  0  0  0  4  0  0  0  0  0  0
   11.8317    9.7194    3.3044 C   0  0  0  0  0  0  0  0  0  0  0  0
   10.3968   10.1516    3.0079 C   0  0  0  0  0  0  0  0  0  0  0  0
    4.9738    8.1023    4.0363 H   0  0  0  0  0  0  0  0  0  0  0  0
    5.2401    8.6114    2.3200 H   0  0  0  0  0  0  0  0  0  0  0  0
    3.8390    9.2647    3.2475 H   0  0  0  0  0  0  0  0  0  0  0  0
    5.6836   10.9644    3.0910 H   0  0  0  0  0  0  0  0  0  0  0  0
    5.3476   10.4660    4.7862 H   0  0  0  0  0  0  0  0  0  0  0  0
    7.5181    9.6307    4.9461 H   0  0  0  0  0  0  0  0  0  0  0  0
    9.4709    8.5475    4.1287 H   0  0  0  0  0  0  0  0  0  0  0  0
    9.8276    8.3613    1.0624 H   0  0  0  0  0  0  0  0  0  0  0  0
    9.0349    7.1124    2.0811 H   0  0  0  0  0  0  0  0  0  0  0  0
   11.0040    6.5968    3.2371 H   0  0  0  0  0  0  0  0  0  0  0  0
   11.4410    6.6836    1.5321 H   0  0  0  0  0  0  0  0  0  0  0  0
   12.6575    7.8399    3.7045 H   0  0  0  0  0  0  0  0  0  0  0  0
   13.3805    9.1010    1.1485 H   0  0  0  0  0  0  0  0  0  0  0  0
   15.0000    7.2116    0.7521 H   0  0  0  0  0  0  0  0  0  0  0  0
   13.2924    6.9108    0.3375 H   0  0  0  0  0  0  0  0  0  0  0  0
   13.9867    6.2216    1.8670 H   0  0  0  0  0  0  0  0  0  0  0  0
   14.9942    8.1900    3.4603 H   0  0  0  0  0  0  0  0  0  0  0  0
   14.4920    9.7901    3.1973 H   0  0  0  0  0  0  0  0  0  0  0  0
   15.5287    9.0531    2.1001 H   0  0  0  0  0  0  0  0  0  0  0  0
   12.4766   10.5261    2.8979 H   0  0  0  0  0  0  0  0  0  0  0  0
   11.9658    9.7500    4.4102 H   0  0  0  0  0  0  0  0  0  0  0  0
   10.3549   10.5873    1.9838 H   0  0  0  0  0  0  0  0  0  0  0  0
   10.1049   10.9541    3.7216 H   0  0  0  0  0  0  0  0  0  0  0  0
  1  2  1  0
  2  3  1  0
  3  4  1  0
  4  5  2  0
  4  6  1  0
  6  7  1  0
  7  8  1  0
  8  9  1  0
  9 10  1  0
 10 11  1  0
 10 12  1  0
  9 13  1  0
 13 14  1  0
 14  6  1  0
  1 15  1  0
  1 16  1  0
  1 17  1  0
  2 18  1  0
  2 19  1  0
  3 20  1  0
  6 21  1  0
  7 22  1  0
  7 23  1  0
  8 24  1  0
  8 25  1  0
  9 26  1  0
 10 27  1  0
 11 28  1  0
 11 29  1  0
 11 30  1  0
 12 31  1  0
 12 32  1  0
 12 33  1  0
 13 34  1  0
 13 35  1  0
 14 36  1  0
 14 37  1  0
M  CHG  1  12   1
M  END
>  <EmbedRMS>  (66) 
0.22880006867790334

$$$$

     RDKit          3D

 44 45  0  0  0  0  0  0  0  0999 V2000
   14.0547    7.2203    1.1033 C   0  0  0  0  0  0  0  0  0  0  0  0
   13.6587    7.9549    2.3992 C   0  0  0  0  0  0  0  0  0  0  0  0
   14.6357    9.0171    2.6694 N   0  0  0  0  0  4  0  0  0  0  0  0
   12.2092    8.5075    2.2784 C   0  0  0  0  0  0  0  0  0  0  0  0
   11.1979    7.3566    2.4506 C   0  0  0  0  0  0  0  0  0  0  0  0
    9.7921    7.8529    2.1726 C   0  0  0  0  0  0  0  0  0  0  0  0
    9.4264    8.9810    3.1436 C   0  0  0  0  0  0  0  0  0  0  0  0
    8.0548    9.4598    2.8252 C   0  0  0  0  0  0  0  0  0  0  0  0
    7.7291    9.6733    1.6233 O   0  0  0  0  0  0  0  0  0  0  0  0
    7.1047    9.6639    3.8628 N   0  0  0  0  0  0  0  0  0  0  0  0
    5.8158   10.2084    3.4918 C   0  0  0  0  0  0  0  0  0  0  0  0
    4.6931    9.3870    3.9962 C   0  0  0  0  0  0  0  0  0  0  0  0
    4.5741    7.9445    4.3723 C   0  0  0  0  0  0  0  0  0  0  0  0
    3.0783    8.1074    4.0610 C   0  0  0  0  0  0  0  0  0  0  0  0
    3.3621    9.4002    3.3044 C   0  0  0  0  0  0  0  0  0  0  0  0
   10.4349   10.1402    3.0729 C   0  0  0  0  0  0  0  0  0  0  0  0
   11.8692    9.6344    3.2853 C   0  0  0  0  0  0  0  0  0  0  0  0
   13.4255    6.3265    0.9260 H   0  0  0  0  0  0  0  0  0  0  0  0
   15.1031    6.8606    1.1759 H   0  0  0  0  0  0  0  0  0  0  0  0
   13.9810    7.8990    0.2267 H   0  0  0  0  0  0  0  0  0  0  0  0
   13.7055    7.2237    3.2387 H   0  0  0  0  0  0  0  0  0  0  0  0
   14.5464    9.7881    1.9676 H   0  0  0  0  0  0  0  0  0  0  0  0
   15.6079    8.6336    2.6250 H   0  0  0  0  0  0  0  0  0  0  0  0
   14.5055    9.3934    3.6359 H   0  0  0  0  0  0  0  0  0  0  0  0
   12.0908    8.9391    1.2575 H   0  0  0  0  0  0  0  0  0  0  0  0
   11.4014    6.5310    1.7401 H   0  0  0  0  0  0  0  0  0  0  0  0
   11.2559    6.9384    3.4805 H   0  0  0  0  0  0  0  0  0  0  0  0
    9.7329    8.1985    1.1157 H   0  0  0  0  0  0  0  0  0  0  0  0
    9.0808    7.0065    2.2988 H   0  0  0  0  0  0  0  0  0  0  0  0
    9.4342    8.5686    4.1779 H   0  0  0  0  0  0  0  0  0  0  0  0
    7.3551    9.5253    4.8679 H   0  0  0  0  0  0  0  0  0  0  0  0
    5.7482   11.2536    3.8718 H   0  0  0  0  0  0  0  0  0  0  0  0
    5.6813   10.2946    2.3940 H   0  0  0  0  0  0  0  0  0  0  0  0
    4.5103    9.8993    4.9800 H   0  0  0  0  0  0  0  0  0  0  0  0
    4.7878    7.7260    5.4422 H   0  0  0  0  0  0  0  0  0  0  0  0
    5.0917    7.2800    3.6459 H   0  0  0  0  0  0  0  0  0  0  0  0
    2.4680    8.2744    4.9780 H   0  0  0  0  0  0  0  0  0  0  0  0
    2.6851    7.3007    3.4051 H   0  0  0  0  0  0  0  0  0  0  0  0
    3.4465    9.2377    2.2069 H   0  0  0  0  0  0  0  0  0  0  0  0
    2.7041   10.2451    3.6045 H   0  0  0  0  0  0  0  0  0  0  0  0
   10.3693   10.6433    2.0819 H   0  0  0  0  0  0  0  0  0  0  0  0
   10.1945   10.8921    3.8562 H   0  0  0  0  0  0  0  0  0  0  0  0
   12.5459   10.5029    3.1421 H   0  0  0  0  0  0  0  0  0  0  0  0
   11.9880    9.2645    4.3278 H   0  0  0  0  0  0  0  0  0  0  0  0
  1  2  1  0
  2  3  1  0
  2  4  1  0
  4  5  1  0
  5  6  1  0
  6  7  1  0
  7  8  1  0
  8  9  2  0
  8 10  1  0
 10 11  1  0
 11 12  1  0
 12 13  1  0
 13 14  1  0
 14 15  1  0
  7 16  1  0
 16 17  1  0
 17  4  1  0
 15 12  1  0
  1 18  1  0
  1 19  1  0
  1 20  1  0
  2 21  1  0
  3 22  1  0
  3 23  1  0
  3 24  1  0
  4 25  1  0
  5 26  1  0
  5 27  1  0
  6 28  1  0
  6 29  1  0
  7 30  1  0
 10 31  1  0
 11 32  1  0
 11 33  1  0
 12 34  1  0
 13 35  1  0
 13 36  1  0
 14 37  1  0
 14 38  1  0
 15 39  1  0
 15 40  1  0
 16 41  1  0
 16 42  1  0
 17 43  1  0
 17 44  1  0
M  CHG  1   3   1
M  END
>  <EmbedRMS>  (67) 
0.25459633569662915

$$$$

     RDKit          3D

 42 42  0  0  0  0  0  0  0  0999 V2000
    3.9001    7.5288    1.5629 C   0  0  0  0  0  0  0  0  0  0  0  0
    4.6326    8.6920    2.0531 N   0  0  0  0  0  0  0  0  0  0  0  0
    4.9417    8.9005    3.4440 C   0  0  0  0  0  0  0  0  0  0  0  0
    4.5311    8.0727    4.3538 N   0  0  0  0  0  0  0  0  0  0  0  0
    5.8032   10.0605    3.8661 C   0  0  0  0  0  0  0  0  0  0  0  0
    7.2174    9.6610    3.9271 N   0  0  0  0  0  0  0  0  0  0  0  0
    7.9881    9.5272    2.7204 C   0  0  0  0  0  0  0  0  0  0  0  0
    7.4252    9.7009    1.6138 O   0  0  0  0  0  0  0  0  0  0  0  0
    9.4499    9.2013    2.6371 C   0  0  0  0  0  0  0  0  0  0  0  0
    9.7440    7.7258    2.5450 C   0  0  0  0  0  0  0  0  0  0  0  0
   11.1792    7.4390    2.1353 C   0  0  0  0  0  0  0  0  0  0  0  0
   12.2612    8.3269    2.7673 C   0  0  0  0  0  0  0  0  0  0  0  0
   13.6004    8.3242    1.9897 C   0  0  0  0  0  0  0  0  0  0  0  0
   14.0112    7.0505    1.2528 C   0  0  0  0  0  0  0  0  0  0  0  0
   14.7024    8.8916    2.7694 N   0  0  0  0  0  4  0  0  0  0  0  0
   11.8491    9.7804    3.1220 C   0  0  0  0  0  0  0  0  0  0  0  0
   10.3850   10.0196    3.4833 C   0  0  0  0  0  0  0  0  0  0  0  0
    3.7952    7.5885    0.4590 H   0  0  0  0  0  0  0  0  0  0  0  0
    2.8852    7.5022    2.0122 H   0  0  0  0  0  0  0  0  0  0  0  0
    4.4530    6.5997    1.8160 H   0  0  0  0  0  0  0  0  0  0  0  0
    4.9107    9.4202    1.3581 H   0  0  0  0  0  0  0  0  0  0  0  0
    3.9469    7.2329    4.1510 H   0  0  0  0  0  0  0  0  0  0  0  0
    5.6748   10.9176    3.1703 H   0  0  0  0  0  0  0  0  0  0  0  0
    5.4803   10.4078    4.8717 H   0  0  0  0  0  0  0  0  0  0  0  0
    7.6771    9.5187    4.8541 H   0  0  0  0  0  0  0  0  0  0  0  0
    9.7245    9.5589    1.6135 H   0  0  0  0  0  0  0  0  0  0  0  0
    9.5608    7.2706    3.5428 H   0  0  0  0  0  0  0  0  0  0  0  0
    9.0534    7.2359    1.8222 H   0  0  0  0  0  0  0  0  0  0  0  0
   11.4057    6.3664    2.3245 H   0  0  0  0  0  0  0  0  0  0  0  0
   11.2127    7.5907    1.0342 H   0  0  0  0  0  0  0  0  0  0  0  0
   12.4688    7.8402    3.7471 H   0  0  0  0  0  0  0  0  0  0  0  0
   13.4361    9.0284    1.1410 H   0  0  0  0  0  0  0  0  0  0  0  0
   14.1169    6.2176    1.9793 H   0  0  0  0  0  0  0  0  0  0  0  0
   13.2671    6.7644    0.4813 H   0  0  0  0  0  0  0  0  0  0  0  0
   14.9827    7.1929    0.7333 H   0  0  0  0  0  0  0  0  0  0  0  0
   14.5200    9.8921    3.0077 H   0  0  0  0  0  0  0  0  0  0  0  0
   14.8382    8.3413    3.6482 H   0  0  0  0  0  0  0  0  0  0  0  0
   15.5917    8.8674    2.2193 H   0  0  0  0  0  0  0  0  0  0  0  0
   12.4701   10.1517    3.9662 H   0  0  0  0  0  0  0  0  0  0  0  0
   12.0651   10.4405    2.2529 H   0  0  0  0  0  0  0  0  0  0  0  0
   10.2310    9.7351    4.5470 H   0  0  0  0  0  0  0  0  0  0  0  0
   10.1475   11.1027    3.3868 H   0  0  0  0  0  0  0  0  0  0  0  0
  1  2  1  0
  2  3  1  0
  3  4  2  3
  3  5  1  0
  5  6  1  0
  6  7  1  0
  7  8  2  0
  7  9  1  0
  9 10  1  0
 10 11  1  0
 11 12  1  0
 12 13  1  0
 13 14  1  0
 13 15  1  0
 12 16  1  0
 16 17  1  0
 17  9  1  0
  1 18  1  0
  1 19  1  0
  1 20  1  0
  2 21  1  0
  4 22  1  0
  5 23  1  0
  5 24  1  0
  6 25  1  0
  9 26  1  0
 10 27  1  0
 10 28  1  0
 11 29  1  0
 11 30  1  0
 12 31  1  0
 13 32  1  0
 14 33  1  0
 14 34  1  0
 14 35  1  0
 15 36  1  0
 15 37  1  0
 15 38  1  0
 16 39  1  0
 16 40  1  0
 17 41  1  0
 17 42  1  0
M  CHG  1  15   1
M  END
>  <EmbedRMS>  (68) 
0.30183759959029793

$$$$

     RDKit          3D

 44 44  0  0  0  0  0  0  0  0999 V2000
    1.4040    9.0166    2.3641 C   0  0  0  0  0  0  0  0  0  0  0  0
    2.7628    8.5003    2.5278 N   0  0  0  0  0  0  0  0  0  0  0  0
    3.6025    9.5491    3.1028 C   0  0  0  0  0  0  0  0  0  0  0  0
    4.9734    9.0640    3.2586 N   0  0  0  0  0  0  0  0  0  0  0  0
    5.7830   10.1403    3.8339 C   0  0  0  0  0  0  0  0  0  0  0  0
    7.1564    9.6934    3.9960 N   0  0  0  0  0  0  0  0  0  0  0  0
    8.0165    9.4624    2.8789 C   0  0  0  0  0  0  0  0  0  0  0  0
    7.6064    9.6837    1.7032 O   0  0  0  0  0  0  0  0  0  0  0  0
    9.4247    8.9828    3.1171 C   0  0  0  0  0  0  0  0  0  0  0  0
    9.7859    7.9353    2.0716 C   0  0  0  0  0  0  0  0  0  0  0  0
   11.1484    7.3151    2.3182 C   0  0  0  0  0  0  0  0  0  0  0  0
   12.2339    8.2985    2.7950 C   0  0  0  0  0  0  0  0  0  0  0  0
   13.7110    7.9148    2.4294 C   0  0  0  0  0  0  0  0  0  0  0  0
   13.9337    7.3324    1.0255 C   0  0  0  0  0  0  0  0  0  0  0  0
   14.6491    9.0166    2.6727 N   0  0  0  0  0  4  0  0  0  0  0  0
   11.8868    9.7888    2.9950 C   0  0  0  0  0  0  0  0  0  0  0  0
   10.3948   10.1677    3.0602 C   0  0  0  0  0  0  0  0  0  0  0  0
    0.7590    8.2185    1.9398 H   0  0  0  0  0  0  0  0  0  0  0  0
    0.9723    9.3303    3.3409 H   0  0  0  0  0  0  0  0  0  0  0  0
    1.3944    9.8725    1.6549 H   0  0  0  0  0  0  0  0  0  0  0  0
    2.7149    7.7088    3.2119 H   0  0  0  0  0  0  0  0  0  0  0  0
    3.6026   10.4302    2.4198 H   0  0  0  0  0  0  0  0  0  0  0  0
    3.1928    9.8628    4.0935 H   0  0  0  0  0  0  0  0  0  0  0  0
    4.9613    8.2753    3.9479 H   0  0  0  0  0  0  0  0  0  0  0  0
    5.3827   10.4355    4.8311 H   0  0  0  0  0  0  0  0  0  0  0  0
    5.7702   11.0378    3.1753 H   0  0  0  0  0  0  0  0  0  0  0  0
    7.5336    9.5834    4.9645 H   0  0  0  0  0  0  0  0  0  0  0  0
    9.4885    8.5112    4.1234 H   0  0  0  0  0  0  0  0  0  0  0  0
    9.7892    8.4045    1.0613 H   0  0  0  0  0  0  0  0  0  0  0  0
    9.0210    7.1265    2.0635 H   0  0  0  0  0  0  0  0  0  0  0  0
   11.4323    6.8338    1.3640 H   0  0  0  0  0  0  0  0  0  0  0  0
   11.0334    6.4802    3.0485 H   0  0  0  0  0  0  0  0  0  0  0  0
   12.2370    8.0282    3.8795 H   0  0  0  0  0  0  0  0  0  0  0  0
   14.0083    7.0850    3.1154 H   0  0  0  0  0  0  0  0  0  0  0  0
   13.4428    7.9748    0.2640 H   0  0  0  0  0  0  0  0  0  0  0  0
   13.5382    6.2974    0.9559 H   0  0  0  0  0  0  0  0  0  0  0  0
   15.0180    7.2750    0.7915 H   0  0  0  0  0  0  0  0  0  0  0  0
   15.6324    8.6701    2.5844 H   0  0  0  0  0  0  0  0  0  0  0  0
   14.5101    9.7862    1.9791 H   0  0  0  0  0  0  0  0  0  0  0  0
   14.5408    9.3813    3.6463 H   0  0  0  0  0  0  0  0  0  0  0  0
   12.3169   10.3475    2.1368 H   0  0  0  0  0  0  0  0  0  0  0  0
   12.3915   10.1911    3.9032 H   0  0  0  0  0  0  0  0  0  0  0  0
   10.2194   10.8155    3.9477 H   0  0  0  0  0  0  0  0  0  0  0  0
   10.1542   10.7878    2.1662 H   0  0  0  0  0  0  0  0  0  0  0  0
  1  2  1  0
  2  3  1  0
  3  4  1  0
  4  5  1  0
  5  6  1  0
  6  7  1  0
  7  8  2  0
  7  9  1  0
  9 10  1  0
 10 11  1  0
 11 12  1  0
 12 13  1  0
 13 14  1  0
 13 15  1  0
 12 16  1  0
 16 17  1  0
 17  9  1  0
  1 18  1  0
  1 19  1  0
  1 20  1  0
  2 21  1  0
  3 22  1  0
  3 23  1  0
  4 24  1  0
  5 25  1  0
  5 26  1  0
  6 27  1  0
  9 28  1  0
 10 29  1  0
 10 30  1  0
 11 31  1  0
 11 32  1  0
 12 33  1  0
 13 34  1  0
 14 35  1  0
 14 36  1  0
 14 37  1  0
 15 38  1  0
 15 39  1  0
 15 40  1  0
 16 41  1  0
 16 42  1  0
 17 43  1  0
 17 44  1  0
M  CHG  1  15   1
M  END
>  <EmbedRMS>  (69) 
0.17033072430706003

$$$$

     RDKit          3D

 45 45  0  0  0  0  0  0  0  0999 V2000
    4.5897    7.9225    5.6085 C   0  0  0  0  0  0  0  0  0  0  0  0
    4.6991    7.7771    4.2874 C   0  0  0  0  0  0  0  0  0  0  0  0
    4.7226    6.1144    3.7205 Cl  0  0  0  0  0  0  0  0  0  0  0  0
    4.9339    8.9336    3.3694 C   0  0  0  0  0  0  0  0  0  0  0  0
    4.4593    8.9872    2.1026 C   0  0  0  0  0  0  0  0  0  0  0  0
    3.5401    8.0001    1.4397 C   0  0  0  0  0  0  0  0  0  0  0  0
    1.9111    8.0775    2.1521 Cl  0  0  0  0  0  0  0  0  0  0  0  0
    5.8138   10.0814    3.8476 C   0  0  0  0  0  0  0  0  0  0  0  0
    7.2197    9.6615    3.9223 N   0  0  0  0  0  0  0  0  0  0  0  0
    7.9912    9.5348    2.7161 C   0  0  0  0  0  0  0  0  0  0  0  0
    7.4231    9.6981    1.6096 O   0  0  0  0  0  0  0  0  0  0  0  0
    9.4528    9.2122    2.6342 C   0  0  0  0  0  0  0  0  0  0  0  0
    9.7356    7.7414    2.3739 C   0  0  0  0  0  0  0  0  0  0  0  0
   11.1990    7.3485    2.5407 C   0  0  0  0  0  0  0  0  0  0  0  0
   12.1827    8.5076    2.2958 C   0  0  0  0  0  0  0  0  0  0  0  0
   13.6466    7.9622    2.3850 C   0  0  0  0  0  0  0  0  0  0  0  0
   14.0285    7.2299    1.0858 C   0  0  0  0  0  0  0  0  0  0  0  0
   14.6276    9.0244    2.6470 N   0  0  0  0  0  4  0  0  0  0  0  0
   11.8965    9.6372    3.3179 C   0  0  0  0  0  0  0  0  0  0  0  0
   10.4183   10.0723    3.4272 C   0  0  0  0  0  0  0  0  0  0  0  0
    4.5706    8.8843    6.0997 H   0  0  0  0  0  0  0  0  0  0  0  0
    4.5706    8.8844    6.0995 H   0  0  0  0  0  0  0  0  0  0  0  0
    4.7240    9.8401    1.4878 H   0  0  0  0  0  0  0  0  0  0  0  0
    3.9439    6.9730    1.4282 H   0  0  0  0  0  0  0  0  0  0  0  0
    3.4316    8.2908    0.3735 H   0  0  0  0  0  0  0  0  0  0  0  0
    5.7311   10.9690    3.1815 H   0  0  0  0  0  0  0  0  0  0  0  0
    5.4903   10.4607    4.8345 H   0  0  0  0  0  0  0  0  0  0  0  0
    7.6701    9.5048    4.8514 H   0  0  0  0  0  0  0  0  0  0  0  0
    9.7147    9.6179    1.6248 H   0  0  0  0  0  0  0  0  0  0  0  0
    9.3952    7.4666    1.3484 H   0  0  0  0  0  0  0  0  0  0  0  0
    9.1299    7.1295    3.0786 H   0  0  0  0  0  0  0  0  0  0  0  0
   11.3994    6.4984    1.8578 H   0  0  0  0  0  0  0  0  0  0  0  0
   11.3451    6.9688    3.5772 H   0  0  0  0  0  0  0  0  0  0  0  0
   12.0123    8.9208    1.2760 H   0  0  0  0  0  0  0  0  0  0  0  0
   13.7154    7.2274    3.2200 H   0  0  0  0  0  0  0  0  0  0  0  0
   13.3816    6.3494    0.9045 H   0  0  0  0  0  0  0  0  0  0  0  0
   15.0719    6.8550    1.1517 H   0  0  0  0  0  0  0  0  0  0  0  0
   13.9579    7.9166    0.2153 H   0  0  0  0  0  0  0  0  0  0  0  0
   14.5264    9.7976    1.9494 H   0  0  0  0  0  0  0  0  0  0  0  0
   15.5994    8.6422    2.5846 H   0  0  0  0  0  0  0  0  0  0  0  0
   14.5150    9.3994    3.6159 H   0  0  0  0  0  0  0  0  0  0  0  0
   12.4950   10.5349    3.0512 H   0  0  0  0  0  0  0  0  0  0  0  0
   12.2352    9.3019    4.3238 H   0  0  0  0  0  0  0  0  0  0  0  0
   10.3155   11.1393    3.1222 H   0  0  0  0  0  0  0  0  0  0  0  0
   10.1190   10.0254    4.4967 H   0  0  0  0  0  0  0  0  0  0  0  0
  1  2  2  3
  2  3  1  0
  2  4  1  0
  4  5  2  3
  5  6  1  0
  6  7  1  0
  4  8  1  0
  8  9  1  0
  9 10  1  0
 10 11  2  0
 10 12  1  0
 12 13  1  0
 13 14  1  0
 14 15  1  0
 15 16  1  0
 16 17  1  0
 16 18  1  0
 15 19  1  0
 19 20  1  0
 20 12  1  0
  1 21  1  0
  1 22  1  0
  5 23  1  0
  6 24  1  0
  6 25  1  0
  8 26  1  0
  8 27  1  0
  9 28  1  0
 12 29  1  0
 13 30  1  0
 13 31  1  0
 14 32  1  0
 14 33  1  0
 15 34  1  0
 16 35  1  0
 17 36  1  0
 17 37  1  0
 17 38  1  0
 18 39  1  0
 18 40  1  0
 18 41  1  0
 19 42  1  0
 19 43  1  0
 20 44  1  0
 20 45  1  0
M  CHG  1  18   1
M  END
>  <EmbedRMS>  (70) 
0.16997839536996281

$$$$

     RDKit          3D

 41 41  0  0  0  0  0  0  0  0999 V2000
   14.0115    7.0506    1.2528 C   0  0  0  0  0  0  0  0  0  0  0  0
   13.6007    8.3244    1.9897 C   0  0  0  0  0  0  0  0  0  0  0  0
   14.7026    8.8917    2.7697 N   0  0  0  0  0  4  0  0  0  0  0  0
   12.2613    8.3272    2.7670 C   0  0  0  0  0  0  0  0  0  0  0  0
   11.1798    7.4395    2.1343 C   0  0  0  0  0  0  0  0  0  0  0  0
    9.7449    7.7260    2.5438 C   0  0  0  0  0  0  0  0  0  0  0  0
    9.4498    9.2016    2.6348 C   0  0  0  0  0  0  0  0  0  0  0  0
    7.9883    9.5247    2.7224 C   0  0  0  0  0  0  0  0  0  0  0  0
    7.4124    9.6708    1.6173 O   0  0  0  0  0  0  0  0  0  0  0  0
    7.2314    9.6900    3.9341 N   0  0  0  0  0  0  0  0  0  0  0  0
    5.8391   10.1600    3.8802 C   0  0  0  0  0  0  0  0  0  0  0  0
    5.7848   11.6424    3.4802 C   0  0  0  0  0  0  0  0  0  0  0  0
    4.4046   12.0986    3.3235 N   0  0  0  0  0  0  0  0  0  0  0  0
    4.0979   13.4521    2.9752 C   0  0  0  0  0  0  0  0  0  0  0  0
    5.0150   14.2987    2.8019 O   0  0  0  0  0  0  0  0  0  0  0  0
   10.3846   10.0200    3.4814 C   0  0  0  0  0  0  0  0  0  0  0  0
   11.8491    9.7807    3.1212 C   0  0  0  0  0  0  0  0  0  0  0  0
   14.9833    7.1928    0.7338 H   0  0  0  0  0  0  0  0  0  0  0  0
   14.1168    6.2176    1.9793 H   0  0  0  0  0  0  0  0  0  0  0  0
   13.2678    6.7648    0.4810 H   0  0  0  0  0  0  0  0  0  0  0  0
   13.4367    9.0286    1.1409 H   0  0  0  0  0  0  0  0  0  0  0  0
   15.5920    8.8676    2.2197 H   0  0  0  0  0  0  0  0  0  0  0  0
   14.5201    9.8921    3.0081 H   0  0  0  0  0  0  0  0  0  0  0  0
   14.8383    8.3412    3.6484 H   0  0  0  0  0  0  0  0  0  0  0  0
   12.4685    7.8405    3.7468 H   0  0  0  0  0  0  0  0  0  0  0  0
   11.4064    6.3669    2.3233 H   0  0  0  0  0  0  0  0  0  0  0  0
   11.2136    7.5916    1.0333 H   0  0  0  0  0  0  0  0  0  0  0  0
    9.5620    7.2714    3.5419 H   0  0  0  0  0  0  0  0  0  0  0  0
    9.0548    7.2351    1.8212 H   0  0  0  0  0  0  0  0  0  0  0  0
    9.7207    9.5606    1.6108 H   0  0  0  0  0  0  0  0  0  0  0  0
    7.6691    9.4627    4.8547 H   0  0  0  0  0  0  0  0  0  0  0  0
    5.2621    9.5419    3.1581 H   0  0  0  0  0  0  0  0  0  0  0  0
    5.3740   10.0392    4.8825 H   0  0  0  0  0  0  0  0  0  0  0  0
    6.3234   11.8023    2.5228 H   0  0  0  0  0  0  0  0  0  0  0  0
    6.2851   12.2470    4.2676 H   0  0  0  0  0  0  0  0  0  0  0  0
    3.6094   11.4357    3.4671 H   0  0  0  0  0  0  0  0  0  0  0  0
    3.0657   13.7552    2.8606 H   0  0  0  0  0  0  0  0  0  0  0  0
   10.1471   11.1031    3.3845 H   0  0  0  0  0  0  0  0  0  0  0  0
   10.2299    9.7359    4.5451 H   0  0  0  0  0  0  0  0  0  0  0  0
   12.4695   10.1520    3.9658 H   0  0  0  0  0  0  0  0  0  0  0  0
   12.0655   10.4407    2.2522 H   0  0  0  0  0  0  0  0  0  0  0  0
  1  2  1  0
  2  3  1  0
  2  4  1  0
  4  5  1  0
  5  6  1  0
  6  7  1  0
  7  8  1  0
  8  9  2  0
  8 10  1  0
 10 11  1  0
 11 12  1  0
 12 13  1  0
 13 14  1  0
 14 15  2  0
  7 16  1  0
 16 17  1  0
 17  4  1  0
  1 18  1  0
  1 19  1  0
  1 20  1  0
  2 21  1  0
  3 22  1  0
  3 23  1  0
  3 24  1  0
  4 25  1  0
  5 26  1  0
  5 27  1  0
  6 28  1  0
  6 29  1  0
  7 30  1  0
 10 31  1  0
 11 32  1  0
 11 33  1  0
 12 34  1  0
 12 35  1  0
 13 36  1  0
 14 37  1  0
 16 38  1  0
 16 39  1  0
 17 40  1  0
 17 41  1  0
M  CHG  1   3   1
M  END
>  <EmbedRMS>  (71) 
0.30207850723488733

$$$$

     RDKit          3D

 41 41  0  0  0  0  0  0  0  0999 V2000
    4.6460   11.6759    7.1724 C   0  0  0  0  0  0  0  0  0  0  0  0
    5.2633   11.4940    5.8659 N   0  0  0  0  0  0  0  0  0  0  0  0
    5.1493   10.2629    5.1439 C   0  0  0  0  0  0  0  0  0  0  0  0
    4.5014    9.2956    5.6277 O   0  0  0  0  0  0  0  0  0  0  0  0
    5.8086   10.1135    3.8127 C   0  0  0  0  0  0  0  0  0  0  0  0
    7.2095    9.6833    3.9371 N   0  0  0  0  0  0  0  0  0  0  0  0
    7.9808    9.5180    2.7350 C   0  0  0  0  0  0  0  0  0  0  0  0
    7.4142    9.6752    1.6244 O   0  0  0  0  0  0  0  0  0  0  0  0
    9.4440    9.1935    2.6630 C   0  0  0  0  0  0  0  0  0  0  0  0
    9.7658    7.7143    2.4337 C   0  0  0  0  0  0  0  0  0  0  0  0
   11.2644    7.3644    2.5408 C   0  0  0  0  0  0  0  0  0  0  0  0
   12.1433    8.5869    2.2329 C   0  0  0  0  0  0  0  0  0  0  0  0
   13.6544    8.3400    1.9332 C   0  0  0  0  0  0  0  0  0  0  0  0
   14.0135    7.0449    1.2245 C   0  0  0  0  0  0  0  0  0  0  0  0
   14.6174    8.7741    2.9396 N   0  0  0  0  0  4  0  0  0  0  0  0
   11.8904    9.6848    3.2864 C   0  0  0  0  0  0  0  0  0  0  0  0
   10.4058   10.0816    3.4356 C   0  0  0  0  0  0  0  0  0  0  0  0
    3.5459   11.5501    7.0899 H   0  0  0  0  0  0  0  0  0  0  0  0
    4.8632   12.6960    7.5536 H   0  0  0  0  0  0  0  0  0  0  0  0
    5.0530   10.9310    7.8883 H   0  0  0  0  0  0  0  0  0  0  0  0
    5.8124   12.2820    5.4541 H   0  0  0  0  0  0  0  0  0  0  0  0
    5.2457    9.3665    3.2110 H   0  0  0  0  0  0  0  0  0  0  0  0
    5.7655   11.0860    3.2759 H   0  0  0  0  0  0  0  0  0  0  0  0
    7.6527    9.5270    4.8705 H   0  0  0  0  0  0  0  0  0  0  0  0
    9.6833    9.5857    1.6449 H   0  0  0  0  0  0  0  0  0  0  0  0
    9.2152    7.1104    3.1876 H   0  0  0  0  0  0  0  0  0  0  0  0
    9.3851    7.3989    1.4351 H   0  0  0  0  0  0  0  0  0  0  0  0
   11.4740    6.5318    1.8378 H   0  0  0  0  0  0  0  0  0  0  0  0
   11.4952    7.0010    3.5664 H   0  0  0  0  0  0  0  0  0  0  0  0
   11.7498    8.9804    1.2663 H   0  0  0  0  0  0  0  0  0  0  0  0
   13.8441    9.0654    1.1031 H   0  0  0  0  0  0  0  0  0  0  0  0
   15.0584    7.0793    0.8474 H   0  0  0  0  0  0  0  0  0  0  0  0
   13.3402    6.8740    0.3569 H   0  0  0  0  0  0  0  0  0  0  0  0
   13.9243    6.1936    1.9314 H   0  0  0  0  0  0  0  0  0  0  0  0
   15.5927    8.5554    2.6308 H   0  0  0  0  0  0  0  0  0  0  0  0
   14.5660    9.8051    3.1020 H   0  0  0  0  0  0  0  0  0  0  0  0
   14.4336    8.2664    3.8348 H   0  0  0  0  0  0  0  0  0  0  0  0
   12.2736    9.3421    4.2727 H   0  0  0  0  0  0  0  0  0  0  0  0
   12.4550   10.5998    3.0047 H   0  0  0  0  0  0  0  0  0  0  0  0
   10.1351   10.0261    4.5122 H   0  0  0  0  0  0  0  0  0  0  0  0
   10.2667   11.1445    3.1312 H   0  0  0  0  0  0  0  0  0  0  0  0
  1  2  1  0
  2  3  1  0
  3  4  2  0
  3  5  1  0
  5  6  1  0
  6  7  1  0
  7  8  2  0
  7  9  1  0
  9 10  1  0
 10 11  1  0
 11 12  1  0
 12 13  1  0
 13 14  1  0
 13 15  1  0
 12 16  1  0
 16 17  1  0
 17  9  1  0
  1 18  1  0
  1 19  1  0
  1 20  1  0
  2 21  1  0
  5 22  1  0
  5 23  1  0
  6 24  1  0
  9 25  1  0
 10 26  1  0
 10 27  1  0
 11 28  1  0
 11 29  1  0
 12 30  1  0
 13 31  1  0
 14 32  1  0
 14 33  1  0
 14 34  1  0
 15 35  1  0
 15 36  1  0
 15 37  1  0
 16 38  1  0
 16 39  1  0
 17 40  1  0
 17 41  1  0
M  CHG  1  15   1
M  END
>  <EmbedRMS>  (72) 
0.2569057114362328

$$$$

     RDKit          3D

 44 45  0  0  0  0  0  0  0  0999 V2000
   14.0488    7.2191    1.1051 C   0  0  0  0  0  0  0  0  0  0  0  0
   13.6497    7.9554    2.3991 C   0  0  0  0  0  0  0  0  0  0  0  0
   14.6291    9.0154    2.6714 N   0  0  0  0  0  4  0  0  0  0  0  0
   12.2004    8.5120    2.2736 C   0  0  0  0  0  0  0  0  0  0  0  0
   11.1802    7.3659    2.4347 C   0  0  0  0  0  0  0  0  0  0  0  0
    9.7717    7.8723    2.1563 C   0  0  0  0  0  0  0  0  0  0  0  0
    9.4105    8.9943    3.1349 C   0  0  0  0  0  0  0  0  0  0  0  0
    8.0151    9.4817    2.8755 C   0  0  0  0  0  0  0  0  0  0  0  0
    7.6261    9.7002    1.6933 O   0  0  0  0  0  0  0  0  0  0  0  0
    7.1363    9.6984    3.9893 N   0  0  0  0  0  0  0  0  0  0  0  0
    5.7492   10.1489    3.8764 C   0  0  0  0  0  0  0  0  0  0  0  0
    4.8893    9.1748    3.0737 C   0  0  0  0  0  0  0  0  0  0  0  0
    3.9086   10.0488    2.3174 C   0  0  0  0  0  0  0  0  0  0  0  0
    4.6374   11.3586    2.0651 C   0  0  0  0  0  0  0  0  0  0  0  0
    5.6401   11.5184    3.2002 C   0  0  0  0  0  0  0  0  0  0  0  0
   10.4245   10.1487    3.0666 C   0  0  0  0  0  0  0  0  0  0  0  0
   11.8592    9.6377    3.2815 C   0  0  0  0  0  0  0  0  0  0  0  0
   13.4177    6.3266    0.9275 H   0  0  0  0  0  0  0  0  0  0  0  0
   15.0961    6.8572    1.1812 H   0  0  0  0  0  0  0  0  0  0  0  0
   13.9786    7.8971    0.2277 H   0  0  0  0  0  0  0  0  0  0  0  0
   13.6910    7.2248    3.2393 H   0  0  0  0  0  0  0  0  0  0  0  0
   14.5437    9.7861    1.9688 H   0  0  0  0  0  0  0  0  0  0  0  0
   15.6005    8.6294    2.6305 H   0  0  0  0  0  0  0  0  0  0  0  0
   14.4966    9.3930    3.6371 H   0  0  0  0  0  0  0  0  0  0  0  0
   12.0885    8.9476    1.2537 H   0  0  0  0  0  0  0  0  0  0  0  0
   11.3816    6.5455    1.7176 H   0  0  0  0  0  0  0  0  0  0  0  0
   11.2343    6.9388    3.4610 H   0  0  0  0  0  0  0  0  0  0  0  0
    9.7093    8.2319    1.1046 H   0  0  0  0  0  0  0  0  0  0  0  0
    9.0558    7.0292    2.2755 H   0  0  0  0  0  0  0  0  0  0  0  0
    9.4484    8.5667    4.1624 H   0  0  0  0  0  0  0  0  0  0  0  0
    7.5044    9.5331    4.9534 H   0  0  0  0  0  0  0  0  0  0  0  0
    5.3151   10.2297    4.8995 H   0  0  0  0  0  0  0  0  0  0  0  0
    5.4874    8.5826    2.3499 H   0  0  0  0  0  0  0  0  0  0  0  0
    4.3538    8.4674    3.7439 H   0  0  0  0  0  0  0  0  0  0  0  0
    3.0135   10.2380    2.9507 H   0  0  0  0  0  0  0  0  0  0  0  0
    3.5893    9.5718    1.3654 H   0  0  0  0  0  0  0  0  0  0  0  0
    3.9259   12.2120    2.0279 H   0  0  0  0  0  0  0  0  0  0  0  0
    5.1796   11.2976    1.0956 H   0  0  0  0  0  0  0  0  0  0  0  0
    6.6142   11.8856    2.8104 H   0  0  0  0  0  0  0  0  0  0  0  0
    5.2621   12.2680    3.9303 H   0  0  0  0  0  0  0  0  0  0  0  0
   10.3586   10.6524    2.0763 H   0  0  0  0  0  0  0  0  0  0  0  0
   10.1861   10.9007    3.8504 H   0  0  0  0  0  0  0  0  0  0  0  0
   12.5384   10.5047    3.1419 H   0  0  0  0  0  0  0  0  0  0  0  0
   11.9744    9.2654    4.3235 H   0  0  0  0  0  0  0  0  0  0  0  0
  1  2  1  0
  2  3  1  0
  2  4  1  0
  4  5  1  0
  5  6  1  0
  6  7  1  0
  7  8  1  0
  8  9  2  0
  8 10  1  0
 10 11  1  0
 11 12  1  0
 12 13  1  0
 13 14  1  0
 14 15  1  0
  7 16  1  0
 16 17  1  0
 17  4  1  0
 15 11  1  0
  1 18  1  0
  1 19  1  0
  1 20  1  0
  2 21  1  0
  3 22  1  0
  3 23  1  0
  3 24  1  0
  4 25  1  0
  5 26  1  0
  5 27  1  0
  6 28  1  0
  6 29  1  0
  7 30  1  0
 10 31  1  0
 11 32  1  0
 12 33  1  0
 12 34  1  0
 13 35  1  0
 13 36  1  0
 14 37  1  0
 14 38  1  0
 15 39  1  0
 15 40  1  0
 16 41  1  0
 16 42  1  0
 17 43  1  0
 17 44  1  0
M  CHG  1   3   1
M  END
>  <EmbedRMS>  (73) 
0.031527461887508344

$$$$

     RDKit          3D

 37 37  0  0  0  0  0  0  0  0999 V2000
    4.9010    8.9493    3.3214 C   0  0  0  0  0  0  0  0  0  0  0  0
    5.7477   10.1185    3.8091 C   0  0  0  0  0  0  0  0  0  0  0  0
    7.1378    9.7075    3.9757 N   0  0  0  0  0  0  0  0  0  0  0  0
    8.0091    9.4709    2.8632 C   0  0  0  0  0  0  0  0  0  0  0  0
    7.6090    9.6877    1.6849 O   0  0  0  0  0  0  0  0  0  0  0  0
    9.4140    8.9898    3.1084 C   0  0  0  0  0  0  0  0  0  0  0  0
    9.7981    7.9225    2.0853 C   0  0  0  0  0  0  0  0  0  0  0  0
   11.1578    7.3127    2.3960 C   0  0  0  0  0  0  0  0  0  0  0  0
   12.2752    8.3218    2.7734 C   0  0  0  0  0  0  0  0  0  0  0  0
   13.5805    8.3571    1.9538 C   0  0  0  0  0  0  0  0  0  0  0  0
   13.9836    7.0985    1.1857 C   0  0  0  0  0  0  0  0  0  0  0  0
   14.7111    8.8839    2.7305 N   0  0  0  0  0  4  0  0  0  0  0  0
   11.8317    9.7194    3.3044 C   0  0  0  0  0  0  0  0  0  0  0  0
   10.3968   10.1516    3.0079 C   0  0  0  0  0  0  0  0  0  0  0  0
    4.9738    8.1023    4.0363 H   0  0  0  0  0  0  0  0  0  0  0  0
    5.2401    8.6114    2.3200 H   0  0  0  0  0  0  0  0  0  0  0  0
    3.8390    9.2647    3.2475 H   0  0  0  0  0  0  0  0  0  0  0  0
    5.6836   10.9644    3.0910 H   0  0  0  0  0  0  0  0  0  0  0  0
    5.3476   10.4660    4.7862 H   0  0  0  0  0  0  0  0  0  0  0  0
    7.5181    9.6307    4.9461 H   0  0  0  0  0  0  0  0  0  0  0  0
    9.4709    8.5475    4.1287 H   0  0  0  0  0  0  0  0  0  0  0  0
    9.8276    8.3613    1.0624 H   0  0  0  0  0  0  0  0  0  0  0  0
    9.0349    7.1124    2.0811 H   0  0  0  0  0  0  0  0  0  0  0  0
   11.0040    6.5968    3.2371 H   0  0  0  0  0  0  0  0  0  0  0  0
   11.4410    6.6836    1.5321 H   0  0  0  0  0  0  0  0  0  0  0  0
   12.6575    7.8399    3.7045 H   0  0  0  0  0  0  0  0  0  0  0  0
   13.3805    9.1010    1.1485 H   0  0  0  0  0  0  0  0  0  0  0  0
   15.0000    7.2116    0.7521 H   0  0  0  0  0  0  0  0  0  0  0  0
   13.2924    6.9108    0.3375 H   0  0  0  0  0  0  0  0  0  0  0  0
   13.9867    6.2216    1.8670 H   0  0  0  0  0  0  0  0  0  0  0  0
   14.9942    8.1900    3.4603 H   0  0  0  0  0  0  0  0  0  0  0  0
   14.4920    9.7901    3.1973 H   0  0  0  0  0  0  0  0  0  0  0  0
   15.5287    9.0531    2.1001 H   0  0  0  0  0  0  0  0  0  0  0  0
   12.4766   10.5261    2.8979 H   0  0  0  0  0  0  0  0  0  0  0  0
   11.9658    9.7500    4.4102 H   0  0  0  0  0  0  0  0  0  0  0  0
   10.3549   10.5873    1.9838 H   0  0  0  0  0  0  0  0  0  0  0  0
   10.1049   10.9541    3.7216 H   0  0  0  0  0  0  0  0  0  0  0  0
  1  2  1  0
  2  3  1  0
  3  4  1  0
  4  5  2  0
  4  6  1  0
  6  7  1  0
  7  8  1  0
  8  9  1  0
  9 10  1  0
 10 11  1  0
 10 12  1  0
  9 13  1  0
 13 14  1  0
 14  6  1  0
  1 15  1  0
  1 16  1  0
  1 17  1  0
  2 18  1  0
  2 19  1  0
  3 20  1  0
  6 21  1  0
  7 22  1  0
  7 23  1  0
  8 24  1  0
  8 25  1  0
  9 26  1  0
 10 27  1  0
 11 28  1  0
 11 29  1  0
 11 30  1  0
 12 31  1  0
 12 32  1  0
 12 33  1  0
 13 34  1  0
 13 35  1  0
 14 36  1  0
 14 37  1  0
M  CHG  1  12   1
M  END
>  <EmbedRMS>  (74) 
0.22880006867790334

$$$$

     RDKit          3D

 47 48  0  0  0  0  0  0  0  0999 V2000
    3.3550    7.5261    0.2387 C   0  0  0  0  0  0  0  0  0  0  0  0
    3.7591    7.6796    1.6740 C   0  0  0  0  0  0  0  0  0  0  0  0
    3.4093    6.6971    2.6112 C   0  0  0  0  0  0  0  0  0  0  0  0
    3.8066    6.8249    3.9436 C   0  0  0  0  0  0  0  0  0  0  0  0
    4.5708    7.9221    4.3466 C   0  0  0  0  0  0  0  0  0  0  0  0
    4.9400    8.9082    3.4207 C   0  0  0  0  0  0  0  0  0  0  0  0
    5.8031   10.0620    3.8692 C   0  0  0  0  0  0  0  0  0  0  0  0
    7.2179    9.6630    3.9265 N   0  0  0  0  0  0  0  0  0  0  0  0
    7.9878    9.5377    2.7183 C   0  0  0  0  0  0  0  0  0  0  0  0
    7.4195    9.7037    1.6128 O   0  0  0  0  0  0  0  0  0  0  0  0
    9.4506    9.2137    2.6347 C   0  0  0  0  0  0  0  0  0  0  0  0
    9.7340    7.7427    2.3734 C   0  0  0  0  0  0  0  0  0  0  0  0
   11.1976    7.3493    2.5402 C   0  0  0  0  0  0  0  0  0  0  0  0
   12.1819    8.5080    2.2955 C   0  0  0  0  0  0  0  0  0  0  0  0
   13.6459    7.9624    2.3850 C   0  0  0  0  0  0  0  0  0  0  0  0
   14.0279    7.2300    1.0859 C   0  0  0  0  0  0  0  0  0  0  0  0
   14.6271    9.0243    2.6471 N   0  0  0  0  0  4  0  0  0  0  0  0
   11.8957    9.6374    3.3177 C   0  0  0  0  0  0  0  0  0  0  0  0
   10.4177   10.0733    3.4266 C   0  0  0  0  0  0  0  0  0  0  0  0
    4.5324    8.7801    2.0799 C   0  0  0  0  0  0  0  0  0  0  0  0
    3.2257    8.5199   -0.2406 H   0  0  0  0  0  0  0  0  0  0  0  0
    4.1392    6.9607   -0.3066 H   0  0  0  0  0  0  0  0  0  0  0  0
    2.3914    6.9791    0.1583 H   0  0  0  0  0  0  0  0  0  0  0  0
    2.8281    5.8337    2.3113 H   0  0  0  0  0  0  0  0  0  0  0  0
    3.5310    6.0656    4.6641 H   0  0  0  0  0  0  0  0  0  0  0  0
    4.8834    7.9981    5.3809 H   0  0  0  0  0  0  0  0  0  0  0  0
    5.4772   10.3905    4.8801 H   0  0  0  0  0  0  0  0  0  0  0  0
    5.6805   10.9383    3.1956 H   0  0  0  0  0  0  0  0  0  0  0  0
    7.6767    9.5107    4.8522 H   0  0  0  0  0  0  0  0  0  0  0  0
    9.7114    9.6194    1.6251 H   0  0  0  0  0  0  0  0  0  0  0  0
    9.1282    7.1304    3.0776 H   0  0  0  0  0  0  0  0  0  0  0  0
    9.3937    7.4684    1.3478 H   0  0  0  0  0  0  0  0  0  0  0  0
   11.3436    6.9693    3.5766 H   0  0  0  0  0  0  0  0  0  0  0  0
   11.3979    6.4993    1.8571 H   0  0  0  0  0  0  0  0  0  0  0  0
   12.0116    8.9214    1.2757 H   0  0  0  0  0  0  0  0  0  0  0  0
   13.7142    7.2275    3.2200 H   0  0  0  0  0  0  0  0  0  0  0  0
   13.9578    7.9167    0.2154 H   0  0  0  0  0  0  0  0  0  0  0  0
   13.3807    6.3497    0.9044 H   0  0  0  0  0  0  0  0  0  0  0  0
   15.0712    6.8547    1.1520 H   0  0  0  0  0  0  0  0  0  0  0  0
   14.5143    9.3994    3.6160 H   0  0  0  0  0  0  0  0  0  0  0  0
   14.5262    9.7975    1.9495 H   0  0  0  0  0  0  0  0  0  0  0  0
   15.5988    8.6418    2.5850 H   0  0  0  0  0  0  0  0  0  0  0  0
   12.2339    9.3016    4.3236 H   0  0  0  0  0  0  0  0  0  0  0  0
   12.4948   10.5349    3.0515 H   0  0  0  0  0  0  0  0  0  0  0  0
   10.1188   10.0277    4.4963 H   0  0  0  0  0  0  0  0  0  0  0  0
   10.3156   11.1402    3.1210 H   0  0  0  0  0  0  0  0  0  0  0  0
    4.8107    9.5360    1.3560 H   0  0  0  0  0  0  0  0  0  0  0  0
  1  2  1  0
  2  3  2  0
  3  4  1  0
  4  5  2  0
  5  6  1  0
  6  7  1  0
  7  8  1  0
  8  9  1  0
  9 10  2  0
  9 11  1  0
 11 12  1  0
 12 13  1  0
 13 14  1  0
 14 15  1  0
 15 16  1  0
 15 17  1  0
 14 18  1  0
 18 19  1  0
  6 20  2  0
 20  2  1  0
 19 11  1  0
  1 21  1  0
  1 22  1  0
  1 23  1  0
  3 24  1  0
  4 25  1  0
  5 26  1  0
  7 27  1  0
  7 28  1  0
  8 29  1  0
 11 30  1  0
 12 31  1  0
 12 32  1  0
 13 33  1  0
 13 34  1  0
 14 35  1  0
 15 36  1  0
 16 37  1  0
 16 38  1  0
 16 39  1  0
 17 40  1  0
 17 41  1  0
 17 42  1  0
 18 43  1  0
 18 44  1  0
 19 45  1  0
 19 46  1  0
 20 47  1  0
M  CHG  1  17   1
M  END
>  <EmbedRMS>  (75) 
0.16810927383701896

$$$$

     RDKit          3D

 47 48  0  0  0  0  0  0  0  0999 V2000
   14.0589    7.2216    1.1045 C   0  0  0  0  0  0  0  0  0  0  0  0
   13.6602    7.9579    2.3990 C   0  0  0  0  0  0  0  0  0  0  0  0
   14.6350    9.0216    2.6692 N   0  0  0  0  0  4  0  0  0  0  0  0
   12.2104    8.5084    2.2750 C   0  0  0  0  0  0  0  0  0  0  0  0
   11.2046    7.3527    2.4446 C   0  0  0  0  0  0  0  0  0  0  0  0
    9.7985    7.8434    2.1686 C   0  0  0  0  0  0  0  0  0  0  0  0
    9.4324    8.9578    3.1516 C   0  0  0  0  0  0  0  0  0  0  0  0
    8.0387    9.3978    2.8803 C   0  0  0  0  0  0  0  0  0  0  0  0
    7.6537    9.5262    1.6810 O   0  0  0  0  0  0  0  0  0  0  0  0
    7.1448    9.6352    3.9835 N   0  0  0  0  0  0  0  0  0  0  0  0
    5.8206   10.2265    3.8221 C   0  0  0  0  0  0  0  0  0  0  0  0
    4.8839    9.3137    3.0232 C   0  0  0  0  0  0  0  0  0  0  0  0
    4.2672   10.1783    1.9189 C   0  0  0  0  0  0  0  0  0  0  0  0
    4.7493   11.6151    2.1208 C   0  0  0  0  0  0  0  0  0  0  0  0
    5.9448   11.5047    3.0072 C   0  0  0  0  0  0  0  0  0  0  0  0
    6.6016   12.6863    3.6679 C   0  0  0  0  0  0  0  0  0  0  0  0
   10.4226   10.1321    3.0701 C   0  0  0  0  0  0  0  0  0  0  0  0
   11.8643    9.6384    3.2784 C   0  0  0  0  0  0  0  0  0  0  0  0
   13.4366    6.3221    0.9317 H   0  0  0  0  0  0  0  0  0  0  0  0
   15.1099    6.8698    1.1762 H   0  0  0  0  0  0  0  0  0  0  0  0
   13.9788    7.8965    0.2256 H   0  0  0  0  0  0  0  0  0  0  0  0
   13.7072    7.2282    3.2398 H   0  0  0  0  0  0  0  0  0  0  0  0
   14.5000    9.4019    3.6335 H   0  0  0  0  0  0  0  0  0  0  0  0
   15.6078    8.6387    2.6305 H   0  0  0  0  0  0  0  0  0  0  0  0
   14.5478    9.7898    1.9641 H   0  0  0  0  0  0  0  0  0  0  0  0
   12.0929    8.9381    1.2533 H   0  0  0  0  0  0  0  0  0  0  0  0
   11.2658    6.9306    3.4728 H   0  0  0  0  0  0  0  0  0  0  0  0
   11.4103    6.5307    1.7307 H   0  0  0  0  0  0  0  0  0  0  0  0
    9.0925    6.9913    2.2872 H   0  0  0  0  0  0  0  0  0  0  0  0
    9.7370    8.2005    1.1156 H   0  0  0  0  0  0  0  0  0  0  0  0
    9.4771    8.5358    4.1813 H   0  0  0  0  0  0  0  0  0  0  0  0
    7.4836    9.4642    4.9571 H   0  0  0  0  0  0  0  0  0  0  0  0
    5.3747   10.4532    4.8166 H   0  0  0  0  0  0  0  0  0  0  0  0
    5.4158    8.4438    2.5797 H   0  0  0  0  0  0  0  0  0  0  0  0
    4.0853    8.9204    3.6895 H   0  0  0  0  0  0  0  0  0  0  0  0
    3.1567   10.1299    1.9484 H   0  0  0  0  0  0  0  0  0  0  0  0
    4.6098    9.8112    0.9264 H   0  0  0  0  0  0  0  0  0  0  0  0
    4.9611   12.1193    1.1495 H   0  0  0  0  0  0  0  0  0  0  0  0
    3.9641   12.1939    2.6545 H   0  0  0  0  0  0  0  0  0  0  0  0
    6.6945   11.3875    2.2207 H   0  0  0  0  0  0  0  0  0  0  0  0
    5.9713   13.0304    4.5144 H   0  0  0  0  0  0  0  0  0  0  0  0
    7.6056   12.4140    4.0613 H   0  0  0  0  0  0  0  0  0  0  0  0
    6.7098   13.5289    2.9498 H   0  0  0  0  0  0  0  0  0  0  0  0
   10.3428   10.6293    2.0776 H   0  0  0  0  0  0  0  0  0  0  0  0
   10.1770   10.8830    3.8526 H   0  0  0  0  0  0  0  0  0  0  0  0
   11.9906    9.2743    4.3219 H   0  0  0  0  0  0  0  0  0  0  0  0
   12.5343   10.5109    3.1279 H   0  0  0  0  0  0  0  0  0  0  0  0
  1  2  1  0
  2  3  1  0
  2  4  1  0
  4  5  1  0
  5  6  1  0
  6  7  1  0
  7  8  1  0
  8  9  2  0
  8 10  1  0
 10 11  1  0
 11 12  1  0
 12 13  1  0
 13 14  1  0
 14 15  1  0
 15 16  1  0
  7 17  1  0
 17 18  1  0
 18  4  1  0
 15 11  1  0
  1 19  1  0
  1 20  1  0
  1 21  1  0
  2 22  1  0
  3 23  1  0
  3 24  1  0
  3 25  1  0
  4 26  1  0
  5 27  1  0
  5 28  1  0
  6 29  1  0
  6 30  1  0
  7 31  1  0
 10 32  1  0
 11 33  1  0
 12 34  1  0
 12 35  1  0
 13 36  1  0
 13 37  1  0
 14 38  1  0
 14 39  1  0
 15 40  1  0
 16 41  1  0
 16 42  1  0
 16 43  1  0
 17 44  1  0
 17 45  1  0
 18 46  1  0
 18 47  1  0
M  CHG  1   3   1
M  END
>  <EmbedRMS>  (76) 
0.19421576803170287

$$$$

     RDKit          3D

 48 48  0  0  0  0  0  0  0  0999 V2000
    8.5373   13.1695    3.8306 C   0  0  0  0  0  0  0  0  0  0  0  0
    7.0863   13.6042    3.9396 C   0  0  0  0  0  0  0  0  0  0  0  0
    6.2589   12.5014    4.4685 N   0  0  0  0  0  0  0  0  0  0  0  0
    5.1246   13.0646    5.2166 C   0  0  0  0  0  0  0  0  0  0  0  0
    5.7577   11.6370    3.3765 C   0  0  0  0  0  0  0  0  0  0  0  0
    5.7704   10.1721    3.8108 C   0  0  0  0  0  0  0  0  0  0  0  0
    7.1409    9.7002    3.9796 N   0  0  0  0  0  0  0  0  0  0  0  0
    8.0133    9.4624    2.8671 C   0  0  0  0  0  0  0  0  0  0  0  0
    7.6127    9.6724    1.6873 O   0  0  0  0  0  0  0  0  0  0  0  0
    9.4172    8.9782    3.1126 C   0  0  0  0  0  0  0  0  0  0  0  0
    9.8038    7.9239    2.0788 C   0  0  0  0  0  0  0  0  0  0  0  0
   11.1601    7.3093    2.3902 C   0  0  0  0  0  0  0  0  0  0  0  0
   12.2789    8.3150    2.7704 C   0  0  0  0  0  0  0  0  0  0  0  0
   13.5834    8.3528    1.9515 C   0  0  0  0  0  0  0  0  0  0  0  0
   13.9877    7.0946    1.1845 C   0  0  0  0  0  0  0  0  0  0  0  0
   14.7127    8.8820    2.7287 N   0  0  0  0  0  4  0  0  0  0  0  0
   11.8409    9.7118    3.3005 C   0  0  0  0  0  0  0  0  0  0  0  0
   10.4011   10.1400    3.0334 C   0  0  0  0  0  0  0  0  0  0  0  0
    8.6400   12.4416    3.0015 H   0  0  0  0  0  0  0  0  0  0  0  0
    8.8759   12.7165    4.7865 H   0  0  0  0  0  0  0  0  0  0  0  0
    9.1770   14.0478    3.6014 H   0  0  0  0  0  0  0  0  0  0  0  0
    7.0765   14.4785    4.6310 H   0  0  0  0  0  0  0  0  0  0  0  0
    6.7141   13.9716    2.9557 H   0  0  0  0  0  0  0  0  0  0  0  0
    4.4552   12.2538    5.5765 H   0  0  0  0  0  0  0  0  0  0  0  0
    5.4925   13.6004    6.1182 H   0  0  0  0  0  0  0  0  0  0  0  0
    4.5338   13.7700    4.5891 H   0  0  0  0  0  0  0  0  0  0  0  0
    6.3730   11.7345    2.4557 H   0  0  0  0  0  0  0  0  0  0  0  0
    4.7229   11.9128    3.0672 H   0  0  0  0  0  0  0  0  0  0  0  0
    5.2175   10.0601    4.7682 H   0  0  0  0  0  0  0  0  0  0  0  0
    5.2534    9.5484    3.0497 H   0  0  0  0  0  0  0  0  0  0  0  0
    7.4772    9.4934    4.9471 H   0  0  0  0  0  0  0  0  0  0  0  0
    9.4703    8.5224    4.1271 H   0  0  0  0  0  0  0  0  0  0  0  0
    9.8405    8.3761    1.0620 H   0  0  0  0  0  0  0  0  0  0  0  0
    9.0397    7.1147    2.0606 H   0  0  0  0  0  0  0  0  0  0  0  0
   11.0032    6.5918    3.2294 H   0  0  0  0  0  0  0  0  0  0  0  0
   11.4428    6.6818    1.5251 H   0  0  0  0  0  0  0  0  0  0  0  0
   12.6597    7.8298    3.7005 H   0  0  0  0  0  0  0  0  0  0  0  0
   13.3829    9.0955    1.1452 H   0  0  0  0  0  0  0  0  0  0  0  0
   15.0043    7.2081    0.7516 H   0  0  0  0  0  0  0  0  0  0  0  0
   13.9909    6.2179    1.8662 H   0  0  0  0  0  0  0  0  0  0  0  0
   13.2974    6.9059    0.3358 H   0  0  0  0  0  0  0  0  0  0  0  0
   14.4933    9.7904    3.1913 H   0  0  0  0  0  0  0  0  0  0  0  0
   15.5318    9.0485    2.0994 H   0  0  0  0  0  0  0  0  0  0  0  0
   14.9941    8.1908    3.4617 H   0  0  0  0  0  0  0  0  0  0  0  0
   12.0027    9.7496    4.4026 H   0  0  0  0  0  0  0  0  0  0  0  0
   12.4744   10.5184    2.8753 H   0  0  0  0  0  0  0  0  0  0  0  0
   10.1307   10.8982    3.7950 H   0  0  0  0  0  0  0  0  0  0  0  0
   10.3395   10.6184    2.0295 H   0  0  0  0  0  0  0  0  0  0  0  0
  1  2  1  0
  2  3  1  0
  3  4  1  0
  3  5  1  0
  5  6  1  0
  6  7  1  0
  7  8  1  0
  8  9  2  0
  8 10  1  0
 10 11  1  0
 11 12  1  0
 12 13  1  0
 13 14  1  0
 14 15  1  0
 14 16  1  0
 13 17  1  0
 17 18  1  0
 18 10  1  0
  1 19  1  0
  1 20  1  0
  1 21  1  0
  2 22  1  0
  2 23  1  0
  4 24  1  0
  4 25  1  0
  4 26  1  0
  5 27  1  0
  5 28  1  0
  6 29  1  0
  6 30  1  0
  7 31  1  0
 10 32  1  0
 11 33  1  0
 11 34  1  0
 12 35  1  0
 12 36  1  0
 13 37  1  0
 14 38  1  0
 15 39  1  0
 15 40  1  0
 15 41  1  0
 16 42  1  0
 16 43  1  0
 16 44  1  0
 17 45  1  0
 17 46  1  0
 18 47  1  0
 18 48  1  0
M  CHG  1  16   1
M  END
>  <EmbedRMS>  (77) 
0.20452304749766187

$$$$

     RDKit          3D

 44 44  0  0  0  0  0  0  0  0999 V2000
   13.9344    7.3325    1.0251 C   0  0  0  0  0  0  0  0  0  0  0  0
   13.7124    7.9143    2.4293 C   0  0  0  0  0  0  0  0  0  0  0  0
   14.6504    9.0161    2.6726 N   0  0  0  0  0  4  0  0  0  0  0  0
   12.2357    8.2978    2.7953 C   0  0  0  0  0  0  0  0  0  0  0  0
   11.1506    7.3136    2.3192 C   0  0  0  0  0  0  0  0  0  0  0  0
    9.7889    7.9336    2.0719 C   0  0  0  0  0  0  0  0  0  0  0  0
    9.4291    8.9809    3.1175 C   0  0  0  0  0  0  0  0  0  0  0  0
    8.0244    9.4610    2.8767 C   0  0  0  0  0  0  0  0  0  0  0  0
    7.6190    9.6840    1.6996 O   0  0  0  0  0  0  0  0  0  0  0  0
    7.1616    9.6889    3.9915 N   0  0  0  0  0  0  0  0  0  0  0  0
    5.7855   10.1247    3.8210 C   0  0  0  0  0  0  0  0  0  0  0  0
    4.7423    8.9630    3.8122 C   0  0  0  0  0  0  0  0  0  0  0  0
    4.1166    8.8214    5.1831 C   0  0  0  0  0  0  0  0  0  0  0  0
    4.2843    8.6567    2.4010 C   0  0  0  0  0  0  0  0  0  0  0  0
    5.0987    7.7653    3.9177 O   0  0  0  0  0  0  0  0  0  0  0  0
   10.3977   10.1666    3.0612 C   0  0  0  0  0  0  0  0  0  0  0  0
   11.8890    9.7883    2.9936 C   0  0  0  0  0  0  0  0  0  0  0  0
   13.5401    6.2970    0.9555 H   0  0  0  0  0  0  0  0  0  0  0  0
   15.0186    7.2763    0.7900 H   0  0  0  0  0  0  0  0  0  0  0  0
   13.4422    7.9745    0.2641 H   0  0  0  0  0  0  0  0  0  0  0  0
   14.0100    7.0843    3.1149 H   0  0  0  0  0  0  0  0  0  0  0  0
   14.5109    9.7861    1.9796 H   0  0  0  0  0  0  0  0  0  0  0  0
   15.6337    8.6698    2.5833 H   0  0  0  0  0  0  0  0  0  0  0  0
   14.5428    9.3801    3.6466 H   0  0  0  0  0  0  0  0  0  0  0  0
   12.2392    8.0286    3.8800 H   0  0  0  0  0  0  0  0  0  0  0  0
   11.0353    6.4797    3.0507 H   0  0  0  0  0  0  0  0  0  0  0  0
   11.4346    6.8309    1.3657 H   0  0  0  0  0  0  0  0  0  0  0  0
    9.7931    8.4028    1.0615 H   0  0  0  0  0  0  0  0  0  0  0  0
    9.0236    7.1252    2.0640 H   0  0  0  0  0  0  0  0  0  0  0  0
    9.4921    8.5093    4.1239 H   0  0  0  0  0  0  0  0  0  0  0  0
    7.5013    9.4861    4.9588 H   0  0  0  0  0  0  0  0  0  0  0  0
    5.5537   10.8434    4.6375 H   0  0  0  0  0  0  0  0  0  0  0  0
    5.6953   10.7432    2.9009 H   0  0  0  0  0  0  0  0  0  0  0  0
    4.8622    8.6933    6.0088 H   0  0  0  0  0  0  0  0  0  0  0  0
    3.3169    8.0378    5.2516 H   0  0  0  0  0  0  0  0  0  0  0  0
    3.5776    9.7669    5.4063 H   0  0  0  0  0  0  0  0  0  0  0  0
    3.4915    7.8674    2.3375 H   0  0  0  0  0  0  0  0  0  0  0  0
    5.1205    8.4243    1.6954 H   0  0  0  0  0  0  0  0  0  0  0  0
    3.7922    9.5686    2.0007 H   0  0  0  0  0  0  0  0  0  0  0  0
    6.0784    7.6314    3.8034 H   0  0  0  0  0  0  0  0  0  0  0  0
   10.1562   10.7885    2.1686 H   0  0  0  0  0  0  0  0  0  0  0  0
   10.2230   10.8125    3.9502 H   0  0  0  0  0  0  0  0  0  0  0  0
   12.3172   10.3454    2.1334 H   0  0  0  0  0  0  0  0  0  0  0  0
   12.3955   10.1922    3.9001 H   0  0  0  0  0  0  0  0  0  0  0  0
  1  2  1  0
  2  3  1  0
  2  4  1  0
  4  5  1  0
  5  6  1  0
  6  7  1  0
  7  8  1  0
  8  9  2  0
  8 10  1  0
 10 11  1  0
 11 12  1  0
 12 13  1  0
 12 14  1  0
 12 15  1  0
  7 16  1  0
 16 17  1  0
 17  4  1  0
  1 18  1  0
  1 19  1  0
  1 20  1  0
  2 21  1  0
  3 22  1  0
  3 23  1  0
  3 24  1  0
  4 25  1  0
  5 26  1  0
  5 27  1  0
  6 28  1  0
  6 29  1  0
  7 30  1  0
 10 31  1  0
 11 32  1  0
 11 33  1  0
 13 34  1  0
 13 35  1  0
 13 36  1  0
 14 37  1  0
 14 38  1  0
 14 39  1  0
 15 40  1  0
 16 41  1  0
 16 42  1  0
 17 43  1  0
 17 44  1  0
M  CHG  1   3   1
M  END
>  <EmbedRMS>  (78) 
0.6861464654853324

$$$$

     RDKit          3D

 48 48  0  0  0  0  0  0  0  0999 V2000
    4.8915   13.3074   -0.6287 C   0  0  0  0  0  0  0  0  0  0  0  0
    5.9776   13.0507    0.4086 C   0  0  0  0  0  0  0  0  0  0  0  0
    5.3579   12.5533    1.7080 C   0  0  0  0  0  0  0  0  0  0  0  0
    6.4036   12.3026    2.7032 N   0  0  0  0  0  0  0  0  0  0  0  0
    5.8116   11.7333    3.9200 C   0  0  0  0  0  0  0  0  0  0  0  0
    5.7860   10.2073    3.8470 C   0  0  0  0  0  0  0  0  0  0  0  0
    7.1366    9.6757    3.9898 N   0  0  0  0  0  0  0  0  0  0  0  0
    8.0105    9.4654    2.8768 C   0  0  0  0  0  0  0  0  0  0  0  0
    7.6077    9.6907    1.6997 O   0  0  0  0  0  0  0  0  0  0  0  0
    9.4201    8.9849    3.1181 C   0  0  0  0  0  0  0  0  0  0  0  0
    9.7831    7.9365    2.0731 C   0  0  0  0  0  0  0  0  0  0  0  0
   11.1462    7.3163    2.3190 C   0  0  0  0  0  0  0  0  0  0  0  0
   12.2321    8.2994    2.7953 C   0  0  0  0  0  0  0  0  0  0  0  0
   13.7095    7.9154    2.4297 C   0  0  0  0  0  0  0  0  0  0  0  0
   13.9324    7.3325    1.0260 C   0  0  0  0  0  0  0  0  0  0  0  0
   14.6477    9.0170    2.6729 N   0  0  0  0  0  4  0  0  0  0  0  0
   11.8844    9.7897    2.9954 C   0  0  0  0  0  0  0  0  0  0  0  0
   10.3919   10.1689    3.0610 C   0  0  0  0  0  0  0  0  0  0  0  0
    5.3569   13.6692   -1.5696 H   0  0  0  0  0  0  0  0  0  0  0  0
    4.3344   12.3715   -0.8479 H   0  0  0  0  0  0  0  0  0  0  0  0
    4.1823   14.0816   -0.2653 H   0  0  0  0  0  0  0  0  0  0  0  0
    6.5355   13.9946    0.5930 H   0  0  0  0  0  0  0  0  0  0  0  0
    6.6866   12.2888    0.0173 H   0  0  0  0  0  0  0  0  0  0  0  0
    4.6443   13.3210    2.0876 H   0  0  0  0  0  0  0  0  0  0  0  0
    4.7950   11.6173    1.4970 H   0  0  0  0  0  0  0  0  0  0  0  0
    6.8251   13.2269    2.9588 H   0  0  0  0  0  0  0  0  0  0  0  0
    6.4182   12.0330    4.8044 H   0  0  0  0  0  0  0  0  0  0  0  0
    4.7815   12.1178    4.1022 H   0  0  0  0  0  0  0  0  0  0  0  0
    5.3175    9.8464    2.9071 H   0  0  0  0  0  0  0  0  0  0  0  0
    5.1651    9.8266    4.6866 H   0  0  0  0  0  0  0  0  0  0  0  0
    7.4866    9.4806    4.9551 H   0  0  0  0  0  0  0  0  0  0  0  0
    9.4833    8.5141    4.1248 H   0  0  0  0  0  0  0  0  0  0  0  0
    9.0185    7.1275    2.0651 H   0  0  0  0  0  0  0  0  0  0  0  0
    9.7860    8.4054    1.0626 H   0  0  0  0  0  0  0  0  0  0  0  0
   11.0317    6.4812    3.0491 H   0  0  0  0  0  0  0  0  0  0  0  0
   11.4299    6.8353    1.3644 H   0  0  0  0  0  0  0  0  0  0  0  0
   12.2353    8.0293    3.8797 H   0  0  0  0  0  0  0  0  0  0  0  0
   14.0065    7.0857    3.1159 H   0  0  0  0  0  0  0  0  0  0  0  0
   13.5360    6.2979    0.9564 H   0  0  0  0  0  0  0  0  0  0  0  0
   13.4424    7.9752    0.2641 H   0  0  0  0  0  0  0  0  0  0  0  0
   15.0169    7.2742    0.7926 H   0  0  0  0  0  0  0  0  0  0  0  0
   14.5394    9.3818    3.6465 H   0  0  0  0  0  0  0  0  0  0  0  0
   15.6310    8.6705    2.5844 H   0  0  0  0  0  0  0  0  0  0  0  0
   14.5085    9.7867    1.9794 H   0  0  0  0  0  0  0  0  0  0  0  0
   12.3143   10.3484    2.1371 H   0  0  0  0  0  0  0  0  0  0  0  0
   12.3893   10.1921    3.9034 H   0  0  0  0  0  0  0  0  0  0  0  0
   10.1511   10.7893    2.1673 H   0  0  0  0  0  0  0  0  0  0  0  0
   10.2165   10.8170    3.9483 H   0  0  0  0  0  0  0  0  0  0  0  0
  1  2  1  0
  2  3  1  0
  3  4  1  0
  4  5  1  0
  5  6  1  0
  6  7  1  0
  7  8  1  0
  8  9  2  0
  8 10  1  0
 10 11  1  0
 11 12  1  0
 12 13  1  0
 13 14  1  0
 14 15  1  0
 14 16  1  0
 13 17  1  0
 17 18  1  0
 18 10  1  0
  1 19  1  0
  1 20  1  0
  1 21  1  0
  2 22  1  0
  2 23  1  0
  3 24  1  0
  3 25  1  0
  4 26  1  0
  5 27  1  0
  5 28  1  0
  6 29  1  0
  6 30  1  0
  7 31  1  0
 10 32  1  0
 11 33  1  0
 11 34  1  0
 12 35  1  0
 12 36  1  0
 13 37  1  0
 14 38  1  0
 15 39  1  0
 15 40  1  0
 15 41  1  0
 16 42  1  0
 16 43  1  0
 16 44  1  0
 17 45  1  0
 17 46  1  0
 18 47  1  0
 18 48  1  0
M  CHG  1  16   1
M  END
>  <EmbedRMS>  (79) 
0.16499967102600221

$$$$

     RDKit          3D

 40 40  0  0  0  0  0  0  0  0999 V2000
    4.7996    8.8875    5.7514 C   0  0  0  0  0  0  0  0  0  0  0  0
    5.0467   10.2639    5.1374 C   0  0  0  0  0  0  0  0  0  0  0  0
    5.7665   10.1567    3.7915 C   0  0  0  0  0  0  0  0  0  0  0  0
    7.1428    9.7130    3.9787 N   0  0  0  0  0  0  0  0  0  0  0  0
    8.0146    9.4652    2.8756 C   0  0  0  0  0  0  0  0  0  0  0  0
    7.6236    9.6740    1.6923 O   0  0  0  0  0  0  0  0  0  0  0  0
    9.4117    8.9838    3.1514 C   0  0  0  0  0  0  0  0  0  0  0  0
    9.7887    7.8242    2.2110 C   0  0  0  0  0  0  0  0  0  0  0  0
   11.2406    7.3770    2.4518 C   0  0  0  0  0  0  0  0  0  0  0  0
   12.1580    8.5898    2.2119 C   0  0  0  0  0  0  0  0  0  0  0  0
   13.6694    8.3363    1.9396 C   0  0  0  0  0  0  0  0  0  0  0  0
   14.0282    7.0396    1.2342 C   0  0  0  0  0  0  0  0  0  0  0  0
   14.6135    8.7686    2.9623 N   0  0  0  0  0  4  0  0  0  0  0  0
   11.8558    9.6805    3.2543 C   0  0  0  0  0  0  0  0  0  0  0  0
   10.4065   10.1585    3.0871 C   0  0  0  0  0  0  0  0  0  0  0  0
    5.7572    8.3688    5.9654 H   0  0  0  0  0  0  0  0  0  0  0  0
    4.2454    9.0044    6.7064 H   0  0  0  0  0  0  0  0  0  0  0  0
    4.1898    8.2616    5.0655 H   0  0  0  0  0  0  0  0  0  0  0  0
    4.0659   10.7624    4.9797 H   0  0  0  0  0  0  0  0  0  0  0  0
    5.6383   10.8902    5.8402 H   0  0  0  0  0  0  0  0  0  0  0  0
    5.7713   11.1553    3.3036 H   0  0  0  0  0  0  0  0  0  0  0  0
    5.2272    9.4458    3.1277 H   0  0  0  0  0  0  0  0  0  0  0  0
    7.5227    9.5975    4.9460 H   0  0  0  0  0  0  0  0  0  0  0  0
    9.4460    8.5780    4.1877 H   0  0  0  0  0  0  0  0  0  0  0  0
    9.1131    6.9617    2.4015 H   0  0  0  0  0  0  0  0  0  0  0  0
    9.6593    8.1232    1.1467 H   0  0  0  0  0  0  0  0  0  0  0  0
   11.3694    6.9867    3.4850 H   0  0  0  0  0  0  0  0  0  0  0  0
   11.4634    6.5566    1.7393 H   0  0  0  0  0  0  0  0  0  0  0  0
   11.8029    9.0089    1.2373 H   0  0  0  0  0  0  0  0  0  0  0  0
   13.8833    9.0581    1.1114 H   0  0  0  0  0  0  0  0  0  0  0  0
   15.0833    7.0602    0.8857 H   0  0  0  0  0  0  0  0  0  0  0  0
   13.3773    6.8823    0.3472 H   0  0  0  0  0  0  0  0  0  0  0  0
   13.9078    6.1866    1.9345 H   0  0  0  0  0  0  0  0  0  0  0  0
   15.5897    8.5020    2.6974 H   0  0  0  0  0  0  0  0  0  0  0  0
   14.5964    9.8059    3.0880 H   0  0  0  0  0  0  0  0  0  0  0  0
   14.3778    8.3021    3.8677 H   0  0  0  0  0  0  0  0  0  0  0  0
   12.5089   10.5640    3.0952 H   0  0  0  0  0  0  0  0  0  0  0  0
   12.0205    9.2944    4.2841 H   0  0  0  0  0  0  0  0  0  0  0  0
   10.1719   10.8879    3.8931 H   0  0  0  0  0  0  0  0  0  0  0  0
   10.3038   10.6871    2.1128 H   0  0  0  0  0  0  0  0  0  0  0  0
  1  2  1  0
  2  3  1  0
  3  4  1  0
  4  5  1  0
  5  6  2  0
  5  7  1  0
  7  8  1  0
  8  9  1  0
  9 10  1  0
 10 11  1  0
 11 12  1  0
 11 13  1  0
 10 14  1  0
 14 15  1  0
 15  7  1  0
  1 16  1  0
  1 17  1  0
  1 18  1  0
  2 19  1  0
  2 20  1  0
  3 21  1  0
  3 22  1  0
  4 23  1  0
  7 24  1  0
  8 25  1  0
  8 26  1  0
  9 27  1  0
  9 28  1  0
 10 29  1  0
 11 30  1  0
 12 31  1  0
 12 32  1  0
 12 33  1  0
 13 34  1  0
 13 35  1  0
 13 36  1  0
 14 37  1  0
 14 38  1  0
 15 39  1  0
 15 40  1  0
M  CHG  1  13   1
M  END
>  <EmbedRMS>  (80) 
0.2000484947854372

$$$$

     RDKit          3D

 48 48  0  0  0  0  0  0  0  0999 V2000
    4.8915   13.3074   -0.6287 C   0  0  0  0  0  0  0  0  0  0  0  0
    5.9776   13.0507    0.4086 C   0  0  0  0  0  0  0  0  0  0  0  0
    5.3579   12.5533    1.7080 C   0  0  0  0  0  0  0  0  0  0  0  0
    6.4036   12.3026    2.7032 N   0  0  0  0  0  0  0  0  0  0  0  0
    5.8116   11.7333    3.9200 C   0  0  0  0  0  0  0  0  0  0  0  0
    5.7860   10.2073    3.8470 C   0  0  0  0  0  0  0  0  0  0  0  0
    7.1366    9.6757    3.9898 N   0  0  0  0  0  0  0  0  0  0  0  0
    8.0105    9.4654    2.8768 C   0  0  0  0  0  0  0  0  0  0  0  0
    7.6077    9.6907    1.6997 O   0  0  0  0  0  0  0  0  0  0  0  0
    9.4201    8.9849    3.1181 C   0  0  0  0  0  0  0  0  0  0  0  0
    9.7831    7.9365    2.0731 C   0  0  0  0  0  0  0  0  0  0  0  0
   11.1462    7.3163    2.3190 C   0  0  0  0  0  0  0  0  0  0  0  0
   12.2321    8.2994    2.7953 C   0  0  0  0  0  0  0  0  0  0  0  0
   13.7095    7.9154    2.4297 C   0  0  0  0  0  0  0  0  0  0  0  0
   13.9324    7.3325    1.0260 C   0  0  0  0  0  0  0  0  0  0  0  0
   14.6477    9.0170    2.6729 N   0  0  0  0  0  4  0  0  0  0  0  0
   11.8844    9.7897    2.9954 C   0  0  0  0  0  0  0  0  0  0  0  0
   10.3919   10.1689    3.0610 C   0  0  0  0  0  0  0  0  0  0  0  0
    5.3569   13.6692   -1.5696 H   0  0  0  0  0  0  0  0  0  0  0  0
    4.3344   12.3715   -0.8479 H   0  0  0  0  0  0  0  0  0  0  0  0
    4.1823   14.0816   -0.2653 H   0  0  0  0  0  0  0  0  0  0  0  0
    6.5355   13.9946    0.5930 H   0  0  0  0  0  0  0  0  0  0  0  0
    6.6866   12.2888    0.0173 H   0  0  0  0  0  0  0  0  0  0  0  0
    4.6443   13.3210    2.0876 H   0  0  0  0  0  0  0  0  0  0  0  0
    4.7950   11.6173    1.4970 H   0  0  0  0  0  0  0  0  0  0  0  0
    6.8251   13.2269    2.9588 H   0  0  0  0  0  0  0  0  0  0  0  0
    6.4182   12.0330    4.8044 H   0  0  0  0  0  0  0  0  0  0  0  0
    4.7815   12.1178    4.1022 H   0  0  0  0  0  0  0  0  0  0  0  0
    5.3175    9.8464    2.9071 H   0  0  0  0  0  0  0  0  0  0  0  0
    5.1651    9.8266    4.6866 H   0  0  0  0  0  0  0  0  0  0  0  0
    7.4866    9.4806    4.9551 H   0  0  0  0  0  0  0  0  0  0  0  0
    9.4833    8.5141    4.1248 H   0  0  0  0  0  0  0  0  0  0  0  0
    9.0185    7.1275    2.0651 H   0  0  0  0  0  0  0  0  0  0  0  0
    9.7860    8.4054    1.0626 H   0  0  0  0  0  0  0  0  0  0  0  0
   11.0317    6.4812    3.0491 H   0  0  0  0  0  0  0  0  0  0  0  0
   11.4299    6.8353    1.3644 H   0  0  0  0  0  0  0  0  0  0  0  0
   12.2353    8.0293    3.8797 H   0  0  0  0  0  0  0  0  0  0  0  0
   14.0065    7.0857    3.1159 H   0  0  0  0  0  0  0  0  0  0  0  0
   13.5360    6.2979    0.9564 H   0  0  0  0  0  0  0  0  0  0  0  0
   13.4424    7.9752    0.2641 H   0  0  0  0  0  0  0  0  0  0  0  0
   15.0169    7.2742    0.7926 H   0  0  0  0  0  0  0  0  0  0  0  0
   14.5394    9.3818    3.6465 H   0  0  0  0  0  0  0  0  0  0  0  0
   15.6310    8.6705    2.5844 H   0  0  0  0  0  0  0  0  0  0  0  0
   14.5085    9.7867    1.9794 H   0  0  0  0  0  0  0  0  0  0  0  0
   12.3143   10.3484    2.1371 H   0  0  0  0  0  0  0  0  0  0  0  0
   12.3893   10.1921    3.9034 H   0  0  0  0  0  0  0  0  0  0  0  0
   10.1511   10.7893    2.1673 H   0  0  0  0  0  0  0  0  0  0  0  0
   10.2165   10.8170    3.9483 H   0  0  0  0  0  0  0  0  0  0  0  0
  1  2  1  0
  2  3  1  0
  3  4  1  0
  4  5  1  0
  5  6  1  0
  6  7  1  0
  7  8  1  0
  8  9  2  0
  8 10  1  0
 10 11  1  0
 11 12  1  0
 12 13  1  0
 13 14  1  0
 14 15  1  0
 14 16  1  0
 13 17  1  0
 17 18  1  0
 18 10  1  0
  1 19  1  0
  1 20  1  0
  1 21  1  0
  2 22  1  0
  2 23  1  0
  3 24  1  0
  3 25  1  0
  4 26  1  0
  5 27  1  0
  5 28  1  0
  6 29  1  0
  6 30  1  0
  7 31  1  0
 10 32  1  0
 11 33  1  0
 11 34  1  0
 12 35  1  0
 12 36  1  0
 13 37  1  0
 14 38  1  0
 15 39  1  0
 15 40  1  0
 15 41  1  0
 16 42  1  0
 16 43  1  0
 16 44  1  0
 17 45  1  0
 17 46  1  0
 18 47  1  0
 18 48  1  0
M  CHG  1  16   1
M  END
>  <EmbedRMS>  (81) 
0.16499967102600221

$$$$

     RDKit          3D

 41 41  0  0  0  0  0  0  0  0999 V2000
    4.6460   11.6759    7.1724 C   0  0  0  0  0  0  0  0  0  0  0  0
    5.2633   11.4940    5.8659 N   0  0  0  0  0  0  0  0  0  0  0  0
    5.1493   10.2629    5.1439 C   0  0  0  0  0  0  0  0  0  0  0  0
    4.5014    9.2956    5.6277 O   0  0  0  0  0  0  0  0  0  0  0  0
    5.8086   10.1135    3.8127 C   0  0  0  0  0  0  0  0  0  0  0  0
    7.2095    9.6833    3.9371 N   0  0  0  0  0  0  0  0  0  0  0  0
    7.9808    9.5180    2.7350 C   0  0  0  0  0  0  0  0  0  0  0  0
    7.4142    9.6752    1.6244 O   0  0  0  0  0  0  0  0  0  0  0  0
    9.4440    9.1935    2.6630 C   0  0  0  0  0  0  0  0  0  0  0  0
    9.7658    7.7143    2.4337 C   0  0  0  0  0  0  0  0  0  0  0  0
   11.2644    7.3644    2.5408 C   0  0  0  0  0  0  0  0  0  0  0  0
   12.1433    8.5869    2.2329 C   0  0  0  0  0  0  0  0  0  0  0  0
   13.6544    8.3400    1.9332 C   0  0  0  0  0  0  0  0  0  0  0  0
   14.0135    7.0449    1.2245 C   0  0  0  0  0  0  0  0  0  0  0  0
   14.6174    8.7741    2.9396 N   0  0  0  0  0  4  0  0  0  0  0  0
   11.8904    9.6848    3.2864 C   0  0  0  0  0  0  0  0  0  0  0  0
   10.4058   10.0816    3.4356 C   0  0  0  0  0  0  0  0  0  0  0  0
    3.5459   11.5501    7.0899 H   0  0  0  0  0  0  0  0  0  0  0  0
    4.8632   12.6960    7.5536 H   0  0  0  0  0  0  0  0  0  0  0  0
    5.0530   10.9310    7.8883 H   0  0  0  0  0  0  0  0  0  0  0  0
    5.8124   12.2820    5.4541 H   0  0  0  0  0  0  0  0  0  0  0  0
    5.2457    9.3665    3.2110 H   0  0  0  0  0  0  0  0  0  0  0  0
    5.7655   11.0860    3.2759 H   0  0  0  0  0  0  0  0  0  0  0  0
    7.6527    9.5270    4.8705 H   0  0  0  0  0  0  0  0  0  0  0  0
    9.6833    9.5857    1.6449 H   0  0  0  0  0  0  0  0  0  0  0  0
    9.2152    7.1104    3.1876 H   0  0  0  0  0  0  0  0  0  0  0  0
    9.3851    7.3989    1.4351 H   0  0  0  0  0  0  0  0  0  0  0  0
   11.4740    6.5318    1.8378 H   0  0  0  0  0  0  0  0  0  0  0  0
   11.4952    7.0010    3.5664 H   0  0  0  0  0  0  0  0  0  0  0  0
   11.7498    8.9804    1.2663 H   0  0  0  0  0  0  0  0  0  0  0  0
   13.8441    9.0654    1.1031 H   0  0  0  0  0  0  0  0  0  0  0  0
   15.0584    7.0793    0.8474 H   0  0  0  0  0  0  0  0  0  0  0  0
   13.3402    6.8740    0.3569 H   0  0  0  0  0  0  0  0  0  0  0  0
   13.9243    6.1936    1.9314 H   0  0  0  0  0  0  0  0  0  0  0  0
   15.5927    8.5554    2.6308 H   0  0  0  0  0  0  0  0  0  0  0  0
   14.5660    9.8051    3.1020 H   0  0  0  0  0  0  0  0  0  0  0  0
   14.4336    8.2664    3.8348 H   0  0  0  0  0  0  0  0  0  0  0  0
   12.2736    9.3421    4.2727 H   0  0  0  0  0  0  0  0  0  0  0  0
   12.4550   10.5998    3.0047 H   0  0  0  0  0  0  0  0  0  0  0  0
   10.1351   10.0261    4.5122 H   0  0  0  0  0  0  0  0  0  0  0  0
   10.2667   11.1445    3.1312 H   0  0  0  0  0  0  0  0  0  0  0  0
  1  2  1  0
  2  3  1  0
  3  4  2  0
  3  5  1  0
  5  6  1  0
  6  7  1  0
  7  8  2  0
  7  9  1  0
  9 10  1  0
 10 11  1  0
 11 12  1  0
 12 13  1  0
 13 14  1  0
 13 15  1  0
 12 16  1  0
 16 17  1  0
 17  9  1  0
  1 18  1  0
  1 19  1  0
  1 20  1  0
  2 21  1  0
  5 22  1  0
  5 23  1  0
  6 24  1  0
  9 25  1  0
 10 26  1  0
 10 27  1  0
 11 28  1  0
 11 29  1  0
 12 30  1  0
 13 31  1  0
 14 32  1  0
 14 33  1  0
 14 34  1  0
 15 35  1  0
 15 36  1  0
 15 37  1  0
 16 38  1  0
 16 39  1  0
 17 40  1  0
 17 41  1  0
M  CHG  1  15   1
M  END
>  <EmbedRMS>  (82) 
0.2569057114362328

$$$$

     RDKit          3D

 45 45  0  0  0  0  0  0  0  0999 V2000
   14.0476    7.2187    1.1053 C   0  0  0  0  0  0  0  0  0  0  0  0
   13.6477    7.9539    2.3998 C   0  0  0  0  0  0  0  0  0  0  0  0
   14.6267    9.0144    2.6724 N   0  0  0  0  0  4  0  0  0  0  0  0
   12.1978    8.5096    2.2743 C   0  0  0  0  0  0  0  0  0  0  0  0
   11.1759    7.3646    2.4347 C   0  0  0  0  0  0  0  0  0  0  0  0
    9.7681    7.8696    2.1427 C   0  0  0  0  0  0  0  0  0  0  0  0
    9.3957    8.9968    3.1095 C   0  0  0  0  0  0  0  0  0  0  0  0
    8.0068    9.5095    2.8281 C   0  0  0  0  0  0  0  0  0  0  0  0
    7.5972    9.6486    1.6455 O   0  0  0  0  0  0  0  0  0  0  0  0
    7.2505   10.0375    3.9122 N   0  0  0  0  0  0  0  0  0  0  0  0
    5.8686    9.7485    4.2650 C   0  0  0  0  0  0  0  0  0  0  0  0
    5.0063    8.9184    3.3086 C   0  0  0  0  0  0  0  0  0  0  0  0
    4.7444    7.7081    3.9654 O   0  0  0  0  0  0  0  0  0  0  0  0
    5.0975   10.7675    5.1210 C   0  0  0  0  0  0  0  0  0  0  0  0
    5.8223   12.0528    5.5207 C   0  0  0  0  0  0  0  0  0  0  0  0
    5.3010   13.3963    4.4219 S   0  0  0  0  0  0  0  0  0  0  0  0
   10.4223   10.1456    3.0608 C   0  0  0  0  0  0  0  0  0  0  0  0
   11.8543    9.6317    3.2837 C   0  0  0  0  0  0  0  0  0  0  0  0
   13.4158    6.3271    0.9258 H   0  0  0  0  0  0  0  0  0  0  0  0
   15.0945    6.8557    1.1822 H   0  0  0  0  0  0  0  0  0  0  0  0
   13.9788    7.8978    0.2287 H   0  0  0  0  0  0  0  0  0  0  0  0
   13.6891    7.2228    3.2395 H   0  0  0  0  0  0  0  0  0  0  0  0
   14.4947    9.3905    3.6388 H   0  0  0  0  0  0  0  0  0  0  0  0
   14.5400    9.7860    1.9710 H   0  0  0  0  0  0  0  0  0  0  0  0
   15.5985    8.6293    2.6303 H   0  0  0  0  0  0  0  0  0  0  0  0
   12.0869    8.9466    1.2549 H   0  0  0  0  0  0  0  0  0  0  0  0
   11.2224    6.9434    3.4638 H   0  0  0  0  0  0  0  0  0  0  0  0
   11.3824    6.5398    1.7243 H   0  0  0  0  0  0  0  0  0  0  0  0
    9.7151    8.2236    1.0887 H   0  0  0  0  0  0  0  0  0  0  0  0
    9.0507    7.0276    2.2598 H   0  0  0  0  0  0  0  0  0  0  0  0
    9.4011    8.5711    4.1389 H   0  0  0  0  0  0  0  0  0  0  0  0
    7.8579   10.3167    4.7148 H   0  0  0  0  0  0  0  0  0  0  0  0
    6.0923    9.0172    5.0811 H   0  0  0  0  0  0  0  0  0  0  0  0
    5.4903    8.7303    2.3297 H   0  0  0  0  0  0  0  0  0  0  0  0
    4.0420    9.4200    3.0853 H   0  0  0  0  0  0  0  0  0  0  0  0
    5.4920    7.0915    3.7457 H   0  0  0  0  0  0  0  0  0  0  0  0
    4.7480   10.2788    6.0620 H   0  0  0  0  0  0  0  0  0  0  0  0
    4.1452   11.0327    4.6136 H   0  0  0  0  0  0  0  0  0  0  0  0
    5.5136   12.3363    6.5502 H   0  0  0  0  0  0  0  0  0  0  0  0
    6.9226   11.9949    5.5400 H   0  0  0  0  0  0  0  0  0  0  0  0
    4.0043   13.4606    4.9688 H   0  0  0  0  0  0  0  0  0  0  0  0
   10.3676   10.6564    2.0734 H   0  0  0  0  0  0  0  0  0  0  0  0
   10.1834   10.8959    3.8458 H   0  0  0  0  0  0  0  0  0  0  0  0
   12.5359   10.4980    3.1513 H   0  0  0  0  0  0  0  0  0  0  0  0
   11.9617    9.2556    4.3250 H   0  0  0  0  0  0  0  0  0  0  0  0
  1  2  1  0
  2  3  1  0
  2  4  1  0
  4  5  1  0
  5  6  1  0
  6  7  1  0
  7  8  1  0
  8  9  2  0
  8 10  1  0
 10 11  1  0
 11 12  1  0
 12 13  1  0
 11 14  1  0
 14 15  1  0
 15 16  1  0
  7 17  1  0
 17 18  1  0
 18  4  1  0
  1 19  1  0
  1 20  1  0
  1 21  1  0
  2 22  1  0
  3 23  1  0
  3 24  1  0
  3 25  1  0
  4 26  1  0
  5 27  1  0
  5 28  1  0
  6 29  1  0
  6 30  1  0
  7 31  1  0
 10 32  1  0
 11 33  1  0
 12 34  1  0
 12 35  1  0
 13 36  1  0
 14 37  1  0
 14 38  1  0
 15 39  1  0
 15 40  1  0
 16 41  1  0
 17 42  1  0
 17 43  1  0
 18 44  1  0
 18 45  1  0
M  CHG  1   3   1
M  END
>  <EmbedRMS>  (83) 
0.1964435552690657

$$$$

     RDKit          3D

 47 48  0  0  0  0  0  0  0  0999 V2000
   14.0273    7.0396    1.2341 C   0  0  0  0  0  0  0  0  0  0  0  0
   13.6687    8.3363    1.9396 C   0  0  0  0  0  0  0  0  0  0  0  0
   14.6133    8.7685    2.9619 N   0  0  0  0  0  4  0  0  0  0  0  0
   12.1573    8.5898    2.2125 C   0  0  0  0  0  0  0  0  0  0  0  0
   11.2399    7.3774    2.4534 C   0  0  0  0  0  0  0  0  0  0  0  0
    9.7875    7.8248    2.2157 C   0  0  0  0  0  0  0  0  0  0  0  0
    9.4115    8.9848    3.1573 C   0  0  0  0  0  0  0  0  0  0  0  0
    8.0157    9.4673    2.8810 C   0  0  0  0  0  0  0  0  0  0  0  0
    7.6296    9.6767    1.6957 O   0  0  0  0  0  0  0  0  0  0  0  0
    7.1389    9.7194    3.9836 N   0  0  0  0  0  0  0  0  0  0  0  0
    5.7525   10.1231    3.8031 C   0  0  0  0  0  0  0  0  0  0  0  0
    4.9189    8.9328    3.3313 C   0  0  0  0  0  0  0  0  0  0  0  0
    3.4585    9.3437    3.1194 C   0  0  0  0  0  0  0  0  0  0  0  0
    2.5975    9.7798    4.3070 C   0  0  0  0  0  0  0  0  0  0  0  0
    3.1480   10.0021    1.7983 C   0  0  0  0  0  0  0  0  0  0  0  0
    2.7318    8.7347    1.9311 C   0  0  0  0  0  0  0  0  0  0  0  0
   10.4069   10.1589    3.0897 C   0  0  0  0  0  0  0  0  0  0  0  0
   11.8562    9.6807    3.2550 C   0  0  0  0  0  0  0  0  0  0  0  0
   13.9073    6.1866    1.9345 H   0  0  0  0  0  0  0  0  0  0  0  0
   15.0822    7.0603    0.8850 H   0  0  0  0  0  0  0  0  0  0  0  0
   13.3759    6.8820    0.3475 H   0  0  0  0  0  0  0  0  0  0  0  0
   13.8822    9.0580    1.1113 H   0  0  0  0  0  0  0  0  0  0  0  0
   15.5894    8.5013    2.6970 H   0  0  0  0  0  0  0  0  0  0  0  0
   14.3776    8.3025    3.8675 H   0  0  0  0  0  0  0  0  0  0  0  0
   14.5967    9.8059    3.0872 H   0  0  0  0  0  0  0  0  0  0  0  0
   11.8015    9.0088    1.2380 H   0  0  0  0  0  0  0  0  0  0  0  0
   11.3705    6.9867    3.4864 H   0  0  0  0  0  0  0  0  0  0  0  0
   11.4615    6.5572    1.7403 H   0  0  0  0  0  0  0  0  0  0  0  0
    9.6565    8.1237    1.1516 H   0  0  0  0  0  0  0  0  0  0  0  0
    9.1120    6.9624    2.4072 H   0  0  0  0  0  0  0  0  0  0  0  0
    9.4437    8.5810    4.1944 H   0  0  0  0  0  0  0  0  0  0  0  0
    7.5117    9.6586    4.9582 H   0  0  0  0  0  0  0  0  0  0  0  0
    5.3571   10.4914    4.7744 H   0  0  0  0  0  0  0  0  0  0  0  0
    5.6965   10.9571    3.0699 H   0  0  0  0  0  0  0  0  0  0  0  0
    5.3574    8.5147    2.3990 H   0  0  0  0  0  0  0  0  0  0  0  0
    4.9544    8.1328    4.1018 H   0  0  0  0  0  0  0  0  0  0  0  0
    1.5229    9.8689    4.0383 H   0  0  0  0  0  0  0  0  0  0  0  0
    2.6923    9.0359    5.1251 H   0  0  0  0  0  0  0  0  0  0  0  0
    2.9436   10.7668    4.6770 H   0  0  0  0  0  0  0  0  0  0  0  0
    2.3390   10.7650    1.8290 H   0  0  0  0  0  0  0  0  0  0  0  0
    4.0166   10.1381    1.1164 H   0  0  0  0  0  0  0  0  0  0  0  0
    3.3138    7.9869    1.3489 H   0  0  0  0  0  0  0  0  0  0  0  0
    1.6331    8.6134    2.0523 H   0  0  0  0  0  0  0  0  0  0  0  0
   10.3030   10.6865    2.1149 H   0  0  0  0  0  0  0  0  0  0  0  0
   10.1740   10.8896    3.8951 H   0  0  0  0  0  0  0  0  0  0  0  0
   12.5092   10.5640    3.0951 H   0  0  0  0  0  0  0  0  0  0  0  0
   12.0220    9.2947    4.2847 H   0  0  0  0  0  0  0  0  0  0  0  0
  1  2  1  0
  2  3  1  0
  2  4  1  0
  4  5  1  0
  5  6  1  0
  6  7  1  0
  7  8  1  0
  8  9  2  0
  8 10  1  0
 10 11  1  0
 11 12  1  0
 12 13  1  0
 13 14  1  0
 13 15  1  0
 15 16  1  0
  7 17  1  0
 17 18  1  0
 18  4  1  0
 16 13  1  0
  1 19  1  0
  1 20  1  0
  1 21  1  0
  2 22  1  0
  3 23  1  0
  3 24  1  0
  3 25  1  0
  4 26  1  0
  5 27  1  0
  5 28  1  0
  6 29  1  0
  6 30  1  0
  7 31  1  0
 10 32  1  0
 11 33  1  0
 11 34  1  0
 12 35  1  0
 12 36  1  0
 14 37  1  0
 14 38  1  0
 14 39  1  0
 15 40  1  0
 15 41  1  0
 16 42  1  0
 16 43  1  0
 17 44  1  0
 17 45  1  0
 18 46  1  0
 18 47  1  0
M  CHG  1   3   1
M  END
>  <EmbedRMS>  (84) 
0.5113108624362681

$$$$

     RDKit          3D

 47 48  0  0  0  0  0  0  0  0999 V2000
    4.7298   11.2329    1.2004 C   0  0  0  0  0  0  0  0  0  0  0  0
    5.3138   12.1441    2.2473 C   0  0  0  0  0  0  0  0  0  0  0  0
    5.3511   13.5258    1.9941 C   0  0  0  0  0  0  0  0  0  0  0  0
    5.8452   14.4116    2.9519 C   0  0  0  0  0  0  0  0  0  0  0  0
    6.3088   13.9314    4.1756 C   0  0  0  0  0  0  0  0  0  0  0  0
    6.2820   12.5622    4.4445 C   0  0  0  0  0  0  0  0  0  0  0  0
    5.7871   11.6542    3.4906 C   0  0  0  0  0  0  0  0  0  0  0  0
    5.7789   10.1855    3.8378 C   0  0  0  0  0  0  0  0  0  0  0  0
    7.1442    9.6952    3.9866 N   0  0  0  0  0  0  0  0  0  0  0  0
    8.0145    9.4670    2.8714 C   0  0  0  0  0  0  0  0  0  0  0  0
    7.6166    9.6840    1.6942 O   0  0  0  0  0  0  0  0  0  0  0  0
    9.4183    8.9869    3.1124 C   0  0  0  0  0  0  0  0  0  0  0  0
    9.8000    7.9217    2.0865 C   0  0  0  0  0  0  0  0  0  0  0  0
   11.1597    7.3122    2.3949 C   0  0  0  0  0  0  0  0  0  0  0  0
   12.2765    8.3218    2.7732 C   0  0  0  0  0  0  0  0  0  0  0  0
   13.5815    8.3570    1.9537 C   0  0  0  0  0  0  0  0  0  0  0  0
   13.9847    7.0983    1.1858 C   0  0  0  0  0  0  0  0  0  0  0  0
   14.7119    8.8840    2.7305 N   0  0  0  0  0  4  0  0  0  0  0  0
   11.8334    9.7200    3.3034 C   0  0  0  0  0  0  0  0  0  0  0  0
   10.3978   10.1508    3.0099 C   0  0  0  0  0  0  0  0  0  0  0  0
    4.4124   11.7976    0.2980 H   0  0  0  0  0  0  0  0  0  0  0  0
    5.4669   10.4782    0.8713 H   0  0  0  0  0  0  0  0  0  0  0  0
    3.8312   10.7231    1.6067 H   0  0  0  0  0  0  0  0  0  0  0  0
    4.9903   13.9248    1.0540 H   0  0  0  0  0  0  0  0  0  0  0  0
    5.8669   15.4740    2.7457 H   0  0  0  0  0  0  0  0  0  0  0  0
    6.6911   14.6209    4.9172 H   0  0  0  0  0  0  0  0  0  0  0  0
    6.6471   12.2062    5.4002 H   0  0  0  0  0  0  0  0  0  0  0  0
    5.2408   10.0581    4.8023 H   0  0  0  0  0  0  0  0  0  0  0  0
    5.2411    9.5570    3.1005 H   0  0  0  0  0  0  0  0  0  0  0  0
    7.4942    9.5033    4.9525 H   0  0  0  0  0  0  0  0  0  0  0  0
    9.4800    8.5436    4.1320 H   0  0  0  0  0  0  0  0  0  0  0  0
    9.8282    8.3622    1.0643 H   0  0  0  0  0  0  0  0  0  0  0  0
    9.0370    7.1114    2.0823 H   0  0  0  0  0  0  0  0  0  0  0  0
   11.0073    6.5945    3.2346 H   0  0  0  0  0  0  0  0  0  0  0  0
   11.4423    6.6852    1.5293 H   0  0  0  0  0  0  0  0  0  0  0  0
   12.6582    7.8402    3.7046 H   0  0  0  0  0  0  0  0  0  0  0  0
   13.3817    9.1007    1.1482 H   0  0  0  0  0  0  0  0  0  0  0  0
   13.9865    6.2212    1.8669 H   0  0  0  0  0  0  0  0  0  0  0  0
   15.0016    7.2109    0.7533 H   0  0  0  0  0  0  0  0  0  0  0  0
   13.2944    6.9112    0.3366 H   0  0  0  0  0  0  0  0  0  0  0  0
   14.4926    9.7904    3.1970 H   0  0  0  0  0  0  0  0  0  0  0  0
   15.5297    9.0532    2.1003 H   0  0  0  0  0  0  0  0  0  0  0  0
   14.9949    8.1903    3.4606 H   0  0  0  0  0  0  0  0  0  0  0  0
   12.4767   10.5266    2.8940 H   0  0  0  0  0  0  0  0  0  0  0  0
   11.9705    9.7524    4.4087 H   0  0  0  0  0  0  0  0  0  0  0  0
   10.1059   10.9525    3.7245 H   0  0  0  0  0  0  0  0  0  0  0  0
   10.3530   10.5869    1.9861 H   0  0  0  0  0  0  0  0  0  0  0  0
  1  2  1  0
  2  3  2  0
  3  4  1  0
  4  5  2  0
  5  6  1  0
  6  7  2  0
  7  8  1  0
  8  9  1  0
  9 10  1  0
 10 11  2  0
 10 12  1  0
 12 13  1  0
 13 14  1  0
 14 15  1  0
 15 16  1  0
 16 17  1  0
 16 18  1  0
 15 19  1  0
 19 20  1  0
  7  2  1  0
 20 12  1  0
  1 21  1  0
  1 22  1  0
  1 23  1  0
  3 24  1  0
  4 25  1  0
  5 26  1  0
  6 27  1  0
  8 28  1  0
  8 29  1  0
  9 30  1  0
 12 31  1  0
 13 32  1  0
 13 33  1  0
 14 34  1  0
 14 35  1  0
 15 36  1  0
 16 37  1  0
 17 38  1  0
 17 39  1  0
 17 40  1  0
 18 41  1  0
 18 42  1  0
 18 43  1  0
 19 44  1  0
 19 45  1  0
 20 46  1  0
 20 47  1  0
M  CHG  1  18   1
M  END
>  <EmbedRMS>  (85) 
0.19204016474732244

$$$$

     RDKit          3D

 44 44  0  0  0  0  0  0  0  0999 V2000
   14.0122    7.0504    1.2528 C   0  0  0  0  0  0  0  0  0  0  0  0
   13.6014    8.3242    1.9895 C   0  0  0  0  0  0  0  0  0  0  0  0
   14.7031    8.8917    2.7695 N   0  0  0  0  0  4  0  0  0  0  0  0
   12.2621    8.3269    2.7668 C   0  0  0  0  0  0  0  0  0  0  0  0
   11.1808    7.4388    2.1343 C   0  0  0  0  0  0  0  0  0  0  0  0
    9.7461    7.7259    2.5428 C   0  0  0  0  0  0  0  0  0  0  0  0
    9.4521    9.2015    2.6313 C   0  0  0  0  0  0  0  0  0  0  0  0
    7.9916    9.5235    2.7203 C   0  0  0  0  0  0  0  0  0  0  0  0
    7.4126    9.6688    1.6167 O   0  0  0  0  0  0  0  0  0  0  0  0
    7.2400    9.6875    3.9339 N   0  0  0  0  0  0  0  0  0  0  0  0
    5.8476   10.1523    3.8888 C   0  0  0  0  0  0  0  0  0  0  0  0
    5.7866   11.6348    3.4787 C   0  0  0  0  0  0  0  0  0  0  0  0
    4.3465   12.1386    3.3126 C   0  0  0  0  0  0  0  0  0  0  0  0
    3.6290   12.3298    4.6495 C   0  0  0  0  0  0  0  0  0  0  0  0
    4.2413   13.3567    5.3785 O   0  0  0  0  0  0  0  0  0  0  0  0
   10.3855   10.0198    3.4797 C   0  0  0  0  0  0  0  0  0  0  0  0
   11.8500    9.7805    3.1211 C   0  0  0  0  0  0  0  0  0  0  0  0
   13.2687    6.7646    0.4806 H   0  0  0  0  0  0  0  0  0  0  0  0
   14.1172    6.2175    1.9793 H   0  0  0  0  0  0  0  0  0  0  0  0
   14.9842    7.1925    0.7340 H   0  0  0  0  0  0  0  0  0  0  0  0
   13.4373    9.0283    1.1407 H   0  0  0  0  0  0  0  0  0  0  0  0
   14.8388    8.3412    3.6483 H   0  0  0  0  0  0  0  0  0  0  0  0
   15.5925    8.8677    2.2196 H   0  0  0  0  0  0  0  0  0  0  0  0
   14.5205    9.8921    3.0080 H   0  0  0  0  0  0  0  0  0  0  0  0
   12.4694    7.8404    3.7467 H   0  0  0  0  0  0  0  0  0  0  0  0
   11.4072    6.3663    2.3242 H   0  0  0  0  0  0  0  0  0  0  0  0
   11.2151    7.5901    1.0331 H   0  0  0  0  0  0  0  0  0  0  0  0
    9.0562    7.2342    1.8205 H   0  0  0  0  0  0  0  0  0  0  0  0
    9.5628    7.2727    3.5415 H   0  0  0  0  0  0  0  0  0  0  0  0
    9.7228    9.5602    1.6072 H   0  0  0  0  0  0  0  0  0  0  0  0
    7.6837    9.4625    4.8522 H   0  0  0  0  0  0  0  0  0  0  0  0
    5.2667    9.5248    3.1781 H   0  0  0  0  0  0  0  0  0  0  0  0
    5.4038   10.0240    4.8977 H   0  0  0  0  0  0  0  0  0  0  0  0
    6.3284   12.2520    4.2280 H   0  0  0  0  0  0  0  0  0  0  0  0
    6.3039   11.7726    2.5063 H   0  0  0  0  0  0  0  0  0  0  0  0
    3.7695   11.4279    2.6816 H   0  0  0  0  0  0  0  0  0  0  0  0
    4.3660   13.1138    2.7785 H   0  0  0  0  0  0  0  0  0  0  0  0
    3.6223   11.3875    5.2378 H   0  0  0  0  0  0  0  0  0  0  0  0
    2.5718   12.6091    4.4429 H   0  0  0  0  0  0  0  0  0  0  0  0
    3.7359   13.4294    6.2295 H   0  0  0  0  0  0  0  0  0  0  0  0
   10.1480   11.1029    3.3827 H   0  0  0  0  0  0  0  0  0  0  0  0
   10.2298    9.7354    4.5431 H   0  0  0  0  0  0  0  0  0  0  0  0
   12.4697   10.1514    3.9664 H   0  0  0  0  0  0  0  0  0  0  0  0
   12.0674   10.4408    2.2526 H   0  0  0  0  0  0  0  0  0  0  0  0
  1  2  1  0
  2  3  1  0
  2  4  1  0
  4  5  1  0
  5  6  1  0
  6  7  1  0
  7  8  1  0
  8  9  2  0
  8 10  1  0
 10 11  1  0
 11 12  1  0
 12 13  1  0
 13 14  1  0
 14 15  1  0
  7 16  1  0
 16 17  1  0
 17  4  1  0
  1 18  1  0
  1 19  1  0
  1 20  1  0
  2 21  1  0
  3 22  1  0
  3 23  1  0
  3 24  1  0
  4 25  1  0
  5 26  1  0
  5 27  1  0
  6 28  1  0
  6 29  1  0
  7 30  1  0
 10 31  1  0
 11 32  1  0
 11 33  1  0
 12 34  1  0
 12 35  1  0
 13 36  1  0
 13 37  1  0
 14 38  1  0
 14 39  1  0
 15 40  1  0
 16 41  1  0
 16 42  1  0
 17 43  1  0
 17 44  1  0
M  CHG  1   3   1
M  END
>  <EmbedRMS>  (86) 
0.3028787039700591

$$$$

     RDKit          3D

 39 39  0  0  0  0  0  0  0  0999 V2000
   13.9844    7.0987    1.1852 C   0  0  0  0  0  0  0  0  0  0  0  0
   13.5813    8.3571    1.9535 C   0  0  0  0  0  0  0  0  0  0  0  0
   14.7119    8.8837    2.7303 N   0  0  0  0  0  4  0  0  0  0  0  0
   12.2764    8.3213    2.7731 C   0  0  0  0  0  0  0  0  0  0  0  0
   11.1594    7.3119    2.3952 C   0  0  0  0  0  0  0  0  0  0  0  0
    9.8012    7.9221    2.0807 C   0  0  0  0  0  0  0  0  0  0  0  0
    9.4171    8.9887    3.1032 C   0  0  0  0  0  0  0  0  0  0  0  0
    8.0126    9.4691    2.8593 C   0  0  0  0  0  0  0  0  0  0  0  0
    7.6068    9.6854    1.6829 O   0  0  0  0  0  0  0  0  0  0  0  0
    7.1475    9.7016    3.9728 N   0  0  0  0  0  0  0  0  0  0  0  0
    5.7671   10.1340    3.7917 C   0  0  0  0  0  0  0  0  0  0  0  0
    5.1041   10.2805    5.1224 C   0  0  0  0  0  0  0  0  0  0  0  0
    4.4861    9.3029    5.6225 O   0  0  0  0  0  0  0  0  0  0  0  0
    5.2339   11.4993    5.8568 N   0  0  0  0  0  0  0  0  0  0  0  0
    4.6682   11.6309    7.0797 O   0  0  0  0  0  0  0  0  0  0  0  0
   10.3985   10.1512    3.0055 C   0  0  0  0  0  0  0  0  0  0  0  0
   11.8327    9.7189    3.3043 C   0  0  0  0  0  0  0  0  0  0  0  0
   13.9874    6.2216    1.8663 H   0  0  0  0  0  0  0  0  0  0  0  0
   13.2934    6.9113    0.3368 H   0  0  0  0  0  0  0  0  0  0  0  0
   15.0009    7.2118    0.7517 H   0  0  0  0  0  0  0  0  0  0  0  0
   13.3813    9.1012    1.1484 H   0  0  0  0  0  0  0  0  0  0  0  0
   14.4930    9.7897    3.1976 H   0  0  0  0  0  0  0  0  0  0  0  0
   15.5295    9.0532    2.1000 H   0  0  0  0  0  0  0  0  0  0  0  0
   14.9952    8.1895    3.4598 H   0  0  0  0  0  0  0  0  0  0  0  0
   12.6588    7.8393    3.7041 H   0  0  0  0  0  0  0  0  0  0  0  0
   11.0033    6.5979    3.2375 H   0  0  0  0  0  0  0  0  0  0  0  0
   11.4437    6.6806    1.5333 H   0  0  0  0  0  0  0  0  0  0  0  0
    9.8333    8.3615    1.0581 H   0  0  0  0  0  0  0  0  0  0  0  0
    9.0375    7.1125    2.0748 H   0  0  0  0  0  0  0  0  0  0  0  0
    9.4758    8.5447    4.1227 H   0  0  0  0  0  0  0  0  0  0  0  0
    7.5244    9.5559    4.9379 H   0  0  0  0  0  0  0  0  0  0  0  0
    5.7472   11.1067    3.2549 H   0  0  0  0  0  0  0  0  0  0  0  0
    5.2188    9.3835    3.1817 H   0  0  0  0  0  0  0  0  0  0  0  0
    5.7900   12.2918    5.4642 H   0  0  0  0  0  0  0  0  0  0  0  0
    3.7708   12.0137    6.9045 H   0  0  0  0  0  0  0  0  0  0  0  0
   10.1051   10.9528    3.7197 H   0  0  0  0  0  0  0  0  0  0  0  0
   10.3582   10.5878    1.9818 H   0  0  0  0  0  0  0  0  0  0  0  0
   11.9649    9.7487    4.4103 H   0  0  0  0  0  0  0  0  0  0  0  0
   12.4783   10.5258    2.8994 H   0  0  0  0  0  0  0  0  0  0  0  0
  1  2  1  0
  2  3  1  0
  2  4  1  0
  4  5  1  0
  5  6  1  0
  6  7  1  0
  7  8  1  0
  8  9  2  0
  8 10  1  0
 10 11  1  0
 11 12  1  0
 12 13  2  0
 12 14  1  0
 14 15  1  0
  7 16  1  0
 16 17  1  0
 17  4  1  0
  1 18  1  0
  1 19  1  0
  1 20  1  0
  2 21  1  0
  3 22  1  0
  3 23  1  0
  3 24  1  0
  4 25  1  0
  5 26  1  0
  5 27  1  0
  6 28  1  0
  6 29  1  0
  7 30  1  0
 10 31  1  0
 11 32  1  0
 11 33  1  0
 14 34  1  0
 15 35  1  0
 16 36  1  0
 16 37  1  0
 17 38  1  0
 17 39  1  0
M  CHG  1   3   1
M  END
>  <EmbedRMS>  (87) 
0.20786673572978834

$$$$

     RDKit          3D

 45 45  0  0  0  0  0  0  0  0999 V2000
   14.0290    7.2301    1.0859 C   0  0  0  0  0  0  0  0  0  0  0  0
   13.6469    7.9624    2.3850 C   0  0  0  0  0  0  0  0  0  0  0  0
   14.6278    9.0245    2.6471 N   0  0  0  0  0  4  0  0  0  0  0  0
   12.1831    8.5078    2.2953 C   0  0  0  0  0  0  0  0  0  0  0  0
   11.1995    7.3491    2.5405 C   0  0  0  0  0  0  0  0  0  0  0  0
    9.7368    7.7420    2.3706 C   0  0  0  0  0  0  0  0  0  0  0  0
    9.4529    9.2129    2.6303 C   0  0  0  0  0  0  0  0  0  0  0  0
    7.9911    9.5326    2.7175 C   0  0  0  0  0  0  0  0  0  0  0  0
    7.4108    9.6731    1.6137 O   0  0  0  0  0  0  0  0  0  0  0  0
    7.2350    9.6860    3.9301 N   0  0  0  0  0  0  0  0  0  0  0  0
    5.8442   10.1579    3.8804 C   0  0  0  0  0  0  0  0  0  0  0  0
    5.8006   11.6461    3.4828 C   0  0  0  0  0  0  0  0  0  0  0  0
    4.3711   12.2028    3.2723 C   0  0  0  0  0  0  0  0  0  0  0  0
    3.5565   12.1456    4.5723 C   0  0  0  0  0  0  0  0  0  0  0  0
    3.6983   11.4506    2.2938 O   0  0  0  0  0  0  0  0  0  0  0  0
    4.4498   13.5401    2.8375 O   0  0  0  0  0  0  0  0  0  0  0  0
   10.4180   10.0725    3.4249 C   0  0  0  0  0  0  0  0  0  0  0  0
   11.8964    9.6377    3.3169 C   0  0  0  0  0  0  0  0  0  0  0  0
   13.9589    7.9168    0.2154 H   0  0  0  0  0  0  0  0  0  0  0  0
   13.3820    6.3497    0.9042 H   0  0  0  0  0  0  0  0  0  0  0  0
   15.0723    6.8549    1.1521 H   0  0  0  0  0  0  0  0  0  0  0  0
   13.7154    7.2276    3.2201 H   0  0  0  0  0  0  0  0  0  0  0  0
   14.5148    9.3998    3.6159 H   0  0  0  0  0  0  0  0  0  0  0  0
   15.5997    8.6422    2.5852 H   0  0  0  0  0  0  0  0  0  0  0  0
   14.5270    9.7976    1.9493 H   0  0  0  0  0  0  0  0  0  0  0  0
   12.0129    8.9208    1.2753 H   0  0  0  0  0  0  0  0  0  0  0  0
   11.3441    6.9710    3.5778 H   0  0  0  0  0  0  0  0  0  0  0  0
   11.4010    6.4978    1.8593 H   0  0  0  0  0  0  0  0  0  0  0  0
    9.1301    7.1295    3.0738 H   0  0  0  0  0  0  0  0  0  0  0  0
    9.3990    7.4674    1.3442 H   0  0  0  0  0  0  0  0  0  0  0  0
    9.7103    9.6207    1.6208 H   0  0  0  0  0  0  0  0  0  0  0  0
    7.6734    9.4516    4.8486 H   0  0  0  0  0  0  0  0  0  0  0  0
    5.2650    9.5383    3.1623 H   0  0  0  0  0  0  0  0  0  0  0  0
    5.3933   10.0291    4.8868 H   0  0  0  0  0  0  0  0  0  0  0  0
    6.3710   11.8005    2.5427 H   0  0  0  0  0  0  0  0  0  0  0  0
    6.3182   12.2359    4.2714 H   0  0  0  0  0  0  0  0  0  0  0  0
    2.5932   12.6817    4.4351 H   0  0  0  0  0  0  0  0  0  0  0  0
    3.3219   11.0963    4.8487 H   0  0  0  0  0  0  0  0  0  0  0  0
    4.1098   12.6264    5.4074 H   0  0  0  0  0  0  0  0  0  0  0  0
    4.1730   11.5923    1.4329 H   0  0  0  0  0  0  0  0  0  0  0  0
    4.9118   14.0660    3.5427 H   0  0  0  0  0  0  0  0  0  0  0  0
   10.1178   10.0252    4.4942 H   0  0  0  0  0  0  0  0  0  0  0  0
   10.3152   11.1396    3.1205 H   0  0  0  0  0  0  0  0  0  0  0  0
   12.2345    9.3028    4.3231 H   0  0  0  0  0  0  0  0  0  0  0  0
   12.4948   10.5354    3.0502 H   0  0  0  0  0  0  0  0  0  0  0  0
  1  2  1  0
  2  3  1  0
  2  4  1  0
  4  5  1  0
  5  6  1  0
  6  7  1  0
  7  8  1  0
  8  9  2  0
  8 10  1  0
 10 11  1  0
 11 12  1  0
 12 13  1  0
 13 14  1  0
 13 15  1  0
 13 16  1  0
  7 17  1  0
 17 18  1  0
 18  4  1  0
  1 19  1  0
  1 20  1  0
  1 21  1  0
  2 22  1  0
  3 23  1  0
  3 24  1  0
  3 25  1  0
  4 26  1  0
  5 27  1  0
  5 28  1  0
  6 29  1  0
  6 30  1  0
  7 31  1  0
 10 32  1  0
 11 33  1  0
 11 34  1  0
 12 35  1  0
 12 36  1  0
 14 37  1  0
 14 38  1  0
 14 39  1  0
 15 40  1  0
 16 41  1  0
 17 42  1  0
 17 43  1  0
 18 44  1  0
 18 45  1  0
M  CHG  1   3   1
M  END
>  <EmbedRMS>  (88) 
0.17853379055345855

$$$$

     RDKit          3D

 40 41  0  0  0  0  0  0  0  0999 V2000
   13.9228    7.3284    1.0385 C   0  0  0  0  0  0  0  0  0  0  0  0
   13.7075    7.9210    2.4414 C   0  0  0  0  0  0  0  0  0  0  0  0
   14.6424    9.0269    2.6701 N   0  0  0  0  0  4  0  0  0  0  0  0
   12.2294    8.2934    2.8216 C   0  0  0  0  0  0  0  0  0  0  0  0
   11.1741    7.4157    2.1505 C   0  0  0  0  0  0  0  0  0  0  0  0
    9.7356    7.7231    2.5380 C   0  0  0  0  0  0  0  0  0  0  0  0
    9.4500    9.2029    2.6315 C   0  0  0  0  0  0  0  0  0  0  0  0
    7.9884    9.5360    2.7257 C   0  0  0  0  0  0  0  0  0  0  0  0
    7.4147    9.6914    1.6198 O   0  0  0  0  0  0  0  0  0  0  0  0
    7.2200    9.6887    3.9327 N   0  0  0  0  0  0  0  0  0  0  0  0
    5.8179   10.1209    3.8133 C   0  0  0  0  0  0  0  0  0  0  0  0
    5.1579   10.2598    5.1431 C   0  0  0  0  0  0  0  0  0  0  0  0
    5.1819   11.3879    5.8785 N   0  0  0  0  0  0  0  0  0  0  0  0
    4.4926   11.0189    6.9793 C   0  0  0  0  0  0  0  0  0  0  0  0
    4.0734    9.7394    6.9200 N   0  0  0  0  0  0  0  0  0  0  0  0
    4.4959    9.2707    5.7615 N   0  0  0  0  0  0  0  0  0  0  0  0
   10.4245   10.0506    3.4178 C   0  0  0  0  0  0  0  0  0  0  0  0
   11.8788    9.7841    2.9973 C   0  0  0  0  0  0  0  0  0  0  0  0
   13.5731    8.0449    0.2655 H   0  0  0  0  0  0  0  0  0  0  0  0
   14.9999    7.1185    0.8655 H   0  0  0  0  0  0  0  0  0  0  0  0
   13.3783    6.3678    0.9249 H   0  0  0  0  0  0  0  0  0  0  0  0
   14.0113    7.0969    3.1299 H   0  0  0  0  0  0  0  0  0  0  0  0
   15.6232    8.7091    2.4922 H   0  0  0  0  0  0  0  0  0  0  0  0
   14.5985    9.3365    3.6676 H   0  0  0  0  0  0  0  0  0  0  0  0
   14.4330    9.8276    2.0311 H   0  0  0  0  0  0  0  0  0  0  0  0
   12.1630    7.9502    3.8813 H   0  0  0  0  0  0  0  0  0  0  0  0
   11.3809    6.3424    2.3585 H   0  0  0  0  0  0  0  0  0  0  0  0
   11.2461    7.5643    1.0514 H   0  0  0  0  0  0  0  0  0  0  0  0
    9.0504    7.2401    1.8054 H   0  0  0  0  0  0  0  0  0  0  0  0
    9.5322    7.2696    3.5326 H   0  0  0  0  0  0  0  0  0  0  0  0
    9.7013    9.5355    1.5935 H   0  0  0  0  0  0  0  0  0  0  0  0
    7.6671    9.5283    4.8635 H   0  0  0  0  0  0  0  0  0  0  0  0
    5.7761   11.1007    3.2898 H   0  0  0  0  0  0  0  0  0  0  0  0
    5.2525    9.3800    3.2074 H   0  0  0  0  0  0  0  0  0  0  0  0
    4.2995   11.6765    7.8161 H   0  0  0  0  0  0  0  0  0  0  0  0
    4.3382    8.2981    5.4159 H   0  0  0  0  0  0  0  0  0  0  0  0
   10.3104    9.8093    4.4969 H   0  0  0  0  0  0  0  0  0  0  0  0
   10.1922   11.1303    3.2835 H   0  0  0  0  0  0  0  0  0  0  0  0
   12.5387   10.2611    3.7525 H   0  0  0  0  0  0  0  0  0  0  0  0
   12.0562   10.2951    2.0262 H   0  0  0  0  0  0  0  0  0  0  0  0
  1  2  1  0
  2  3  1  0
  2  4  1  0
  4  5  1  0
  5  6  1  0
  6  7  1  0
  7  8  1  0
  8  9  2  0
  8 10  1  0
 10 11  1  0
 11 12  1  0
 12 13  2  0
 13 14  1  0
 14 15  2  0
 15 16  1  0
  7 17  1  0
 17 18  1  0
 18  4  1  0
 16 12  1  0
  1 19  1  0
  1 20  1  0
  1 21  1  0
  2 22  1  0
  3 23  1  0
  3 24  1  0
  3 25  1  0
  4 26  1  0
  5 27  1  0
  5 28  1  0
  6 29  1  0
  6 30  1  0
  7 31  1  0
 10 32  1  0
 11 33  1  0
 11 34  1  0
 14 35  1  0
 16 36  1  0
 17 37  1  0
 17 38  1  0
 18 39  1  0
 18 40  1  0
M  CHG  1   3   1
M  END
>  <EmbedRMS>  (89) 
0.26092352120004825

$$$$

     RDKit          3D

 45 45  0  0  0  0  0  0  0  0999 V2000
    1.3162    8.6480    2.4764 C   0  0  0  0  0  0  0  0  0  0  0  0
    2.7690    8.2394    2.6571 C   0  0  0  0  0  0  0  0  0  0  0  0
    3.5588    9.3719    3.1531 N   0  0  0  0  0  0  0  0  0  0  0  0
    4.9457    8.9370    3.3408 C   0  0  0  0  0  0  0  0  0  0  0  0
    5.8111   10.0828    3.8756 C   0  0  0  0  0  0  0  0  0  0  0  0
    7.2212    9.6714    3.9388 N   0  0  0  0  0  0  0  0  0  0  0  0
    7.9871    9.5236    2.7309 C   0  0  0  0  0  0  0  0  0  0  0  0
    7.4226    9.7001    1.6228 O   0  0  0  0  0  0  0  0  0  0  0  0
    9.4479    9.1954    2.6571 C   0  0  0  0  0  0  0  0  0  0  0  0
    9.7662    7.7150    2.4336 C   0  0  0  0  0  0  0  0  0  0  0  0
   11.2648    7.3640    2.5399 C   0  0  0  0  0  0  0  0  0  0  0  0
   12.1448    8.5862    2.2323 C   0  0  0  0  0  0  0  0  0  0  0  0
   13.6556    8.3392    1.9331 C   0  0  0  0  0  0  0  0  0  0  0  0
   14.0143    7.0441    1.2245 C   0  0  0  0  0  0  0  0  0  0  0  0
   14.6184    8.7732    2.9398 N   0  0  0  0  0  4  0  0  0  0  0  0
   11.8922    9.6845    3.2853 C   0  0  0  0  0  0  0  0  0  0  0  0
   10.4083   10.0818    3.4329 C   0  0  0  0  0  0  0  0  0  0  0  0
    1.2358    9.4590    1.7217 H   0  0  0  0  0  0  0  0  0  0  0  0
    0.7229    7.7764    2.1277 H   0  0  0  0  0  0  0  0  0  0  0  0
    0.8974    9.0039    3.4416 H   0  0  0  0  0  0  0  0  0  0  0  0
    2.8047    7.3991    3.3860 H   0  0  0  0  0  0  0  0  0  0  0  0
    3.1635    7.8833    1.6781 H   0  0  0  0  0  0  0  0  0  0  0  0
    3.5555   10.1116    2.4109 H   0  0  0  0  0  0  0  0  0  0  0  0
    5.3566    8.5628    2.3778 H   0  0  0  0  0  0  0  0  0  0  0  0
    4.9851    8.1045    4.0788 H   0  0  0  0  0  0  0  0  0  0  0  0
    5.4617   10.3551    4.8951 H   0  0  0  0  0  0  0  0  0  0  0  0
    5.7127   10.9819    3.2288 H   0  0  0  0  0  0  0  0  0  0  0  0
    7.6863    9.5527    4.8663 H   0  0  0  0  0  0  0  0  0  0  0  0
    9.6891    9.5852    1.6385 H   0  0  0  0  0  0  0  0  0  0  0  0
    9.3835    7.3966    1.4368 H   0  0  0  0  0  0  0  0  0  0  0  0
    9.2157    7.1152    3.1908 H   0  0  0  0  0  0  0  0  0  0  0  0
   11.4737    6.5317    1.8364 H   0  0  0  0  0  0  0  0  0  0  0  0
   11.4958    6.9999    3.5652 H   0  0  0  0  0  0  0  0  0  0  0  0
   11.7524    8.9793    1.2652 H   0  0  0  0  0  0  0  0  0  0  0  0
   13.8459    9.0645    1.1030 H   0  0  0  0  0  0  0  0  0  0  0  0
   13.3413    6.8735    0.3567 H   0  0  0  0  0  0  0  0  0  0  0  0
   13.9244    6.1928    1.9314 H   0  0  0  0  0  0  0  0  0  0  0  0
   15.0594    7.0779    0.8479 H   0  0  0  0  0  0  0  0  0  0  0  0
   15.5937    8.5539    2.6315 H   0  0  0  0  0  0  0  0  0  0  0  0
   14.5676    9.8044    3.1018 H   0  0  0  0  0  0  0  0  0  0  0  0
   14.4339    8.2659    3.8350 H   0  0  0  0  0  0  0  0  0  0  0  0
   12.4575   10.5992    3.0035 H   0  0  0  0  0  0  0  0  0  0  0  0
   12.2747    9.3420    4.2719 H   0  0  0  0  0  0  0  0  0  0  0  0
   10.2702   11.1451    3.1293 H   0  0  0  0  0  0  0  0  0  0  0  0
   10.1366   10.0251    4.5091 H   0  0  0  0  0  0  0  0  0  0  0  0
  1  2  1  0
  2  3  1  0
  3  4  1  0
  4  5  1  0
  5  6  1  0
  6  7  1  0
  7  8  2  0
  7  9  1  0
  9 10  1  0
 10 11  1  0
 11 12  1  0
 12 13  1  0
 13 14  1  0
 13 15  1  0
 12 16  1  0
 16 17  1  0
 17  9  1  0
  1 18  1  0
  1 19  1  0
  1 20  1  0
  2 21  1  0
  2 22  1  0
  3 23  1  0
  4 24  1  0
  4 25  1  0
  5 26  1  0
  5 27  1  0
  6 28  1  0
  9 29  1  0
 10 30  1  0
 10 31  1  0
 11 32  1  0
 11 33  1  0
 12 34  1  0
 13 35  1  0
 14 36  1  0
 14 37  1  0
 14 38  1  0
 15 39  1  0
 15 40  1  0
 15 41  1  0
 16 42  1  0
 16 43  1  0
 17 44  1  0
 17 45  1  0
M  CHG  1  15   1
M  END
>  <EmbedRMS>  (90) 
0.25842907567579826

$$$$

     RDKit          3D

 45 45  0  0  0  0  0  0  0  0999 V2000
   13.9331    7.3326    1.0255 C   0  0  0  0  0  0  0  0  0  0  0  0
   13.7107    7.9149    2.4295 C   0  0  0  0  0  0  0  0  0  0  0  0
   14.6488    9.0167    2.6728 N   0  0  0  0  0  4  0  0  0  0  0  0
   12.2336    8.2986    2.7956 C   0  0  0  0  0  0  0  0  0  0  0  0
   11.1479    7.3149    2.3200 C   0  0  0  0  0  0  0  0  0  0  0  0
    9.7862    7.9355    2.0709 C   0  0  0  0  0  0  0  0  0  0  0  0
    9.4226    8.9836    3.1152 C   0  0  0  0  0  0  0  0  0  0  0  0
    8.0148    9.4645    2.8707 C   0  0  0  0  0  0  0  0  0  0  0  0
    7.6111    9.6884    1.6939 O   0  0  0  0  0  0  0  0  0  0  0  0
    7.1447    9.6870    3.9796 N   0  0  0  0  0  0  0  0  0  0  0  0
    5.7754   10.1544    3.7907 C   0  0  0  0  0  0  0  0  0  0  0  0
    5.0779   10.3101    5.1377 C   0  0  0  0  0  0  0  0  0  0  0  0
    4.8732    8.9858    5.7602 N   0  0  0  0  0  0  0  0  0  0  0  0
    3.5334    8.4754    5.4313 C   0  0  0  0  0  0  0  0  0  0  0  0
    5.0031    9.0916    7.2195 C   0  0  0  0  0  0  0  0  0  0  0  0
   10.3941   10.1678    3.0611 C   0  0  0  0  0  0  0  0  0  0  0  0
   11.8861    9.7889    2.9950 C   0  0  0  0  0  0  0  0  0  0  0  0
   13.5382    6.2974    0.9560 H   0  0  0  0  0  0  0  0  0  0  0  0
   15.0174    7.2758    0.7911 H   0  0  0  0  0  0  0  0  0  0  0  0
   13.4416    7.9747    0.2642 H   0  0  0  0  0  0  0  0  0  0  0  0
   14.0081    7.0850    3.1153 H   0  0  0  0  0  0  0  0  0  0  0  0
   15.6321    8.6702    2.5841 H   0  0  0  0  0  0  0  0  0  0  0  0
   14.5096    9.7864    1.9793 H   0  0  0  0  0  0  0  0  0  0  0  0
   14.5407    9.3812    3.6464 H   0  0  0  0  0  0  0  0  0  0  0  0
   12.2374    8.0289    3.8802 H   0  0  0  0  0  0  0  0  0  0  0  0
   11.0315    6.4817    3.0520 H   0  0  0  0  0  0  0  0  0  0  0  0
   11.4324    6.8311    1.3672 H   0  0  0  0  0  0  0  0  0  0  0  0
    9.7918    8.4045    1.0604 H   0  0  0  0  0  0  0  0  0  0  0  0
    9.0211    7.1270    2.0614 H   0  0  0  0  0  0  0  0  0  0  0  0
    9.4835    8.5120    4.1217 H   0  0  0  0  0  0  0  0  0  0  0  0
    7.5095    9.5112    4.9440 H   0  0  0  0  0  0  0  0  0  0  0  0
    5.7952   11.1414    3.2797 H   0  0  0  0  0  0  0  0  0  0  0  0
    5.2191    9.4385    3.1486 H   0  0  0  0  0  0  0  0  0  0  0  0
    5.7143   10.9731    5.7693 H   0  0  0  0  0  0  0  0  0  0  0  0
    4.1169   10.8562    4.9938 H   0  0  0  0  0  0  0  0  0  0  0  0
    2.7323    9.1242    5.8524 H   0  0  0  0  0  0  0  0  0  0  0  0
    3.4024    8.4107    4.3301 H   0  0  0  0  0  0  0  0  0  0  0  0
    3.4101    7.4468    5.8336 H   0  0  0  0  0  0  0  0  0  0  0  0
    4.8205    8.1040    7.6961 H   0  0  0  0  0  0  0  0  0  0  0  0
    6.0391    9.3921    7.4875 H   0  0  0  0  0  0  0  0  0  0  0  0
    4.2878    9.8353    7.6379 H   0  0  0  0  0  0  0  0  0  0  0  0
   10.2188   10.8136    3.9500 H   0  0  0  0  0  0  0  0  0  0  0  0
   10.1540   10.7903    2.1687 H   0  0  0  0  0  0  0  0  0  0  0  0
   12.3157   10.3469    2.1360 H   0  0  0  0  0  0  0  0  0  0  0  0
   12.3916   10.1919    3.9024 H   0  0  0  0  0  0  0  0  0  0  0  0
  1  2  1  0
  2  3  1  0
  2  4  1  0
  4  5  1  0
  5  6  1  0
  6  7  1  0
  7  8  1  0
  8  9  2  0
  8 10  1  0
 10 11  1  0
 11 12  1  0
 12 13  1  0
 13 14  1  0
 13 15  1  0
  7 16  1  0
 16 17  1  0
 17  4  1  0
  1 18  1  0
  1 19  1  0
  1 20  1  0
  2 21  1  0
  3 22  1  0
  3 23  1  0
  3 24  1  0
  4 25  1  0
  5 26  1  0
  5 27  1  0
  6 28  1  0
  6 29  1  0
  7 30  1  0
 10 31  1  0
 11 32  1  0
 11 33  1  0
 12 34  1  0
 12 35  1  0
 14 36  1  0
 14 37  1  0
 14 38  1  0
 15 39  1  0
 15 40  1  0
 15 41  1  0
 16 42  1  0
 16 43  1  0
 17 44  1  0
 17 45  1  0
M  CHG  1   3   1
M  END
>  <EmbedRMS>  (91) 
0.1707968305671159

$$$$

     RDKit          3D

 45 46  0  0  0  0  0  0  0  0999 V2000
   13.9230    7.3283    1.0384 C   0  0  0  0  0  0  0  0  0  0  0  0
   13.7082    7.9206    2.4414 C   0  0  0  0  0  0  0  0  0  0  0  0
   14.6429    9.0266    2.6699 N   0  0  0  0  0  4  0  0  0  0  0  0
   12.2304    8.2926    2.8221 C   0  0  0  0  0  0  0  0  0  0  0  0
   11.1747    7.4135    2.1523 C   0  0  0  0  0  0  0  0  0  0  0  0
    9.7361    7.7222    2.5385 C   0  0  0  0  0  0  0  0  0  0  0  0
    9.4545    9.2021    2.6280 C   0  0  0  0  0  0  0  0  0  0  0  0
    7.9953    9.5423    2.7113 C   0  0  0  0  0  0  0  0  0  0  0  0
    7.4425    9.7213    1.6008 O   0  0  0  0  0  0  0  0  0  0  0  0
    7.2156    9.6688    3.9169 N   0  0  0  0  0  0  0  0  0  0  0  0
    5.8167   10.1527    3.9014 C   0  0  0  0  0  0  0  0  0  0  0  0
    4.8850    9.2039    3.1043 C   0  0  0  0  0  0  0  0  0  0  0  0
    3.6866    9.9139    2.6404 N   0  0  0  0  0  0  0  0  0  0  0  0
    4.0088   11.0288    1.7248 C   0  0  0  0  0  0  0  0  0  0  0  0
    5.3588   11.5853    1.9364 N   0  0  0  0  0  0  0  0  0  0  0  0
    5.7193   11.5956    3.3573 C   0  0  0  0  0  0  0  0  0  0  0  0
   10.4255   10.0500    3.4172 C   0  0  0  0  0  0  0  0  0  0  0  0
   11.8803    9.7834    2.9991 C   0  0  0  0  0  0  0  0  0  0  0  0
   15.0001    7.1188    0.8648 H   0  0  0  0  0  0  0  0  0  0  0  0
   13.3788    6.3674    0.9249 H   0  0  0  0  0  0  0  0  0  0  0  0
   13.5726    8.0448    0.2656 H   0  0  0  0  0  0  0  0  0  0  0  0
   14.0125    7.0964    3.1297 H   0  0  0  0  0  0  0  0  0  0  0  0
   14.5992    9.3362    3.6675 H   0  0  0  0  0  0  0  0  0  0  0  0
   14.4334    9.8273    2.0310 H   0  0  0  0  0  0  0  0  0  0  0  0
   15.6237    8.7090    2.4918 H   0  0  0  0  0  0  0  0  0  0  0  0
   12.1646    7.9494    3.8819 H   0  0  0  0  0  0  0  0  0  0  0  0
   11.2471    7.5597    1.0529 H   0  0  0  0  0  0  0  0  0  0  0  0
   11.3812    6.3406    2.3625 H   0  0  0  0  0  0  0  0  0  0  0  0
    9.0507    7.2390    1.8063 H   0  0  0  0  0  0  0  0  0  0  0  0
    9.5313    7.2712    3.5340 H   0  0  0  0  0  0  0  0  0  0  0  0
    9.7156    9.5307    1.5909 H   0  0  0  0  0  0  0  0  0  0  0  0
    7.6673    9.4494    4.8328 H   0  0  0  0  0  0  0  0  0  0  0  0
    5.4541   10.1758    4.9537 H   0  0  0  0  0  0  0  0  0  0  0  0
    5.3817    8.7338    2.2334 H   0  0  0  0  0  0  0  0  0  0  0  0
    4.5752    8.3664    3.7663 H   0  0  0  0  0  0  0  0  0  0  0  0
    3.1844   10.2963    3.4767 H   0  0  0  0  0  0  0  0  0  0  0  0
    3.2446   11.8322    1.8353 H   0  0  0  0  0  0  0  0  0  0  0  0
    3.9431   10.6571    0.6808 H   0  0  0  0  0  0  0  0  0  0  0  0
    5.3662   12.5726    1.5884 H   0  0  0  0  0  0  0  0  0  0  0  0
    6.6905   12.1209    3.4911 H   0  0  0  0  0  0  0  0  0  0  0  0
    4.9568   12.1680    3.9340 H   0  0  0  0  0  0  0  0  0  0  0  0
   10.1932   11.1298    3.2822 H   0  0  0  0  0  0  0  0  0  0  0  0
   10.3089    9.8085    4.4959 H   0  0  0  0  0  0  0  0  0  0  0  0
   12.5391   10.2592    3.7561 H   0  0  0  0  0  0  0  0  0  0  0  0
   12.0597   10.2956    2.0290 H   0  0  0  0  0  0  0  0  0  0  0  0
  1  2  1  0
  2  3  1  0
  2  4  1  0
  4  5  1  0
  5  6  1  0
  6  7  1  0
  7  8  1  0
  8  9  2  0
  8 10  1  0
 10 11  1  0
 11 12  1  0
 12 13  1  0
 13 14  1  0
 14 15  1  0
 15 16  1  0
  7 17  1  0
 17 18  1  0
 18  4  1  0
 16 11  1  0
  1 19  1  0
  1 20  1  0
  1 21  1  0
  2 22  1  0
  3 23  1  0
  3 24  1  0
  3 25  1  0
  4 26  1  0
  5 27  1  0
  5 28  1  0
  6 29  1  0
  6 30  1  0
  7 31  1  0
 10 32  1  0
 11 33  1  0
 12 34  1  0
 12 35  1  0
 13 36  1  0
 14 37  1  0
 14 38  1  0
 15 39  1  0
 16 40  1  0
 16 41  1  0
 17 42  1  0
 17 43  1  0
 18 44  1  0
 18 45  1  0
M  CHG  1   3   1
M  END
>  <EmbedRMS>  (92) 
0.26156577150076415

$$$$

     RDKit          3D

 37 37  0  0  0  0  0  0  0  0999 V2000
    4.9010    8.9493    3.3214 C   0  0  0  0  0  0  0  0  0  0  0  0
    5.7477   10.1185    3.8091 C   0  0  0  0  0  0  0  0  0  0  0  0
    7.1378    9.7075    3.9757 N   0  0  0  0  0  0  0  0  0  0  0  0
    8.0091    9.4709    2.8632 C   0  0  0  0  0  0  0  0  0  0  0  0
    7.6090    9.6877    1.6849 O   0  0  0  0  0  0  0  0  0  0  0  0
    9.4140    8.9898    3.1084 C   0  0  0  0  0  0  0  0  0  0  0  0
    9.7981    7.9225    2.0853 C   0  0  0  0  0  0  0  0  0  0  0  0
   11.1578    7.3127    2.3960 C   0  0  0  0  0  0  0  0  0  0  0  0
   12.2752    8.3218    2.7734 C   0  0  0  0  0  0  0  0  0  0  0  0
   13.5805    8.3571    1.9538 C   0  0  0  0  0  0  0  0  0  0  0  0
   13.9836    7.0985    1.1857 C   0  0  0  0  0  0  0  0  0  0  0  0
   14.7111    8.8839    2.7305 N   0  0  0  0  0  4  0  0  0  0  0  0
   11.8317    9.7194    3.3044 C   0  0  0  0  0  0  0  0  0  0  0  0
   10.3968   10.1516    3.0079 C   0  0  0  0  0  0  0  0  0  0  0  0
    4.9738    8.1023    4.0363 H   0  0  0  0  0  0  0  0  0  0  0  0
    5.2401    8.6114    2.3200 H   0  0  0  0  0  0  0  0  0  0  0  0
    3.8390    9.2647    3.2475 H   0  0  0  0  0  0  0  0  0  0  0  0
    5.6836   10.9644    3.0910 H   0  0  0  0  0  0  0  0  0  0  0  0
    5.3476   10.4660    4.7862 H   0  0  0  0  0  0  0  0  0  0  0  0
    7.5181    9.6307    4.9461 H   0  0  0  0  0  0  0  0  0  0  0  0
    9.4709    8.5475    4.1287 H   0  0  0  0  0  0  0  0  0  0  0  0
    9.8276    8.3613    1.0624 H   0  0  0  0  0  0  0  0  0  0  0  0
    9.0349    7.1124    2.0811 H   0  0  0  0  0  0  0  0  0  0  0  0
   11.0040    6.5968    3.2371 H   0  0  0  0  0  0  0  0  0  0  0  0
   11.4410    6.6836    1.5321 H   0  0  0  0  0  0  0  0  0  0  0  0
   12.6575    7.8399    3.7045 H   0  0  0  0  0  0  0  0  0  0  0  0
   13.3805    9.1010    1.1485 H   0  0  0  0  0  0  0  0  0  0  0  0
   15.0000    7.2116    0.7521 H   0  0  0  0  0  0  0  0  0  0  0  0
   13.2924    6.9108    0.3375 H   0  0  0  0  0  0  0  0  0  0  0  0
   13.9867    6.2216    1.8670 H   0  0  0  0  0  0  0  0  0  0  0  0
   14.9942    8.1900    3.4603 H   0  0  0  0  0  0  0  0  0  0  0  0
   14.4920    9.7901    3.1973 H   0  0  0  0  0  0  0  0  0  0  0  0
   15.5287    9.0531    2.1001 H   0  0  0  0  0  0  0  0  0  0  0  0
   12.4766   10.5261    2.8979 H   0  0  0  0  0  0  0  0  0  0  0  0
   11.9658    9.7500    4.4102 H   0  0  0  0  0  0  0  0  0  0  0  0
   10.3549   10.5873    1.9838 H   0  0  0  0  0  0  0  0  0  0  0  0
   10.1049   10.9541    3.7216 H   0  0  0  0  0  0  0  0  0  0  0  0
  1  2  1  0
  2  3  1  0
  3  4  1  0
  4  5  2  0
  4  6  1  0
  6  7  1  0
  7  8  1  0
  8  9  1  0
  9 10  1  0
 10 11  1  0
 10 12  1  0
  9 13  1  0
 13 14  1  0
 14  6  1  0
  1 15  1  0
  1 16  1  0
  1 17  1  0
  2 18  1  0
  2 19  1  0
  3 20  1  0
  6 21  1  0
  7 22  1  0
  7 23  1  0
  8 24  1  0
  8 25  1  0
  9 26  1  0
 10 27  1  0
 11 28  1  0
 11 29  1  0
 11 30  1  0
 12 31  1  0
 12 32  1  0
 12 33  1  0
 13 34  1  0
 13 35  1  0
 14 36  1  0
 14 37  1  0
M  CHG  1  12   1
M  END
>  <EmbedRMS>  (93) 
0.22880006867790334

$$$$

     RDKit          3D

 40 40  0  0  0  0  0  0  0  0999 V2000
    4.7996    8.8875    5.7514 C   0  0  0  0  0  0  0  0  0  0  0  0
    5.0467   10.2639    5.1374 C   0  0  0  0  0  0  0  0  0  0  0  0
    5.7665   10.1567    3.7915 C   0  0  0  0  0  0  0  0  0  0  0  0
    7.1428    9.7130    3.9787 N   0  0  0  0  0  0  0  0  0  0  0  0
    8.0146    9.4652    2.8756 C   0  0  0  0  0  0  0  0  0  0  0  0
    7.6236    9.6740    1.6923 O   0  0  0  0  0  0  0  0  0  0  0  0
    9.4117    8.9838    3.1514 C   0  0  0  0  0  0  0  0  0  0  0  0
    9.7887    7.8242    2.2110 C   0  0  0  0  0  0  0  0  0  0  0  0
   11.2406    7.3770    2.4518 C   0  0  0  0  0  0  0  0  0  0  0  0
   12.1580    8.5898    2.2119 C   0  0  0  0  0  0  0  0  0  0  0  0
   13.6694    8.3363    1.9396 C   0  0  0  0  0  0  0  0  0  0  0  0
   14.0282    7.0396    1.2342 C   0  0  0  0  0  0  0  0  0  0  0  0
   14.6135    8.7686    2.9623 N   0  0  0  0  0  4  0  0  0  0  0  0
   11.8558    9.6805    3.2543 C   0  0  0  0  0  0  0  0  0  0  0  0
   10.4065   10.1585    3.0871 C   0  0  0  0  0  0  0  0  0  0  0  0
    5.7572    8.3688    5.9654 H   0  0  0  0  0  0  0  0  0  0  0  0
    4.2454    9.0044    6.7064 H   0  0  0  0  0  0  0  0  0  0  0  0
    4.1898    8.2616    5.0655 H   0  0  0  0  0  0  0  0  0  0  0  0
    4.0659   10.7624    4.9797 H   0  0  0  0  0  0  0  0  0  0  0  0
    5.6383   10.8902    5.8402 H   0  0  0  0  0  0  0  0  0  0  0  0
    5.7713   11.1553    3.3036 H   0  0  0  0  0  0  0  0  0  0  0  0
    5.2272    9.4458    3.1277 H   0  0  0  0  0  0  0  0  0  0  0  0
    7.5227    9.5975    4.9460 H   0  0  0  0  0  0  0  0  0  0  0  0
    9.4460    8.5780    4.1877 H   0  0  0  0  0  0  0  0  0  0  0  0
    9.1131    6.9617    2.4015 H   0  0  0  0  0  0  0  0  0  0  0  0
    9.6593    8.1232    1.1467 H   0  0  0  0  0  0  0  0  0  0  0  0
   11.3694    6.9867    3.4850 H   0  0  0  0  0  0  0  0  0  0  0  0
   11.4634    6.5566    1.7393 H   0  0  0  0  0  0  0  0  0  0  0  0
   11.8029    9.0089    1.2373 H   0  0  0  0  0  0  0  0  0  0  0  0
   13.8833    9.0581    1.1114 H   0  0  0  0  0  0  0  0  0  0  0  0
   15.0833    7.0602    0.8857 H   0  0  0  0  0  0  0  0  0  0  0  0
   13.3773    6.8823    0.3472 H   0  0  0  0  0  0  0  0  0  0  0  0
   13.9078    6.1866    1.9345 H   0  0  0  0  0  0  0  0  0  0  0  0
   15.5897    8.5020    2.6974 H   0  0  0  0  0  0  0  0  0  0  0  0
   14.5964    9.8059    3.0880 H   0  0  0  0  0  0  0  0  0  0  0  0
   14.3778    8.3021    3.8677 H   0  0  0  0  0  0  0  0  0  0  0  0
   12.5089   10.5640    3.0952 H   0  0  0  0  0  0  0  0  0  0  0  0
   12.0205    9.2944    4.2841 H   0  0  0  0  0  0  0  0  0  0  0  0
   10.1719   10.8879    3.8931 H   0  0  0  0  0  0  0  0  0  0  0  0
   10.3038   10.6871    2.1128 H   0  0  0  0  0  0  0  0  0  0  0  0
  1  2  1  0
  2  3  1  0
  3  4  1  0
  4  5  1  0
  5  6  2  0
  5  7  1  0
  7  8  1  0
  8  9  1  0
  9 10  1  0
 10 11  1  0
 11 12  1  0
 11 13  1  0
 10 14  1  0
 14 15  1  0
 15  7  1  0
  1 16  1  0
  1 17  1  0
  1 18  1  0
  2 19  1  0
  2 20  1  0
  3 21  1  0
  3 22  1  0
  4 23  1  0
  7 24  1  0
  8 25  1  0
  8 26  1  0
  9 27  1  0
  9 28  1  0
 10 29  1  0
 11 30  1  0
 12 31  1  0
 12 32  1  0
 12 33  1  0
 13 34  1  0
 13 35  1  0
 13 36  1  0
 14 37  1  0
 14 38  1  0
 15 39  1  0
 15 40  1  0
M  CHG  1  13   1
M  END
>  <EmbedRMS>  (94) 
0.2000484947854372

$$$$

     RDKit          3D

 40 40  0  0  0  0  0  0  0  0999 V2000
    4.0783    9.0741    2.3917 C   0  0  0  0  0  0  0  0  0  0  0  0
    4.9927   10.2763    2.6092 C   0  0  0  0  0  0  0  0  0  0  0  0
    4.2343   11.4521    2.6392 O   0  0  0  0  0  0  0  0  0  0  0  0
    5.7637   10.1186    3.9070 C   0  0  0  0  0  0  0  0  0  0  0  0
    4.9578   10.3061    5.3277 S   0  0  0  0  0  0  0  0  0  0  0  0
    7.1382    9.7031    3.9715 N   0  0  0  0  0  0  0  0  0  0  0  0
    8.0294    9.4545    2.8733 C   0  0  0  0  0  0  0  0  0  0  0  0
    7.6875    9.6585    1.6788 O   0  0  0  0  0  0  0  0  0  0  0  0
    9.4197    8.9762    3.1641 C   0  0  0  0  0  0  0  0  0  0  0  0
    9.7964    7.8166    2.2218 C   0  0  0  0  0  0  0  0  0  0  0  0
   11.2481    7.3737    2.4576 C   0  0  0  0  0  0  0  0  0  0  0  0
   12.1608    8.5886    2.2132 C   0  0  0  0  0  0  0  0  0  0  0  0
   13.6715    8.3368    1.9392 C   0  0  0  0  0  0  0  0  0  0  0  0
   14.0301    7.0404    1.2332 C   0  0  0  0  0  0  0  0  0  0  0  0
   14.6158    8.7684    2.9619 N   0  0  0  0  0  4  0  0  0  0  0  0
   11.8602    9.6799    3.2556 C   0  0  0  0  0  0  0  0  0  0  0  0
   10.4103   10.1542    3.0933 C   0  0  0  0  0  0  0  0  0  0  0  0
    3.3305    8.9933    3.2093 H   0  0  0  0  0  0  0  0  0  0  0  0
    3.5349    9.1832    1.4289 H   0  0  0  0  0  0  0  0  0  0  0  0
    4.6781    8.1394    2.3530 H   0  0  0  0  0  0  0  0  0  0  0  0
    5.6181   10.3517    1.7120 H   0  0  0  0  0  0  0  0  0  0  0  0
    4.8744   12.2114    2.6031 H   0  0  0  0  0  0  0  0  0  0  0  0
    7.5364    9.5780    4.9301 H   0  0  0  0  0  0  0  0  0  0  0  0
    9.4520    8.5728    4.2013 H   0  0  0  0  0  0  0  0  0  0  0  0
    9.6655    8.1118    1.1565 H   0  0  0  0  0  0  0  0  0  0  0  0
    9.1236    6.9524    2.4151 H   0  0  0  0  0  0  0  0  0  0  0  0
   11.4702    6.5530    1.7453 H   0  0  0  0  0  0  0  0  0  0  0  0
   11.3815    6.9849    3.4909 H   0  0  0  0  0  0  0  0  0  0  0  0
   11.8031    9.0059    1.2388 H   0  0  0  0  0  0  0  0  0  0  0  0
   13.8842    9.0594    1.1115 H   0  0  0  0  0  0  0  0  0  0  0  0
   13.9119    6.1871    1.9336 H   0  0  0  0  0  0  0  0  0  0  0  0
   13.3780    6.8825    0.3472 H   0  0  0  0  0  0  0  0  0  0  0  0
   15.0847    7.0620    0.8829 H   0  0  0  0  0  0  0  0  0  0  0  0
   15.5920    8.5027    2.6961 H   0  0  0  0  0  0  0  0  0  0  0  0
   14.3809    8.3008    3.8669 H   0  0  0  0  0  0  0  0  0  0  0  0
   14.5983    9.8056    3.0887 H   0  0  0  0  0  0  0  0  0  0  0  0
   12.0293    9.2953    4.2853 H   0  0  0  0  0  0  0  0  0  0  0  0
   12.5108   10.5645    3.0931 H   0  0  0  0  0  0  0  0  0  0  0  0
   10.3040   10.6814    2.1185 H   0  0  0  0  0  0  0  0  0  0  0  0
   10.1768   10.8843    3.8991 H   0  0  0  0  0  0  0  0  0  0  0  0
  1  2  1  0
  2  3  1  0
  2  4  1  0
  4  5  2  0
  4  6  1  0
  6  7  1  0
  7  8  2  0
  7  9  1  0
  9 10  1  0
 10 11  1  0
 11 12  1  0
 12 13  1  0
 13 14  1  0
 13 15  1  0
 12 16  1  0
 16 17  1  0
 17  9  1  0
  1 18  1  0
  1 19  1  0
  1 20  1  0
  2 21  1  0
  3 22  1  0
  6 23  1  0
  9 24  1  0
 10 25  1  0
 10 26  1  0
 11 27  1  0
 11 28  1  0
 12 29  1  0
 13 30  1  0
 14 31  1  0
 14 32  1  0
 14 33  1  0
 15 34  1  0
 15 35  1  0
 15 36  1  0
 16 37  1  0
 16 38  1  0
 17 39  1  0
 17 40  1  0
M  CHG  1  15   1
M  END
>  <EmbedRMS>  (95) 
0.1912698769216706

$$$$

     RDKit          3D

 47 48  0  0  0  0  0  0  0  0999 V2000
   13.9867    7.0996    1.1844 C   0  0  0  0  0  0  0  0  0  0  0  0
   13.5836    8.3576    1.9536 C   0  0  0  0  0  0  0  0  0  0  0  0
   14.7148    8.8852    2.7285 N   0  0  0  0  0  4  0  0  0  0  0  0
   12.2816    8.3202    2.7762 C   0  0  0  0  0  0  0  0  0  0  0  0
   11.1686    7.3051    2.4045 C   0  0  0  0  0  0  0  0  0  0  0  0
    9.8124    7.9105    2.0871 C   0  0  0  0  0  0  0  0  0  0  0  0
    9.4235    8.9759    3.1087 C   0  0  0  0  0  0  0  0  0  0  0  0
    8.0267    9.4434    2.8384 C   0  0  0  0  0  0  0  0  0  0  0  0
    7.6582    9.6749    1.6525 O   0  0  0  0  0  0  0  0  0  0  0  0
    7.1126    9.6299    3.9179 N   0  0  0  0  0  0  0  0  0  0  0  0
    5.8159   10.2347    3.6729 C   0  0  0  0  0  0  0  0  0  0  0  0
    4.6506    9.2673    3.8303 C   0  0  0  0  0  0  0  0  0  0  0  0
    3.5165    9.3945    2.8515 C   0  0  0  0  0  0  0  0  0  0  0  0
    2.5294    8.3552    3.3585 C   0  0  0  0  0  0  0  0  0  0  0  0
    3.3722    7.2636    4.0385 C   0  0  0  0  0  0  0  0  0  0  0  0
    4.7967    7.8134    4.1887 C   0  0  0  0  0  0  0  0  0  0  0  0
   10.3991   10.1442    3.0092 C   0  0  0  0  0  0  0  0  0  0  0  0
   11.8348    9.7175    3.3059 C   0  0  0  0  0  0  0  0  0  0  0  0
   13.2938    6.9113    0.3376 H   0  0  0  0  0  0  0  0  0  0  0  0
   13.9929    6.2225    1.8655 H   0  0  0  0  0  0  0  0  0  0  0  0
   15.0019    7.2144    0.7484 H   0  0  0  0  0  0  0  0  0  0  0  0
   13.3810    9.1015    1.1490 H   0  0  0  0  0  0  0  0  0  0  0  0
   15.5303    9.0580    2.0963 H   0  0  0  0  0  0  0  0  0  0  0  0
   15.0018    8.1904    3.4559 H   0  0  0  0  0  0  0  0  0  0  0  0
   14.4947    9.7899    3.1981 H   0  0  0  0  0  0  0  0  0  0  0  0
   12.6680    7.8418    3.7074 H   0  0  0  0  0  0  0  0  0  0  0  0
   11.0136    6.5964    3.2516 H   0  0  0  0  0  0  0  0  0  0  0  0
   11.4541    6.6684    1.5470 H   0  0  0  0  0  0  0  0  0  0  0  0
    9.8483    8.3480    1.0637 H   0  0  0  0  0  0  0  0  0  0  0  0
    9.0514    7.0978    2.0793 H   0  0  0  0  0  0  0  0  0  0  0  0
    9.4725    8.5381    4.1313 H   0  0  0  0  0  0  0  0  0  0  0  0
    7.3716    9.3461    4.8896 H   0  0  0  0  0  0  0  0  0  0  0  0
    5.7068   11.0980    4.3687 H   0  0  0  0  0  0  0  0  0  0  0  0
    5.7709   10.6959    2.6629 H   0  0  0  0  0  0  0  0  0  0  0  0
    4.1956    9.6669    4.7735 H   0  0  0  0  0  0  0  0  0  0  0  0
    3.8660    9.1311    1.8288 H   0  0  0  0  0  0  0  0  0  0  0  0
    3.0715   10.4140    2.8542 H   0  0  0  0  0  0  0  0  0  0  0  0
    1.9294    7.9380    2.5211 H   0  0  0  0  0  0  0  0  0  0  0  0
    1.8420    8.8191    4.1006 H   0  0  0  0  0  0  0  0  0  0  0  0
    3.3843    6.3415    3.4172 H   0  0  0  0  0  0  0  0  0  0  0  0
    2.9451    7.0165    5.0350 H   0  0  0  0  0  0  0  0  0  0  0  0
    5.4779    7.3176    3.4630 H   0  0  0  0  0  0  0  0  0  0  0  0
    5.1854    7.6744    5.2221 H   0  0  0  0  0  0  0  0  0  0  0  0
   10.3569   10.5802    1.9852 H   0  0  0  0  0  0  0  0  0  0  0  0
   10.1024   10.9444    3.7234 H   0  0  0  0  0  0  0  0  0  0  0  0
   12.4777   10.5256    2.8987 H   0  0  0  0  0  0  0  0  0  0  0  0
   11.9688    9.7495    4.4116 H   0  0  0  0  0  0  0  0  0  0  0  0
  1  2  1  0
  2  3  1  0
  2  4  1  0
  4  5  1  0
  5  6  1  0
  6  7  1  0
  7  8  1  0
  8  9  2  0
  8 10  1  0
 10 11  1  0
 11 12  1  0
 12 13  1  0
 13 14  1  0
 14 15  1  0
 15 16  1  0
  7 17  1  0
 17 18  1  0
 18  4  1  0
 16 12  1  0
  1 19  1  0
  1 20  1  0
  1 21  1  0
  2 22  1  0
  3 23  1  0
  3 24  1  0
  3 25  1  0
  4 26  1  0
  5 27  1  0
  5 28  1  0
  6 29  1  0
  6 30  1  0
  7 31  1  0
 10 32  1  0
 11 33  1  0
 11 34  1  0
 12 35  1  0
 13 36  1  0
 13 37  1  0
 14 38  1  0
 14 39  1  0
 15 40  1  0
 15 41  1  0
 16 42  1  0
 16 43  1  0
 17 44  1  0
 17 45  1  0
 18 46  1  0
 18 47  1  0
M  CHG  1   3   1
M  END
>  <EmbedRMS>  (96) 
0.2701286003923815

$$$$

     RDKit          3D

 37 37  0  0  0  0  0  0  0  0999 V2000
    4.9010    8.9493    3.3214 C   0  0  0  0  0  0  0  0  0  0  0  0
    5.7477   10.1185    3.8091 C   0  0  0  0  0  0  0  0  0  0  0  0
    7.1378    9.7075    3.9757 N   0  0  0  0  0  0  0  0  0  0  0  0
    8.0091    9.4709    2.8632 C   0  0  0  0  0  0  0  0  0  0  0  0
    7.6090    9.6877    1.6849 O   0  0  0  0  0  0  0  0  0  0  0  0
    9.4140    8.9898    3.1084 C   0  0  0  0  0  0  0  0  0  0  0  0
    9.7981    7.9225    2.0853 C   0  0  0  0  0  0  0  0  0  0  0  0
   11.1578    7.3127    2.3960 C   0  0  0  0  0  0  0  0  0  0  0  0
   12.2752    8.3218    2.7734 C   0  0  0  0  0  0  0  0  0  0  0  0
   13.5805    8.3571    1.9538 C   0  0  0  0  0  0  0  0  0  0  0  0
   13.9836    7.0985    1.1857 C   0  0  0  0  0  0  0  0  0  0  0  0
   14.7111    8.8839    2.7305 N   0  0  0  0  0  4  0  0  0  0  0  0
   11.8317    9.7194    3.3044 C   0  0  0  0  0  0  0  0  0  0  0  0
   10.3968   10.1516    3.0079 C   0  0  0  0  0  0  0  0  0  0  0  0
    4.9738    8.1023    4.0363 H   0  0  0  0  0  0  0  0  0  0  0  0
    5.2401    8.6114    2.3200 H   0  0  0  0  0  0  0  0  0  0  0  0
    3.8390    9.2647    3.2475 H   0  0  0  0  0  0  0  0  0  0  0  0
    5.6836   10.9644    3.0910 H   0  0  0  0  0  0  0  0  0  0  0  0
    5.3476   10.4660    4.7862 H   0  0  0  0  0  0  0  0  0  0  0  0
    7.5181    9.6307    4.9461 H   0  0  0  0  0  0  0  0  0  0  0  0
    9.4709    8.5475    4.1287 H   0  0  0  0  0  0  0  0  0  0  0  0
    9.8276    8.3613    1.0624 H   0  0  0  0  0  0  0  0  0  0  0  0
    9.0349    7.1124    2.0811 H   0  0  0  0  0  0  0  0  0  0  0  0
   11.0040    6.5968    3.2371 H   0  0  0  0  0  0  0  0  0  0  0  0
   11.4410    6.6836    1.5321 H   0  0  0  0  0  0  0  0  0  0  0  0
   12.6575    7.8399    3.7045 H   0  0  0  0  0  0  0  0  0  0  0  0
   13.3805    9.1010    1.1485 H   0  0  0  0  0  0  0  0  0  0  0  0
   15.0000    7.2116    0.7521 H   0  0  0  0  0  0  0  0  0  0  0  0
   13.2924    6.9108    0.3375 H   0  0  0  0  0  0  0  0  0  0  0  0
   13.9867    6.2216    1.8670 H   0  0  0  0  0  0  0  0  0  0  0  0
   14.9942    8.1900    3.4603 H   0  0  0  0  0  0  0  0  0  0  0  0
   14.4920    9.7901    3.1973 H   0  0  0  0  0  0  0  0  0  0  0  0
   15.5287    9.0531    2.1001 H   0  0  0  0  0  0  0  0  0  0  0  0
   12.4766   10.5261    2.8979 H   0  0  0  0  0  0  0  0  0  0  0  0
   11.9658    9.7500    4.4102 H   0  0  0  0  0  0  0  0  0  0  0  0
   10.3549   10.5873    1.9838 H   0  0  0  0  0  0  0  0  0  0  0  0
   10.1049   10.9541    3.7216 H   0  0  0  0  0  0  0  0  0  0  0  0
  1  2  1  0
  2  3  1  0
  3  4  1  0
  4  5  2  0
  4  6  1  0
  6  7  1  0
  7  8  1  0
  8  9  1  0
  9 10  1  0
 10 11  1  0
 10 12  1  0
  9 13  1  0
 13 14  1  0
 14  6  1  0
  1 15  1  0
  1 16  1  0
  1 17  1  0
  2 18  1  0
  2 19  1  0
  3 20  1  0
  6 21  1  0
  7 22  1  0
  7 23  1  0
  8 24  1  0
  8 25  1  0
  9 26  1  0
 10 27  1  0
 11 28  1  0
 11 29  1  0
 11 30  1  0
 12 31  1  0
 12 32  1  0
 12 33  1  0
 13 34  1  0
 13 35  1  0
 14 36  1  0
 14 37  1  0
M  CHG  1  12   1
M  END
>  <EmbedRMS>  (97) 
0.22880006867790334

$$$$

     RDKit          3D

 42 42  0  0  0  0  0  0  0  0999 V2000
   14.0110    7.0505    1.2528 C   0  0  0  0  0  0  0  0  0  0  0  0
   13.6005    8.3243    1.9898 C   0  0  0  0  0  0  0  0  0  0  0  0
   14.7026    8.8916    2.7694 N   0  0  0  0  0  4  0  0  0  0  0  0
   12.2613    8.3272    2.7674 C   0  0  0  0  0  0  0  0  0  0  0  0
   11.1790    7.4403    2.1348 C   0  0  0  0  0  0  0  0  0  0  0  0
    9.7443    7.7263    2.5463 C   0  0  0  0  0  0  0  0  0  0  0  0
    9.4492    9.2018    2.6421 C   0  0  0  0  0  0  0  0  0  0  0  0
    7.9874    9.5271    2.7285 C   0  0  0  0  0  0  0  0  0  0  0  0
    7.4181    9.6849    1.6206 O   0  0  0  0  0  0  0  0  0  0  0  0
    7.2187    9.6821    3.9349 N   0  0  0  0  0  0  0  0  0  0  0  0
    5.8189   10.1170    3.8146 C   0  0  0  0  0  0  0  0  0  0  0  0
    5.1334   10.2659    5.1694 C   0  0  0  0  0  0  0  0  0  0  0  0
    3.7505   10.7132    4.9895 N   0  0  0  0  0  0  0  0  0  0  0  0
    2.8774   10.9284    6.1003 C   0  0  0  0  0  0  0  0  0  0  0  0
    3.2808   10.7322    7.2779 O   0  0  0  0  0  0  0  0  0  0  0  0
    1.5730   11.3572    5.8773 O   0  0  0  0  0  0  0  0  0  0  0  0
   10.3860   10.0198    3.4861 C   0  0  0  0  0  0  0  0  0  0  0  0
   11.8495    9.7807    3.1220 C   0  0  0  0  0  0  0  0  0  0  0  0
   14.9821    7.1931    0.7324 H   0  0  0  0  0  0  0  0  0  0  0  0
   14.1177    6.2179    1.9794 H   0  0  0  0  0  0  0  0  0  0  0  0
   13.2664    6.7640    0.4820 H   0  0  0  0  0  0  0  0  0  0  0  0
   13.4362    9.0285    1.1410 H   0  0  0  0  0  0  0  0  0  0  0  0
   14.5208    9.8924    3.0067 H   0  0  0  0  0  0  0  0  0  0  0  0
   15.5921    8.8662    2.2197 H   0  0  0  0  0  0  0  0  0  0  0  0
   14.8377    8.3419    3.6487 H   0  0  0  0  0  0  0  0  0  0  0  0
   12.4686    7.8402    3.7470 H   0  0  0  0  0  0  0  0  0  0  0  0
   11.2118    7.5937    1.0339 H   0  0  0  0  0  0  0  0  0  0  0  0
   11.4059    6.3674    2.3223 H   0  0  0  0  0  0  0  0  0  0  0  0
    9.5622    7.2690    3.5434 H   0  0  0  0  0  0  0  0  0  0  0  0
    9.0533    7.2374    1.8231 H   0  0  0  0  0  0  0  0  0  0  0  0
    9.7207    9.5612    1.6183 H   0  0  0  0  0  0  0  0  0  0  0  0
    7.6622    9.5169    4.8664 H   0  0  0  0  0  0  0  0  0  0  0  0
    5.2573    9.3711    3.2099 H   0  0  0  0  0  0  0  0  0  0  0  0
    5.7871   11.0961    3.2875 H   0  0  0  0  0  0  0  0  0  0  0  0
    5.1403    9.2868    5.6958 H   0  0  0  0  0  0  0  0  0  0  0  0
    5.6855   11.0108    5.7825 H   0  0  0  0  0  0  0  0  0  0  0  0
    3.3717   10.8850    4.0301 H   0  0  0  0  0  0  0  0  0  0  0  0
    0.9386   11.5153    6.6511 H   0  0  0  0  0  0  0  0  0  0  0  0
   10.1484   11.1029    3.3903 H   0  0  0  0  0  0  0  0  0  0  0  0
   10.2339    9.7352    4.5500 H   0  0  0  0  0  0  0  0  0  0  0  0
   12.4719   10.1526    3.9648 H   0  0  0  0  0  0  0  0  0  0  0  0
   12.0636   10.4402    2.2521 H   0  0  0  0  0  0  0  0  0  0  0  0
  1  2  1  0
  2  3  1  0
  2  4  1  0
  4  5  1  0
  5  6  1  0
  6  7  1  0
  7  8  1  0
  8  9  2  0
  8 10  1  0
 10 11  1  0
 11 12  1  0
 12 13  1  0
 13 14  1  0
 14 15  2  0
 14 16  1  0
  7 17  1  0
 17 18  1  0
 18  4  1  0
  1 19  1  0
  1 20  1  0
  1 21  1  0
  2 22  1  0
  3 23  1  0
  3 24  1  0
  3 25  1  0
  4 26  1  0
  5 27  1  0
  5 28  1  0
  6 29  1  0
  6 30  1  0
  7 31  1  0
 10 32  1  0
 11 33  1  0
 11 34  1  0
 12 35  1  0
 12 36  1  0
 13 37  1  0
 16 38  1  0
 17 39  1  0
 17 40  1  0
 18 41  1  0
 18 42  1  0
M  CHG  1   3   1
M  END
>  <EmbedRMS>  (98) 
0.2924325341636962

$$$$

     RDKit          3D

 39 39  0  0  0  0  0  0  0  0999 V2000
    5.6600   12.2367    2.5177 C   0  0  0  0  0  0  0  0  0  0  0  0
    5.1570   10.8147    2.7393 C   0  0  0  0  0  0  0  0  0  0  0  0
    5.8307   10.1823    3.9385 C   0  0  0  0  0  0  0  0  0  0  0  0
    5.0169   10.2566    5.3597 S   0  0  0  0  0  0  0  0  0  0  0  0
    7.2011    9.6964    3.9286 N   0  0  0  0  0  0  0  0  0  0  0  0
    7.9824    9.5231    2.7274 C   0  0  0  0  0  0  0  0  0  0  0  0
    7.4408    9.6527    1.6056 O   0  0  0  0  0  0  0  0  0  0  0  0
    9.4457    9.1947    2.6695 C   0  0  0  0  0  0  0  0  0  0  0  0
    9.7661    7.7156    2.4355 C   0  0  0  0  0  0  0  0  0  0  0  0
   11.2644    7.3648    2.5420 C   0  0  0  0  0  0  0  0  0  0  0  0
   12.1438    8.5872    2.2342 C   0  0  0  0  0  0  0  0  0  0  0  0
   13.6546    8.3400    1.9338 C   0  0  0  0  0  0  0  0  0  0  0  0
   14.0132    7.0449    1.2248 C   0  0  0  0  0  0  0  0  0  0  0  0
   14.6180    8.7738    2.9399 N   0  0  0  0  0  4  0  0  0  0  0  0
   11.8915    9.6855    3.2882 C   0  0  0  0  0  0  0  0  0  0  0  0
   10.4069   10.0816    3.4420 C   0  0  0  0  0  0  0  0  0  0  0  0
    5.4635   12.8600    3.4162 H   0  0  0  0  0  0  0  0  0  0  0  0
    6.7503   12.2352    2.3076 H   0  0  0  0  0  0  0  0  0  0  0  0
    5.1329   12.6870    1.6504 H   0  0  0  0  0  0  0  0  0  0  0  0
    4.0614   10.8757    2.9223 H   0  0  0  0  0  0  0  0  0  0  0  0
    5.2369   10.2013    1.8235 H   0  0  0  0  0  0  0  0  0  0  0  0
    7.6510    9.4511    4.8389 H   0  0  0  0  0  0  0  0  0  0  0  0
    9.6953    9.5882    1.6541 H   0  0  0  0  0  0  0  0  0  0  0  0
    9.2146    7.1100    3.1872 H   0  0  0  0  0  0  0  0  0  0  0  0
    9.3859    7.4036    1.4356 H   0  0  0  0  0  0  0  0  0  0  0  0
   11.4734    6.5323    1.8387 H   0  0  0  0  0  0  0  0  0  0  0  0
   11.4953    7.0011    3.5674 H   0  0  0  0  0  0  0  0  0  0  0  0
   11.7509    8.9805    1.2674 H   0  0  0  0  0  0  0  0  0  0  0  0
   13.8442    9.0654    1.1037 H   0  0  0  0  0  0  0  0  0  0  0  0
   15.0580    7.0790    0.8475 H   0  0  0  0  0  0  0  0  0  0  0  0
   13.3396    6.8743    0.3574 H   0  0  0  0  0  0  0  0  0  0  0  0
   13.9239    6.1935    1.9316 H   0  0  0  0  0  0  0  0  0  0  0  0
   14.5662    9.8048    3.1030 H   0  0  0  0  0  0  0  0  0  0  0  0
   15.5932    8.5558    2.6303 H   0  0  0  0  0  0  0  0  0  0  0  0
   14.4350    8.2654    3.8347 H   0  0  0  0  0  0  0  0  0  0  0  0
   12.4548   10.6009    3.0049 H   0  0  0  0  0  0  0  0  0  0  0  0
   12.2775    9.3435    4.2737 H   0  0  0  0  0  0  0  0  0  0  0  0
   10.1377   10.0227    4.5188 H   0  0  0  0  0  0  0  0  0  0  0  0
   10.2664   11.1454    3.1411 H   0  0  0  0  0  0  0  0  0  0  0  0
  1  2  1  0
  2  3  1  0
  3  4  2  0
  3  5  1  0
  5  6  1  0
  6  7  2  0
  6  8  1  0
  8  9  1  0
  9 10  1  0
 10 11  1  0
 11 12  1  0
 12 13  1  0
 12 14  1  0
 11 15  1  0
 15 16  1  0
 16  8  1  0
  1 17  1  0
  1 18  1  0
  1 19  1  0
  2 20  1  0
  2 21  1  0
  5 22  1  0
  8 23  1  0
  9 24  1  0
  9 25  1  0
 10 26  1  0
 10 27  1  0
 11 28  1  0
 12 29  1  0
 13 30  1  0
 13 31  1  0
 13 32  1  0
 14 33  1  0
 14 34  1  0
 14 35  1  0
 15 36  1  0
 15 37  1  0
 16 38  1  0
 16 39  1  0
M  CHG  1  14   1
M  END
>  <EmbedRMS>  (99) 
0.26587366078586644

$$$$

     RDKit          3D

 46 47  0  0  0  0  0  0  0  0999 V2000
   14.0267    7.0401    1.2345 C   0  0  0  0  0  0  0  0  0  0  0  0
   13.6677    8.3369    1.9399 C   0  0  0  0  0  0  0  0  0  0  0  0
   14.6122    8.7693    2.9622 N   0  0  0  0  0  4  0  0  0  0  0  0
   12.1560    8.5905    2.2126 C   0  0  0  0  0  0  0  0  0  0  0  0
   11.2388    7.3779    2.4535 C   0  0  0  0  0  0  0  0  0  0  0  0
    9.7860    7.8251    2.2158 C   0  0  0  0  0  0  0  0  0  0  0  0
    9.4085    8.9843    3.1581 C   0  0  0  0  0  0  0  0  0  0  0  0
    8.0095    9.4641    2.8836 C   0  0  0  0  0  0  0  0  0  0  0  0
    7.6247    9.6784    1.6990 O   0  0  0  0  0  0  0  0  0  0  0  0
    7.1243    9.6922    3.9861 N   0  0  0  0  0  0  0  0  0  0  0  0
    5.7674   10.1939    3.8166 C   0  0  0  0  0  0  0  0  0  0  0  0
    5.7978   11.6684    3.5440 C   0  0  0  0  0  0  0  0  0  0  0  0
    5.5809   12.1534    2.2460 C   0  0  0  0  0  0  0  0  0  0  0  0
    5.6212   13.5261    1.9938 C   0  0  0  0  0  0  0  0  0  0  0  0
    5.8839   14.4226    3.0325 C   0  0  0  0  0  0  0  0  0  0  0  0
    6.1127   13.9486    4.3315 C   0  0  0  0  0  0  0  0  0  0  0  0
    6.3839   14.8658    5.3934 N   0  0  0  0  0  0  0  0  0  0  0  0
    6.0740   12.5704    4.5836 C   0  0  0  0  0  0  0  0  0  0  0  0
   10.4034   10.1590    3.0894 C   0  0  0  0  0  0  0  0  0  0  0  0
   11.8538    9.6818    3.2546 C   0  0  0  0  0  0  0  0  0  0  0  0
   15.0817    7.0609    0.8857 H   0  0  0  0  0  0  0  0  0  0  0  0
   13.3754    6.8825    0.3478 H   0  0  0  0  0  0  0  0  0  0  0  0
   13.9066    6.1871    1.9349 H   0  0  0  0  0  0  0  0  0  0  0  0
   13.8811    9.0586    1.1116 H   0  0  0  0  0  0  0  0  0  0  0  0
   15.5885    8.5037    2.6965 H   0  0  0  0  0  0  0  0  0  0  0  0
   14.3774    8.3022    3.8675 H   0  0  0  0  0  0  0  0  0  0  0  0
   14.5942    9.8065    3.0885 H   0  0  0  0  0  0  0  0  0  0  0  0
   11.8002    9.0091    1.2381 H   0  0  0  0  0  0  0  0  0  0  0  0
   11.4605    6.5579    1.7402 H   0  0  0  0  0  0  0  0  0  0  0  0
   11.3694    6.9871    3.4863 H   0  0  0  0  0  0  0  0  0  0  0  0
    9.1112    6.9620    2.4065 H   0  0  0  0  0  0  0  0  0  0  0  0
    9.6547    8.1248    1.1519 H   0  0  0  0  0  0  0  0  0  0  0  0
    9.4445    8.5806    4.1950 H   0  0  0  0  0  0  0  0  0  0  0  0
    7.4560    9.4987    4.9581 H   0  0  0  0  0  0  0  0  0  0  0  0
    5.2552    9.6364    3.0020 H   0  0  0  0  0  0  0  0  0  0  0  0
    5.1884   10.0093    4.7476 H   0  0  0  0  0  0  0  0  0  0  0  0
    5.3773   11.4714    1.4298 H   0  0  0  0  0  0  0  0  0  0  0  0
    5.4492   13.8963    0.9914 H   0  0  0  0  0  0  0  0  0  0  0  0
    5.9119   15.4849    2.8252 H   0  0  0  0  0  0  0  0  0  0  0  0
    6.5561   14.5235    6.3650 H   0  0  0  0  0  0  0  0  0  0  0  0
    6.4150   15.8947    5.2164 H   0  0  0  0  0  0  0  0  0  0  0  0
    6.2549   12.2007    5.5859 H   0  0  0  0  0  0  0  0  0  0  0  0
   10.1697   10.8901    3.8943 H   0  0  0  0  0  0  0  0  0  0  0  0
   10.2984   10.6859    2.1144 H   0  0  0  0  0  0  0  0  0  0  0  0
   12.0201    9.2964    4.2845 H   0  0  0  0  0  0  0  0  0  0  0  0
   12.5061   10.5654    3.0942 H   0  0  0  0  0  0  0  0  0  0  0  0
  1  2  1  0
  2  3  1  0
  2  4  1  0
  4  5  1  0
  5  6  1  0
  6  7  1  0
  7  8  1  0
  8  9  2  0
  8 10  1  0
 10 11  1  0
 11 12  1  0
 12 13  2  0
 13 14  1  0
 14 15  2  0
 15 16  1  0
 16 17  1  0
 16 18  2  0
  7 19  1  0
 19 20  1  0
 20  4  1  0
 18 12  1  0
  1 21  1  0
  1 22  1  0
  1 23  1  0
  2 24  1  0
  3 25  1  0
  3 26  1  0
  3 27  1  0
  4 28  1  0
  5 29  1  0
  5 30  1  0
  6 31  1  0
  6 32  1  0
  7 33  1  0
 10 34  1  0
 11 35  1  0
 11 36  1  0
 13 37  1  0
 14 38  1  0
 15 39  1  0
 17 40  1  0
 17 41  1  0
 18 42  1  0
 19 43  1  0
 19 44  1  0
 20 45  1  0
 20 46  1  0
M  CHG  1   3   1
M  END
>  <EmbedRMS>  (100) 
0.17309954011637427

$$$$

     RDKit          3D

 39 39  0  0  0  0  0  0  0  0999 V2000
   14.0279    7.0398    1.2343 C   0  0  0  0  0  0  0  0  0  0  0  0
   13.6691    8.3365    1.9397 C   0  0  0  0  0  0  0  0  0  0  0  0
   14.6132    8.7687    2.9623 N   0  0  0  0  0  4  0  0  0  0  0  0
   12.1576    8.5899    2.2120 C   0  0  0  0  0  0  0  0  0  0  0  0
   11.2403    7.3773    2.4521 C   0  0  0  0  0  0  0  0  0  0  0  0
    9.7882    7.8244    2.2120 C   0  0  0  0  0  0  0  0  0  0  0  0
    9.4110    8.9839    3.1528 C   0  0  0  0  0  0  0  0  0  0  0  0
    8.0130    9.4644    2.8776 C   0  0  0  0  0  0  0  0  0  0  0  0
    7.6231    9.6752    1.6942 O   0  0  0  0  0  0  0  0  0  0  0  0
    7.1378    9.7062    3.9804 N   0  0  0  0  0  0  0  0  0  0  0  0
    5.7556   10.1301    3.7908 C   0  0  0  0  0  0  0  0  0  0  0  0
    5.0620   10.3118    5.1402 C   0  0  0  0  0  0  0  0  0  0  0  0
    5.6764   11.4079    5.8833 N   0  0  0  0  0  0  0  0  0  0  0  0
   10.4058   10.1587    3.0875 C   0  0  0  0  0  0  0  0  0  0  0  0
   11.8554    9.6809    3.2543 C   0  0  0  0  0  0  0  0  0  0  0  0
   13.9076    6.1867    1.9346 H   0  0  0  0  0  0  0  0  0  0  0  0
   13.3769    6.8823    0.3473 H   0  0  0  0  0  0  0  0  0  0  0  0
   15.0830    7.0604    0.8857 H   0  0  0  0  0  0  0  0  0  0  0  0
   13.8829    9.0582    1.1115 H   0  0  0  0  0  0  0  0  0  0  0  0
   14.5959    9.8060    3.0882 H   0  0  0  0  0  0  0  0  0  0  0  0
   14.3777    8.3021    3.8676 H   0  0  0  0  0  0  0  0  0  0  0  0
   15.5895    8.5025    2.6972 H   0  0  0  0  0  0  0  0  0  0  0  0
   11.8024    9.0089    1.2374 H   0  0  0  0  0  0  0  0  0  0  0  0
   11.4628    6.5569    1.7395 H   0  0  0  0  0  0  0  0  0  0  0  0
   11.3695    6.9868    3.4853 H   0  0  0  0  0  0  0  0  0  0  0  0
    9.1127    6.9617    2.4025 H   0  0  0  0  0  0  0  0  0  0  0  0
    9.6583    8.1236    1.1478 H   0  0  0  0  0  0  0  0  0  0  0  0
    9.4462    8.5786    4.1892 H   0  0  0  0  0  0  0  0  0  0  0  0
    7.5068    9.5681    4.9493 H   0  0  0  0  0  0  0  0  0  0  0  0
    5.7299   11.0850    3.2219 H   0  0  0  0  0  0  0  0  0  0  0  0
    5.2125    9.3559    3.2070 H   0  0  0  0  0  0  0  0  0  0  0  0
    3.9835   10.5293    4.9729 H   0  0  0  0  0  0  0  0  0  0  0  0
    5.1375    9.3708    5.7286 H   0  0  0  0  0  0  0  0  0  0  0  0
    5.4346   12.3055    5.4034 H   0  0  0  0  0  0  0  0  0  0  0  0
    5.2252   11.4448    6.8258 H   0  0  0  0  0  0  0  0  0  0  0  0
   10.1714   10.8885    3.8932 H   0  0  0  0  0  0  0  0  0  0  0  0
   10.3026   10.6868    2.1130 H   0  0  0  0  0  0  0  0  0  0  0  0
   12.5083   10.5644    3.0948 H   0  0  0  0  0  0  0  0  0  0  0  0
   12.0204    9.2950    4.2841 H   0  0  0  0  0  0  0  0  0  0  0  0
  1  2  1  0
  2  3  1  0
  2  4  1  0
  4  5  1  0
  5  6  1  0
  6  7  1  0
  7  8  1  0
  8  9  2  0
  8 10  1  0
 10 11  1  0
 11 12  1  0
 12 13  1  0
  7 14  1  0
 14 15  1  0
 15  4  1  0
  1 16  1  0
  1 17  1  0
  1 18  1  0
  2 19  1  0
  3 20  1  0
  3 21  1  0
  3 22  1  0
  4 23  1  0
  5 24  1  0
  5 25  1  0
  6 26  1  0
  6 27  1  0
  7 28  1  0
 10 29  1  0
 11 30  1  0
 11 31  1  0
 12 32  1  0
 12 33  1  0
 13 34  1  0
 13 35  1  0
 14 36  1  0
 14 37  1  0
 15 38  1  0
 15 39  1  0
M  CHG  1   3   1
M  END
>  <EmbedRMS>  (101) 
0.19998376465474313

$$$$

     RDKit          3D

 44 44  0  0  0  0  0  0  0  0999 V2000
    2.2726   12.2730    1.9197 C   0  0  0  0  0  0  0  0  0  0  0  0
    3.6716   11.7753    2.0767 C   0  0  0  0  0  0  0  0  0  0  0  0
    4.1993   11.0975    1.1535 O   0  0  0  0  0  0  0  0  0  0  0  0
    4.4123   12.0913    3.2636 N   0  0  0  0  0  0  0  0  0  0  0  0
    5.7882   11.6467    3.4755 C   0  0  0  0  0  0  0  0  0  0  0  0
    5.8325   10.1636    3.8751 C   0  0  0  0  0  0  0  0  0  0  0  0
    7.2226    9.6885    3.9384 N   0  0  0  0  0  0  0  0  0  0  0  0
    7.9822    9.5147    2.7306 C   0  0  0  0  0  0  0  0  0  0  0  0
    7.4090    9.6628    1.6229 O   0  0  0  0  0  0  0  0  0  0  0  0
    9.4448    9.1929    2.6561 C   0  0  0  0  0  0  0  0  0  0  0  0
    9.7666    7.7134    2.4316 C   0  0  0  0  0  0  0  0  0  0  0  0
   11.2651    7.3640    2.5402 C   0  0  0  0  0  0  0  0  0  0  0  0
   12.1439    8.5866    2.2323 C   0  0  0  0  0  0  0  0  0  0  0  0
   13.6549    8.3400    1.9333 C   0  0  0  0  0  0  0  0  0  0  0  0
   14.0142    7.0450    1.2245 C   0  0  0  0  0  0  0  0  0  0  0  0
   14.6174    8.7740    2.9401 N   0  0  0  0  0  4  0  0  0  0  0  0
   11.8897    9.6849    3.2851 C   0  0  0  0  0  0  0  0  0  0  0  0
   10.4047   10.0809    3.4318 C   0  0  0  0  0  0  0  0  0  0  0  0
    1.7850   11.7977    1.0420 H   0  0  0  0  0  0  0  0  0  0  0  0
    2.2858   13.3733    1.7753 H   0  0  0  0  0  0  0  0  0  0  0  0
    1.6851   12.0305    2.8298 H   0  0  0  0  0  0  0  0  0  0  0  0
    3.9764   12.7171    3.9782 H   0  0  0  0  0  0  0  0  0  0  0  0
    6.3806   11.8354    2.5554 H   0  0  0  0  0  0  0  0  0  0  0  0
    6.2447   12.2471    4.2922 H   0  0  0  0  0  0  0  0  0  0  0  0
    5.2582    9.5431    3.1538 H   0  0  0  0  0  0  0  0  0  0  0  0
    5.3593   10.0461    4.8739 H   0  0  0  0  0  0  0  0  0  0  0  0
    7.6549    9.4618    4.8617 H   0  0  0  0  0  0  0  0  0  0  0  0
    9.6827    9.5850    1.6377 H   0  0  0  0  0  0  0  0  0  0  0  0
    9.3865    7.3953    1.4337 H   0  0  0  0  0  0  0  0  0  0  0  0
    9.2159    7.1115    3.1869 H   0  0  0  0  0  0  0  0  0  0  0  0
   11.4755    6.5310    1.8379 H   0  0  0  0  0  0  0  0  0  0  0  0
   11.4952    7.0012    3.5662 H   0  0  0  0  0  0  0  0  0  0  0  0
   11.7508    8.9795    1.2653 H   0  0  0  0  0  0  0  0  0  0  0  0
   13.8449    9.0656    1.1033 H   0  0  0  0  0  0  0  0  0  0  0  0
   15.0592    7.0794    0.8478 H   0  0  0  0  0  0  0  0  0  0  0  0
   13.9249    6.1936    1.9314 H   0  0  0  0  0  0  0  0  0  0  0  0
   13.3412    6.8742    0.3568 H   0  0  0  0  0  0  0  0  0  0  0  0
   14.5656    9.8050    3.1029 H   0  0  0  0  0  0  0  0  0  0  0  0
   14.4333    8.2660    3.8350 H   0  0  0  0  0  0  0  0  0  0  0  0
   15.5929    8.5557    2.6317 H   0  0  0  0  0  0  0  0  0  0  0  0
   12.4544   10.6000    3.0036 H   0  0  0  0  0  0  0  0  0  0  0  0
   12.2718    9.3427    4.2720 H   0  0  0  0  0  0  0  0  0  0  0  0
   10.2656   11.1439    3.1275 H   0  0  0  0  0  0  0  0  0  0  0  0
   10.1319   10.0247    4.5078 H   0  0  0  0  0  0  0  0  0  0  0  0
  1  2  1  0
  2  3  2  0
  2  4  1  0
  4  5  1  0
  5  6  1  0
  6  7  1  0
  7  8  1  0
  8  9  2  0
  8 10  1  0
 10 11  1  0
 11 12  1  0
 12 13  1  0
 13 14  1  0
 14 15  1  0
 14 16  1  0
 13 17  1  0
 17 18  1  0
 18 10  1  0
  1 19  1  0
  1 20  1  0
  1 21  1  0
  4 22  1  0
  5 23  1  0
  5 24  1  0
  6 25  1  0
  6 26  1  0
  7 27  1  0
 10 28  1  0
 11 29  1  0
 11 30  1  0
 12 31  1  0
 12 32  1  0
 13 33  1  0
 14 34  1  0
 15 35  1  0
 15 36  1  0
 15 37  1  0
 16 38  1  0
 16 39  1  0
 16 40  1  0
 17 41  1  0
 17 42  1  0
 18 43  1  0
 18 44  1  0
M  CHG  1  16   1
M  END
>  <EmbedRMS>  (102) 
0.2509587523478319

$$$$

     RDKit          3D

 44 44  0  0  0  0  0  0  0  0999 V2000
    4.4368    8.5830    1.3291 C   0  0  0  0  0  0  0  0  0  0  0  0
    5.0041    7.9435    2.5953 C   0  0  0  0  0  0  0  0  0  0  0  0
    4.8218    8.8406    3.8314 C   0  0  0  0  0  0  0  0  0  0  0  0
    5.0607    8.0778    4.9850 O   0  0  0  0  0  0  0  0  0  0  0  0
    5.7382   10.0786    3.8221 C   0  0  0  0  0  0  0  0  0  0  0  0
    7.1400    9.7018    3.9851 N   0  0  0  0  0  0  0  0  0  0  0  0
    8.0161    9.4758    2.8762 C   0  0  0  0  0  0  0  0  0  0  0  0
    7.6206    9.7018    1.6971 O   0  0  0  0  0  0  0  0  0  0  0  0
    9.4217    8.9882    3.1213 C   0  0  0  0  0  0  0  0  0  0  0  0
    9.7820    7.9373    2.0770 C   0  0  0  0  0  0  0  0  0  0  0  0
   11.1456    7.3166    2.3199 C   0  0  0  0  0  0  0  0  0  0  0  0
   12.2326    8.2988    2.7958 C   0  0  0  0  0  0  0  0  0  0  0  0
   13.7098    7.9145    2.4297 C   0  0  0  0  0  0  0  0  0  0  0  0
   13.9319    7.3321    1.0257 C   0  0  0  0  0  0  0  0  0  0  0  0
   14.6485    9.0158    2.6728 N   0  0  0  0  0  4  0  0  0  0  0  0
   11.8869    9.7891    2.9963 C   0  0  0  0  0  0  0  0  0  0  0  0
   10.3956   10.1699    3.0626 C   0  0  0  0  0  0  0  0  0  0  0  0
    4.5001    7.8562    0.4920 H   0  0  0  0  0  0  0  0  0  0  0  0
    3.3701    8.8569    1.4735 H   0  0  0  0  0  0  0  0  0  0  0  0
    5.0123    9.4852    1.0408 H   0  0  0  0  0  0  0  0  0  0  0  0
    4.4494    6.9951    2.7672 H   0  0  0  0  0  0  0  0  0  0  0  0
    6.0677    7.6678    2.4459 H   0  0  0  0  0  0  0  0  0  0  0  0
    3.7631    9.1923    3.8475 H   0  0  0  0  0  0  0  0  0  0  0  0
    4.6708    8.5786    5.7490 H   0  0  0  0  0  0  0  0  0  0  0  0
    5.4504   10.7346    4.6721 H   0  0  0  0  0  0  0  0  0  0  0  0
    5.5946   10.6857    2.9045 H   0  0  0  0  0  0  0  0  0  0  0  0
    7.4935    9.5336    4.9541 H   0  0  0  0  0  0  0  0  0  0  0  0
    9.4806    8.5189    4.1289 H   0  0  0  0  0  0  0  0  0  0  0  0
    9.7829    8.4041    1.0656 H   0  0  0  0  0  0  0  0  0  0  0  0
    9.0162    7.1292    2.0723 H   0  0  0  0  0  0  0  0  0  0  0  0
   11.4280    6.8368    1.3644 H   0  0  0  0  0  0  0  0  0  0  0  0
   11.0321    6.4807    3.0491 H   0  0  0  0  0  0  0  0  0  0  0  0
   12.2360    8.0283    3.8802 H   0  0  0  0  0  0  0  0  0  0  0  0
   14.0067    7.0845    3.1155 H   0  0  0  0  0  0  0  0  0  0  0  0
   13.4426    7.9757    0.2642 H   0  0  0  0  0  0  0  0  0  0  0  0
   15.0163    7.2726    0.7923 H   0  0  0  0  0  0  0  0  0  0  0  0
   13.5342    6.2980    0.9557 H   0  0  0  0  0  0  0  0  0  0  0  0
   14.5097    9.7856    1.9793 H   0  0  0  0  0  0  0  0  0  0  0  0
   14.5408    9.3804    3.6465 H   0  0  0  0  0  0  0  0  0  0  0  0
   15.6316    8.6688    2.5840 H   0  0  0  0  0  0  0  0  0  0  0  0
   12.3173   10.3475    2.1381 H   0  0  0  0  0  0  0  0  0  0  0  0
   12.3926   10.1907    3.9043 H   0  0  0  0  0  0  0  0  0  0  0  0
   10.1563   10.7904    2.1685 H   0  0  0  0  0  0  0  0  0  0  0  0
   10.2223   10.8190    3.9496 H   0  0  0  0  0  0  0  0  0  0  0  0
  1  2  1  0
  2  3  1  0
  3  4  1  0
  3  5  1  0
  5  6  1  0
  6  7  1  0
  7  8  2  0
  7  9  1  0
  9 10  1  0
 10 11  1  0
 11 12  1  0
 12 13  1  0
 13 14  1  0
 13 15  1  0
 12 16  1  0
 16 17  1  0
 17  9  1  0
  1 18  1  0
  1 19  1  0
  1 20  1  0
  2 21  1  0
  2 22  1  0
  3 23  1  0
  4 24  1  0
  5 25  1  0
  5 26  1  0
  6 27  1  0
  9 28  1  0
 10 29  1  0
 10 30  1  0
 11 31  1  0
 11 32  1  0
 12 33  1  0
 13 34  1  0
 14 35  1  0
 14 36  1  0
 14 37  1  0
 15 38  1  0
 15 39  1  0
 15 40  1  0
 16 41  1  0
 16 42  1  0
 17 43  1  0
 17 44  1  0
M  CHG  1  15   1
M  END
>  <EmbedRMS>  (103) 
0.1692382603345377

$$$$

     RDKit          3D

 42 42  0  0  0  0  0  0  0  0999 V2000
   14.0110    7.0505    1.2528 C   0  0  0  0  0  0  0  0  0  0  0  0
   13.6005    8.3243    1.9898 C   0  0  0  0  0  0  0  0  0  0  0  0
   14.7026    8.8916    2.7694 N   0  0  0  0  0  4  0  0  0  0  0  0
   12.2613    8.3272    2.7674 C   0  0  0  0  0  0  0  0  0  0  0  0
   11.1790    7.4403    2.1348 C   0  0  0  0  0  0  0  0  0  0  0  0
    9.7443    7.7263    2.5463 C   0  0  0  0  0  0  0  0  0  0  0  0
    9.4492    9.2018    2.6421 C   0  0  0  0  0  0  0  0  0  0  0  0
    7.9874    9.5271    2.7285 C   0  0  0  0  0  0  0  0  0  0  0  0
    7.4181    9.6849    1.6206 O   0  0  0  0  0  0  0  0  0  0  0  0
    7.2187    9.6821    3.9349 N   0  0  0  0  0  0  0  0  0  0  0  0
    5.8189   10.1170    3.8146 C   0  0  0  0  0  0  0  0  0  0  0  0
    5.1334   10.2659    5.1694 C   0  0  0  0  0  0  0  0  0  0  0  0
    3.7505   10.7132    4.9895 N   0  0  0  0  0  0  0  0  0  0  0  0
    2.8774   10.9284    6.1003 C   0  0  0  0  0  0  0  0  0  0  0  0
    3.2808   10.7322    7.2779 O   0  0  0  0  0  0  0  0  0  0  0  0
    1.5730   11.3572    5.8773 O   0  0  0  0  0  0  0  0  0  0  0  0
   10.3860   10.0198    3.4861 C   0  0  0  0  0  0  0  0  0  0  0  0
   11.8495    9.7807    3.1220 C   0  0  0  0  0  0  0  0  0  0  0  0
   14.9821    7.1931    0.7324 H   0  0  0  0  0  0  0  0  0  0  0  0
   14.1177    6.2179    1.9794 H   0  0  0  0  0  0  0  0  0  0  0  0
   13.2664    6.7640    0.4820 H   0  0  0  0  0  0  0  0  0  0  0  0
   13.4362    9.0285    1.1410 H   0  0  0  0  0  0  0  0  0  0  0  0
   14.5208    9.8924    3.0067 H   0  0  0  0  0  0  0  0  0  0  0  0
   15.5921    8.8662    2.2197 H   0  0  0  0  0  0  0  0  0  0  0  0
   14.8377    8.3419    3.6487 H   0  0  0  0  0  0  0  0  0  0  0  0
   12.4686    7.8402    3.7470 H   0  0  0  0  0  0  0  0  0  0  0  0
   11.2118    7.5937    1.0339 H   0  0  0  0  0  0  0  0  0  0  0  0
   11.4059    6.3674    2.3223 H   0  0  0  0  0  0  0  0  0  0  0  0
    9.5622    7.2690    3.5434 H   0  0  0  0  0  0  0  0  0  0  0  0
    9.0533    7.2374    1.8231 H   0  0  0  0  0  0  0  0  0  0  0  0
    9.7207    9.5612    1.6183 H   0  0  0  0  0  0  0  0  0  0  0  0
    7.6622    9.5169    4.8664 H   0  0  0  0  0  0  0  0  0  0  0  0
    5.2573    9.3711    3.2099 H   0  0  0  0  0  0  0  0  0  0  0  0
    5.7871   11.0961    3.2875 H   0  0  0  0  0  0  0  0  0  0  0  0
    5.1403    9.2868    5.6958 H   0  0  0  0  0  0  0  0  0  0  0  0
    5.6855   11.0108    5.7825 H   0  0  0  0  0  0  0  0  0  0  0  0
    3.3717   10.8850    4.0301 H   0  0  0  0  0  0  0  0  0  0  0  0
    0.9386   11.5153    6.6511 H   0  0  0  0  0  0  0  0  0  0  0  0
   10.1484   11.1029    3.3903 H   0  0  0  0  0  0  0  0  0  0  0  0
   10.2339    9.7352    4.5500 H   0  0  0  0  0  0  0  0  0  0  0  0
   12.4719   10.1526    3.9648 H   0  0  0  0  0  0  0  0  0  0  0  0
   12.0636   10.4402    2.2521 H   0  0  0  0  0  0  0  0  0  0  0  0
  1  2  1  0
  2  3  1  0
  2  4  1  0
  4  5  1  0
  5  6  1  0
  6  7  1  0
  7  8  1  0
  8  9  2  0
  8 10  1  0
 10 11  1  0
 11 12  1  0
 12 13  1  0
 13 14  1  0
 14 15  2  0
 14 16  1  0
  7 17  1  0
 17 18  1  0
 18  4  1  0
  1 19  1  0
  1 20  1  0
  1 21  1  0
  2 22  1  0
  3 23  1  0
  3 24  1  0
  3 25  1  0
  4 26  1  0
  5 27  1  0
  5 28  1  0
  6 29  1  0
  6 30  1  0
  7 31  1  0
 10 32  1  0
 11 33  1  0
 11 34  1  0
 12 35  1  0
 12 36  1  0
 13 37  1  0
 16 38  1  0
 17 39  1  0
 17 40  1  0
 18 41  1  0
 18 42  1  0
M  CHG  1   3   1
M  END
>  <EmbedRMS>  (104) 
0.2924325341636962

$$$$

     RDKit          3D

 40 40  0  0  0  0  0  0  0  0999 V2000
    4.7996    8.8875    5.7514 C   0  0  0  0  0  0  0  0  0  0  0  0
    5.0467   10.2639    5.1374 C   0  0  0  0  0  0  0  0  0  0  0  0
    5.7665   10.1567    3.7915 C   0  0  0  0  0  0  0  0  0  0  0  0
    7.1428    9.7130    3.9787 N   0  0  0  0  0  0  0  0  0  0  0  0
    8.0146    9.4652    2.8756 C   0  0  0  0  0  0  0  0  0  0  0  0
    7.6236    9.6740    1.6923 O   0  0  0  0  0  0  0  0  0  0  0  0
    9.4117    8.9838    3.1514 C   0  0  0  0  0  0  0  0  0  0  0  0
    9.7887    7.8242    2.2110 C   0  0  0  0  0  0  0  0  0  0  0  0
   11.2406    7.3770    2.4518 C   0  0  0  0  0  0  0  0  0  0  0  0
   12.1580    8.5898    2.2119 C   0  0  0  0  0  0  0  0  0  0  0  0
   13.6694    8.3363    1.9396 C   0  0  0  0  0  0  0  0  0  0  0  0
   14.0282    7.0396    1.2342 C   0  0  0  0  0  0  0  0  0  0  0  0
   14.6135    8.7686    2.9623 N   0  0  0  0  0  4  0  0  0  0  0  0
   11.8558    9.6805    3.2543 C   0  0  0  0  0  0  0  0  0  0  0  0
   10.4065   10.1585    3.0871 C   0  0  0  0  0  0  0  0  0  0  0  0
    5.7572    8.3688    5.9654 H   0  0  0  0  0  0  0  0  0  0  0  0
    4.2454    9.0044    6.7064 H   0  0  0  0  0  0  0  0  0  0  0  0
    4.1898    8.2616    5.0655 H   0  0  0  0  0  0  0  0  0  0  0  0
    4.0659   10.7624    4.9797 H   0  0  0  0  0  0  0  0  0  0  0  0
    5.6383   10.8902    5.8402 H   0  0  0  0  0  0  0  0  0  0  0  0
    5.7713   11.1553    3.3036 H   0  0  0  0  0  0  0  0  0  0  0  0
    5.2272    9.4458    3.1277 H   0  0  0  0  0  0  0  0  0  0  0  0
    7.5227    9.5975    4.9460 H   0  0  0  0  0  0  0  0  0  0  0  0
    9.4460    8.5780    4.1877 H   0  0  0  0  0  0  0  0  0  0  0  0
    9.1131    6.9617    2.4015 H   0  0  0  0  0  0  0  0  0  0  0  0
    9.6593    8.1232    1.1467 H   0  0  0  0  0  0  0  0  0  0  0  0
   11.3694    6.9867    3.4850 H   0  0  0  0  0  0  0  0  0  0  0  0
   11.4634    6.5566    1.7393 H   0  0  0  0  0  0  0  0  0  0  0  0
   11.8029    9.0089    1.2373 H   0  0  0  0  0  0  0  0  0  0  0  0
   13.8833    9.0581    1.1114 H   0  0  0  0  0  0  0  0  0  0  0  0
   15.0833    7.0602    0.8857 H   0  0  0  0  0  0  0  0  0  0  0  0
   13.3773    6.8823    0.3472 H   0  0  0  0  0  0  0  0  0  0  0  0
   13.9078    6.1866    1.9345 H   0  0  0  0  0  0  0  0  0  0  0  0
   15.5897    8.5020    2.6974 H   0  0  0  0  0  0  0  0  0  0  0  0
   14.5964    9.8059    3.0880 H   0  0  0  0  0  0  0  0  0  0  0  0
   14.3778    8.3021    3.8677 H   0  0  0  0  0  0  0  0  0  0  0  0
   12.5089   10.5640    3.0952 H   0  0  0  0  0  0  0  0  0  0  0  0
   12.0205    9.2944    4.2841 H   0  0  0  0  0  0  0  0  0  0  0  0
   10.1719   10.8879    3.8931 H   0  0  0  0  0  0  0  0  0  0  0  0
   10.3038   10.6871    2.1128 H   0  0  0  0  0  0  0  0  0  0  0  0
  1  2  1  0
  2  3  1  0
  3  4  1  0
  4  5  1  0
  5  6  2  0
  5  7  1  0
  7  8  1  0
  8  9  1  0
  9 10  1  0
 10 11  1  0
 11 12  1  0
 11 13  1  0
 10 14  1  0
 14 15  1  0
 15  7  1  0
  1 16  1  0
  1 17  1  0
  1 18  1  0
  2 19  1  0
  2 20  1  0
  3 21  1  0
  3 22  1  0
  4 23  1  0
  7 24  1  0
  8 25  1  0
  8 26  1  0
  9 27  1  0
  9 28  1  0
 10 29  1  0
 11 30  1  0
 12 31  1  0
 12 32  1  0
 12 33  1  0
 13 34  1  0
 13 35  1  0
 13 36  1  0
 14 37  1  0
 14 38  1  0
 15 39  1  0
 15 40  1  0
M  CHG  1  13   1
M  END
>  <EmbedRMS>  (105) 
0.2000484947854372

$$$$

     RDKit          3D

 41 41  0  0  0  0  0  0  0  0999 V2000
    4.6460   11.6759    7.1724 C   0  0  0  0  0  0  0  0  0  0  0  0
    5.2633   11.4940    5.8659 N   0  0  0  0  0  0  0  0  0  0  0  0
    5.1493   10.2629    5.1439 C   0  0  0  0  0  0  0  0  0  0  0  0
    4.5014    9.2956    5.6277 O   0  0  0  0  0  0  0  0  0  0  0  0
    5.8086   10.1135    3.8127 C   0  0  0  0  0  0  0  0  0  0  0  0
    7.2095    9.6833    3.9371 N   0  0  0  0  0  0  0  0  0  0  0  0
    7.9808    9.5180    2.7350 C   0  0  0  0  0  0  0  0  0  0  0  0
    7.4142    9.6752    1.6244 O   0  0  0  0  0  0  0  0  0  0  0  0
    9.4440    9.1935    2.6630 C   0  0  0  0  0  0  0  0  0  0  0  0
    9.7658    7.7143    2.4337 C   0  0  0  0  0  0  0  0  0  0  0  0
   11.2644    7.3644    2.5408 C   0  0  0  0  0  0  0  0  0  0  0  0
   12.1433    8.5869    2.2329 C   0  0  0  0  0  0  0  0  0  0  0  0
   13.6544    8.3400    1.9332 C   0  0  0  0  0  0  0  0  0  0  0  0
   14.0135    7.0449    1.2245 C   0  0  0  0  0  0  0  0  0  0  0  0
   14.6174    8.7741    2.9396 N   0  0  0  0  0  4  0  0  0  0  0  0
   11.8904    9.6848    3.2864 C   0  0  0  0  0  0  0  0  0  0  0  0
   10.4058   10.0816    3.4356 C   0  0  0  0  0  0  0  0  0  0  0  0
    3.5459   11.5501    7.0899 H   0  0  0  0  0  0  0  0  0  0  0  0
    4.8632   12.6960    7.5536 H   0  0  0  0  0  0  0  0  0  0  0  0
    5.0530   10.9310    7.8883 H   0  0  0  0  0  0  0  0  0  0  0  0
    5.8124   12.2820    5.4541 H   0  0  0  0  0  0  0  0  0  0  0  0
    5.2457    9.3665    3.2110 H   0  0  0  0  0  0  0  0  0  0  0  0
    5.7655   11.0860    3.2759 H   0  0  0  0  0  0  0  0  0  0  0  0
    7.6527    9.5270    4.8705 H   0  0  0  0  0  0  0  0  0  0  0  0
    9.6833    9.5857    1.6449 H   0  0  0  0  0  0  0  0  0  0  0  0
    9.2152    7.1104    3.1876 H   0  0  0  0  0  0  0  0  0  0  0  0
    9.3851    7.3989    1.4351 H   0  0  0  0  0  0  0  0  0  0  0  0
   11.4740    6.5318    1.8378 H   0  0  0  0  0  0  0  0  0  0  0  0
   11.4952    7.0010    3.5664 H   0  0  0  0  0  0  0  0  0  0  0  0
   11.7498    8.9804    1.2663 H   0  0  0  0  0  0  0  0  0  0  0  0
   13.8441    9.0654    1.1031 H   0  0  0  0  0  0  0  0  0  0  0  0
   15.0584    7.0793    0.8474 H   0  0  0  0  0  0  0  0  0  0  0  0
   13.3402    6.8740    0.3569 H   0  0  0  0  0  0  0  0  0  0  0  0
   13.9243    6.1936    1.9314 H   0  0  0  0  0  0  0  0  0  0  0  0
   15.5927    8.5554    2.6308 H   0  0  0  0  0  0  0  0  0  0  0  0
   14.5660    9.8051    3.1020 H   0  0  0  0  0  0  0  0  0  0  0  0
   14.4336    8.2664    3.8348 H   0  0  0  0  0  0  0  0  0  0  0  0
   12.2736    9.3421    4.2727 H   0  0  0  0  0  0  0  0  0  0  0  0
   12.4550   10.5998    3.0047 H   0  0  0  0  0  0  0  0  0  0  0  0
   10.1351   10.0261    4.5122 H   0  0  0  0  0  0  0  0  0  0  0  0
   10.2667   11.1445    3.1312 H   0  0  0  0  0  0  0  0  0  0  0  0
  1  2  1  0
  2  3  1  0
  3  4  2  0
  3  5  1  0
  5  6  1  0
  6  7  1  0
  7  8  2  0
  7  9  1  0
  9 10  1  0
 10 11  1  0
 11 12  1  0
 12 13  1  0
 13 14  1  0
 13 15  1  0
 12 16  1  0
 16 17  1  0
 17  9  1  0
  1 18  1  0
  1 19  1  0
  1 20  1  0
  2 21  1  0
  5 22  1  0
  5 23  1  0
  6 24  1  0
  9 25  1  0
 10 26  1  0
 10 27  1  0
 11 28  1  0
 11 29  1  0
 12 30  1  0
 13 31  1  0
 14 32  1  0
 14 33  1  0
 14 34  1  0
 15 35  1  0
 15 36  1  0
 15 37  1  0
 16 38  1  0
 16 39  1  0
 17 40  1  0
 17 41  1  0
M  CHG  1  15   1
M  END
>  <EmbedRMS>  (106) 
0.2569057114362328

$$$$

     RDKit          3D

 48 48  0  0  0  0  0  0  0  0999 V2000
    4.8915   13.3074   -0.6287 C   0  0  0  0  0  0  0  0  0  0  0  0
    5.9776   13.0507    0.4086 C   0  0  0  0  0  0  0  0  0  0  0  0
    5.3579   12.5533    1.7080 C   0  0  0  0  0  0  0  0  0  0  0  0
    6.4036   12.3026    2.7032 N   0  0  0  0  0  0  0  0  0  0  0  0
    5.8116   11.7333    3.9200 C   0  0  0  0  0  0  0  0  0  0  0  0
    5.7860   10.2073    3.8470 C   0  0  0  0  0  0  0  0  0  0  0  0
    7.1366    9.6757    3.9898 N   0  0  0  0  0  0  0  0  0  0  0  0
    8.0105    9.4654    2.8768 C   0  0  0  0  0  0  0  0  0  0  0  0
    7.6077    9.6907    1.6997 O   0  0  0  0  0  0  0  0  0  0  0  0
    9.4201    8.9849    3.1181 C   0  0  0  0  0  0  0  0  0  0  0  0
    9.7831    7.9365    2.0731 C   0  0  0  0  0  0  0  0  0  0  0  0
   11.1462    7.3163    2.3190 C   0  0  0  0  0  0  0  0  0  0  0  0
   12.2321    8.2994    2.7953 C   0  0  0  0  0  0  0  0  0  0  0  0
   13.7095    7.9154    2.4297 C   0  0  0  0  0  0  0  0  0  0  0  0
   13.9324    7.3325    1.0260 C   0  0  0  0  0  0  0  0  0  0  0  0
   14.6477    9.0170    2.6729 N   0  0  0  0  0  4  0  0  0  0  0  0
   11.8844    9.7897    2.9954 C   0  0  0  0  0  0  0  0  0  0  0  0
   10.3919   10.1689    3.0610 C   0  0  0  0  0  0  0  0  0  0  0  0
    5.3569   13.6692   -1.5696 H   0  0  0  0  0  0  0  0  0  0  0  0
    4.3344   12.3715   -0.8479 H   0  0  0  0  0  0  0  0  0  0  0  0
    4.1823   14.0816   -0.2653 H   0  0  0  0  0  0  0  0  0  0  0  0
    6.5355   13.9946    0.5930 H   0  0  0  0  0  0  0  0  0  0  0  0
    6.6866   12.2888    0.0173 H   0  0  0  0  0  0  0  0  0  0  0  0
    4.6443   13.3210    2.0876 H   0  0  0  0  0  0  0  0  0  0  0  0
    4.7950   11.6173    1.4970 H   0  0  0  0  0  0  0  0  0  0  0  0
    6.8251   13.2269    2.9588 H   0  0  0  0  0  0  0  0  0  0  0  0
    6.4182   12.0330    4.8044 H   0  0  0  0  0  0  0  0  0  0  0  0
    4.7815   12.1178    4.1022 H   0  0  0  0  0  0  0  0  0  0  0  0
    5.3175    9.8464    2.9071 H   0  0  0  0  0  0  0  0  0  0  0  0
    5.1651    9.8266    4.6866 H   0  0  0  0  0  0  0  0  0  0  0  0
    7.4866    9.4806    4.9551 H   0  0  0  0  0  0  0  0  0  0  0  0
    9.4833    8.5141    4.1248 H   0  0  0  0  0  0  0  0  0  0  0  0
    9.0185    7.1275    2.0651 H   0  0  0  0  0  0  0  0  0  0  0  0
    9.7860    8.4054    1.0626 H   0  0  0  0  0  0  0  0  0  0  0  0
   11.0317    6.4812    3.0491 H   0  0  0  0  0  0  0  0  0  0  0  0
   11.4299    6.8353    1.3644 H   0  0  0  0  0  0  0  0  0  0  0  0
   12.2353    8.0293    3.8797 H   0  0  0  0  0  0  0  0  0  0  0  0
   14.0065    7.0857    3.1159 H   0  0  0  0  0  0  0  0  0  0  0  0
   13.5360    6.2979    0.9564 H   0  0  0  0  0  0  0  0  0  0  0  0
   13.4424    7.9752    0.2641 H   0  0  0  0  0  0  0  0  0  0  0  0
   15.0169    7.2742    0.7926 H   0  0  0  0  0  0  0  0  0  0  0  0
   14.5394    9.3818    3.6465 H   0  0  0  0  0  0  0  0  0  0  0  0
   15.6310    8.6705    2.5844 H   0  0  0  0  0  0  0  0  0  0  0  0
   14.5085    9.7867    1.9794 H   0  0  0  0  0  0  0  0  0  0  0  0
   12.3143   10.3484    2.1371 H   0  0  0  0  0  0  0  0  0  0  0  0
   12.3893   10.1921    3.9034 H   0  0  0  0  0  0  0  0  0  0  0  0
   10.1511   10.7893    2.1673 H   0  0  0  0  0  0  0  0  0  0  0  0
   10.2165   10.8170    3.9483 H   0  0  0  0  0  0  0  0  0  0  0  0
  1  2  1  0
  2  3  1  0
  3  4  1  0
  4  5  1  0
  5  6  1  0
  6  7  1  0
  7  8  1  0
  8  9  2  0
  8 10  1  0
 10 11  1  0
 11 12  1  0
 12 13  1  0
 13 14  1  0
 14 15  1  0
 14 16  1  0
 13 17  1  0
 17 18  1  0
 18 10  1  0
  1 19  1  0
  1 20  1  0
  1 21  1  0
  2 22  1  0
  2 23  1  0
  3 24  1  0
  3 25  1  0
  4 26  1  0
  5 27  1  0
  5 28  1  0
  6 29  1  0
  6 30  1  0
  7 31  1  0
 10 32  1  0
 11 33  1  0
 11 34  1  0
 12 35  1  0
 12 36  1  0
 13 37  1  0
 14 38  1  0
 15 39  1  0
 15 40  1  0
 15 41  1  0
 16 42  1  0
 16 43  1  0
 16 44  1  0
 17 45  1  0
 17 46  1  0
 18 47  1  0
 18 48  1  0
M  CHG  1  16   1
M  END
>  <EmbedRMS>  (107) 
0.16499967102600221

$$$$

     RDKit          3D

 45 45  0  0  0  0  0  0  0  0999 V2000
    1.3162    8.6480    2.4764 C   0  0  0  0  0  0  0  0  0  0  0  0
    2.7690    8.2394    2.6571 C   0  0  0  0  0  0  0  0  0  0  0  0
    3.5588    9.3719    3.1531 N   0  0  0  0  0  0  0  0  0  0  0  0
    4.9457    8.9370    3.3408 C   0  0  0  0  0  0  0  0  0  0  0  0
    5.8111   10.0828    3.8756 C   0  0  0  0  0  0  0  0  0  0  0  0
    7.2212    9.6714    3.9388 N   0  0  0  0  0  0  0  0  0  0  0  0
    7.9871    9.5236    2.7309 C   0  0  0  0  0  0  0  0  0  0  0  0
    7.4226    9.7001    1.6228 O   0  0  0  0  0  0  0  0  0  0  0  0
    9.4479    9.1954    2.6571 C   0  0  0  0  0  0  0  0  0  0  0  0
    9.7662    7.7150    2.4336 C   0  0  0  0  0  0  0  0  0  0  0  0
   11.2648    7.3640    2.5399 C   0  0  0  0  0  0  0  0  0  0  0  0
   12.1448    8.5862    2.2323 C   0  0  0  0  0  0  0  0  0  0  0  0
   13.6556    8.3392    1.9331 C   0  0  0  0  0  0  0  0  0  0  0  0
   14.0143    7.0441    1.2245 C   0  0  0  0  0  0  0  0  0  0  0  0
   14.6184    8.7732    2.9398 N   0  0  0  0  0  4  0  0  0  0  0  0
   11.8922    9.6845    3.2853 C   0  0  0  0  0  0  0  0  0  0  0  0
   10.4083   10.0818    3.4329 C   0  0  0  0  0  0  0  0  0  0  0  0
    1.2358    9.4590    1.7217 H   0  0  0  0  0  0  0  0  0  0  0  0
    0.7229    7.7764    2.1277 H   0  0  0  0  0  0  0  0  0  0  0  0
    0.8974    9.0039    3.4416 H   0  0  0  0  0  0  0  0  0  0  0  0
    2.8047    7.3991    3.3860 H   0  0  0  0  0  0  0  0  0  0  0  0
    3.1635    7.8833    1.6781 H   0  0  0  0  0  0  0  0  0  0  0  0
    3.5555   10.1116    2.4109 H   0  0  0  0  0  0  0  0  0  0  0  0
    5.3566    8.5628    2.3778 H   0  0  0  0  0  0  0  0  0  0  0  0
    4.9851    8.1045    4.0788 H   0  0  0  0  0  0  0  0  0  0  0  0
    5.4617   10.3551    4.8951 H   0  0  0  0  0  0  0  0  0  0  0  0
    5.7127   10.9819    3.2288 H   0  0  0  0  0  0  0  0  0  0  0  0
    7.6863    9.5527    4.8663 H   0  0  0  0  0  0  0  0  0  0  0  0
    9.6891    9.5852    1.6385 H   0  0  0  0  0  0  0  0  0  0  0  0
    9.3835    7.3966    1.4368 H   0  0  0  0  0  0  0  0  0  0  0  0
    9.2157    7.1152    3.1908 H   0  0  0  0  0  0  0  0  0  0  0  0
   11.4737    6.5317    1.8364 H   0  0  0  0  0  0  0  0  0  0  0  0
   11.4958    6.9999    3.5652 H   0  0  0  0  0  0  0  0  0  0  0  0
   11.7524    8.9793    1.2652 H   0  0  0  0  0  0  0  0  0  0  0  0
   13.8459    9.0645    1.1030 H   0  0  0  0  0  0  0  0  0  0  0  0
   13.3413    6.8735    0.3567 H   0  0  0  0  0  0  0  0  0  0  0  0
   13.9244    6.1928    1.9314 H   0  0  0  0  0  0  0  0  0  0  0  0
   15.0594    7.0779    0.8479 H   0  0  0  0  0  0  0  0  0  0  0  0
   15.5937    8.5539    2.6315 H   0  0  0  0  0  0  0  0  0  0  0  0
   14.5676    9.8044    3.1018 H   0  0  0  0  0  0  0  0  0  0  0  0
   14.4339    8.2659    3.8350 H   0  0  0  0  0  0  0  0  0  0  0  0
   12.4575   10.5992    3.0035 H   0  0  0  0  0  0  0  0  0  0  0  0
   12.2747    9.3420    4.2719 H   0  0  0  0  0  0  0  0  0  0  0  0
   10.2702   11.1451    3.1293 H   0  0  0  0  0  0  0  0  0  0  0  0
   10.1366   10.0251    4.5091 H   0  0  0  0  0  0  0  0  0  0  0  0
  1  2  1  0
  2  3  1  0
  3  4  1  0
  4  5  1  0
  5  6  1  0
  6  7  1  0
  7  8  2  0
  7  9  1  0
  9 10  1  0
 10 11  1  0
 11 12  1  0
 12 13  1  0
 13 14  1  0
 13 15  1  0
 12 16  1  0
 16 17  1  0
 17  9  1  0
  1 18  1  0
  1 19  1  0
  1 20  1  0
  2 21  1  0
  2 22  1  0
  3 23  1  0
  4 24  1  0
  4 25  1  0
  5 26  1  0
  5 27  1  0
  6 28  1  0
  9 29  1  0
 10 30  1  0
 10 31  1  0
 11 32  1  0
 11 33  1  0
 12 34  1  0
 13 35  1  0
 14 36  1  0
 14 37  1  0
 14 38  1  0
 15 39  1  0
 15 40  1  0
 15 41  1  0
 16 42  1  0
 16 43  1  0
 17 44  1  0
 17 45  1  0
M  CHG  1  15   1
M  END
>  <EmbedRMS>  (108) 
0.25842907567579826

$$$$

     RDKit          3D

 46 46  0  0  0  0  0  0  0  0999 V2000
   14.0269    7.0399    1.2346 C   0  0  0  0  0  0  0  0  0  0  0  0
   13.6679    8.3367    1.9397 C   0  0  0  0  0  0  0  0  0  0  0  0
   14.6122    8.7692    2.9623 N   0  0  0  0  0  4  0  0  0  0  0  0
   12.1562    8.5905    2.2119 C   0  0  0  0  0  0  0  0  0  0  0  0
   11.2382    7.3781    2.4514 C   0  0  0  0  0  0  0  0  0  0  0  0
    9.7856    7.8260    2.2127 C   0  0  0  0  0  0  0  0  0  0  0  0
    9.4092    8.9841    3.1559 C   0  0  0  0  0  0  0  0  0  0  0  0
    8.0086    9.4641    2.8884 C   0  0  0  0  0  0  0  0  0  0  0  0
    7.6169    9.6788    1.7067 O   0  0  0  0  0  0  0  0  0  0  0  0
    7.1360    9.6953    4.0005 N   0  0  0  0  0  0  0  0  0  0  0  0
    5.7726   10.1926    3.8695 C   0  0  0  0  0  0  0  0  0  0  0  0
    5.7796   11.6674    3.5263 C   0  0  0  0  0  0  0  0  0  0  0  0
    5.3015   12.1587    2.2034 C   0  0  0  0  0  0  0  0  0  0  0  0
    4.9437   11.3673    1.1904 C   0  0  0  0  0  0  0  0  0  0  0  0
    4.4806   11.9317   -0.0335 N   0  0  0  0  0  0  0  0  0  0  0  0
    6.1988   12.5200    4.4842 C   0  0  0  0  0  0  0  0  0  0  0  0
    6.2819   13.9852    4.3399 C   0  0  0  0  0  0  0  0  0  0  0  0
    6.6424   14.6842    5.3196 O   0  0  0  0  0  0  0  0  0  0  0  0
   10.4036   10.1592    3.0882 C   0  0  0  0  0  0  0  0  0  0  0  0
   11.8538    9.6817    3.2540 C   0  0  0  0  0  0  0  0  0  0  0  0
   13.9061    6.1869    1.9348 H   0  0  0  0  0  0  0  0  0  0  0  0
   15.0821    7.0604    0.8863 H   0  0  0  0  0  0  0  0  0  0  0  0
   13.3761    6.8825    0.3474 H   0  0  0  0  0  0  0  0  0  0  0  0
   13.8817    9.0583    1.1114 H   0  0  0  0  0  0  0  0  0  0  0  0
   15.5885    8.5034    2.6969 H   0  0  0  0  0  0  0  0  0  0  0  0
   14.3770    8.3021    3.8675 H   0  0  0  0  0  0  0  0  0  0  0  0
   14.5943    9.8064    3.0884 H   0  0  0  0  0  0  0  0  0  0  0  0
   11.8011    9.0097    1.2374 H   0  0  0  0  0  0  0  0  0  0  0  0
   11.4602    6.5585    1.7378 H   0  0  0  0  0  0  0  0  0  0  0  0
   11.3680    6.9866    3.4841 H   0  0  0  0  0  0  0  0  0  0  0  0
    9.1101    6.9632    2.4023 H   0  0  0  0  0  0  0  0  0  0  0  0
    9.6547    8.1274    1.1493 H   0  0  0  0  0  0  0  0  0  0  0  0
    9.4495    8.5779    4.1917 H   0  0  0  0  0  0  0  0  0  0  0  0
    7.4884    9.5077    4.9665 H   0  0  0  0  0  0  0  0  0  0  0  0
    5.2030    9.5508    3.1751 H   0  0  0  0  0  0  0  0  0  0  0  0
    5.2532   10.0675    4.8456 H   0  0  0  0  0  0  0  0  0  0  0  0
    5.1760   13.2153    2.0363 H   0  0  0  0  0  0  0  0  0  0  0  0
    5.0327   10.2953    1.2315 H   0  0  0  0  0  0  0  0  0  0  0  0
    4.2262   11.3039   -0.8277 H   0  0  0  0  0  0  0  0  0  0  0  0
    4.3856   12.9644   -0.1610 H   0  0  0  0  0  0  0  0  0  0  0  0
    6.5099   12.1162    5.4418 H   0  0  0  0  0  0  0  0  0  0  0  0
    6.0716   14.5000    3.4178 H   0  0  0  0  0  0  0  0  0  0  0  0
   10.1695   10.8898    3.8933 H   0  0  0  0  0  0  0  0  0  0  0  0
   10.2987   10.6863    2.1133 H   0  0  0  0  0  0  0  0  0  0  0  0
   12.5063   10.5653    3.0941 H   0  0  0  0  0  0  0  0  0  0  0  0
   12.0196    9.2961    4.2839 H   0  0  0  0  0  0  0  0  0  0  0  0
  1  2  1  0
  2  3  1  0
  2  4  1  0
  4  5  1  0
  5  6  1  0
  6  7  1  0
  7  8  1  0
  8  9  2  0
  8 10  1  0
 10 11  1  0
 11 12  1  0
 12 13  1  0
 13 14  2  3
 14 15  1  0
 12 16  2  3
 16 17  1  0
 17 18  2  0
  7 19  1  0
 19 20  1  0
 20  4  1  0
  1 21  1  0
  1 22  1  0
  1 23  1  0
  2 24  1  0
  3 25  1  0
  3 26  1  0
  3 27  1  0
  4 28  1  0
  5 29  1  0
  5 30  1  0
  6 31  1  0
  6 32  1  0
  7 33  1  0
 10 34  1  0
 11 35  1  0
 11 36  1  0
 13 37  1  0
 14 38  1  0
 15 39  1  0
 15 40  1  0
 16 41  1  0
 17 42  1  0
 19 43  1  0
 19 44  1  0
 20 45  1  0
 20 46  1  0
M  CHG  1   3   1
M  END
>  <EmbedRMS>  (109) 
0.17563675685682514

$$$$

     RDKit          3D

 46 47  0  0  0  0  0  0  0  0999 V2000
   14.0267    7.0401    1.2345 C   0  0  0  0  0  0  0  0  0  0  0  0
   13.6677    8.3369    1.9399 C   0  0  0  0  0  0  0  0  0  0  0  0
   14.6122    8.7693    2.9622 N   0  0  0  0  0  4  0  0  0  0  0  0
   12.1560    8.5905    2.2126 C   0  0  0  0  0  0  0  0  0  0  0  0
   11.2388    7.3779    2.4535 C   0  0  0  0  0  0  0  0  0  0  0  0
    9.7860    7.8251    2.2158 C   0  0  0  0  0  0  0  0  0  0  0  0
    9.4085    8.9843    3.1581 C   0  0  0  0  0  0  0  0  0  0  0  0
    8.0095    9.4641    2.8836 C   0  0  0  0  0  0  0  0  0  0  0  0
    7.6247    9.6784    1.6990 O   0  0  0  0  0  0  0  0  0  0  0  0
    7.1243    9.6922    3.9861 N   0  0  0  0  0  0  0  0  0  0  0  0
    5.7674   10.1939    3.8166 C   0  0  0  0  0  0  0  0  0  0  0  0
    5.7978   11.6684    3.5440 C   0  0  0  0  0  0  0  0  0  0  0  0
    5.5809   12.1534    2.2460 C   0  0  0  0  0  0  0  0  0  0  0  0
    5.6212   13.5261    1.9938 C   0  0  0  0  0  0  0  0  0  0  0  0
    5.8839   14.4226    3.0325 C   0  0  0  0  0  0  0  0  0  0  0  0
    6.1127   13.9486    4.3315 C   0  0  0  0  0  0  0  0  0  0  0  0
    6.3839   14.8658    5.3934 N   0  0  0  0  0  0  0  0  0  0  0  0
    6.0740   12.5704    4.5836 C   0  0  0  0  0  0  0  0  0  0  0  0
   10.4034   10.1590    3.0894 C   0  0  0  0  0  0  0  0  0  0  0  0
   11.8538    9.6818    3.2546 C   0  0  0  0  0  0  0  0  0  0  0  0
   15.0817    7.0609    0.8857 H   0  0  0  0  0  0  0  0  0  0  0  0
   13.3754    6.8825    0.3478 H   0  0  0  0  0  0  0  0  0  0  0  0
   13.9066    6.1871    1.9349 H   0  0  0  0  0  0  0  0  0  0  0  0
   13.8811    9.0586    1.1116 H   0  0  0  0  0  0  0  0  0  0  0  0
   15.5885    8.5037    2.6965 H   0  0  0  0  0  0  0  0  0  0  0  0
   14.3774    8.3022    3.8675 H   0  0  0  0  0  0  0  0  0  0  0  0
   14.5942    9.8065    3.0885 H   0  0  0  0  0  0  0  0  0  0  0  0
   11.8002    9.0091    1.2381 H   0  0  0  0  0  0  0  0  0  0  0  0
   11.4605    6.5579    1.7402 H   0  0  0  0  0  0  0  0  0  0  0  0
   11.3694    6.9871    3.4863 H   0  0  0  0  0  0  0  0  0  0  0  0
    9.1112    6.9620    2.4065 H   0  0  0  0  0  0  0  0  0  0  0  0
    9.6547    8.1248    1.1519 H   0  0  0  0  0  0  0  0  0  0  0  0
    9.4445    8.5806    4.1950 H   0  0  0  0  0  0  0  0  0  0  0  0
    7.4560    9.4987    4.9581 H   0  0  0  0  0  0  0  0  0  0  0  0
    5.2552    9.6364    3.0020 H   0  0  0  0  0  0  0  0  0  0  0  0
    5.1884   10.0093    4.7476 H   0  0  0  0  0  0  0  0  0  0  0  0
    5.3773   11.4714    1.4298 H   0  0  0  0  0  0  0  0  0  0  0  0
    5.4492   13.8963    0.9914 H   0  0  0  0  0  0  0  0  0  0  0  0
    5.9119   15.4849    2.8252 H   0  0  0  0  0  0  0  0  0  0  0  0
    6.5561   14.5235    6.3650 H   0  0  0  0  0  0  0  0  0  0  0  0
    6.4150   15.8947    5.2164 H   0  0  0  0  0  0  0  0  0  0  0  0
    6.2549   12.2007    5.5859 H   0  0  0  0  0  0  0  0  0  0  0  0
   10.1697   10.8901    3.8943 H   0  0  0  0  0  0  0  0  0  0  0  0
   10.2984   10.6859    2.1144 H   0  0  0  0  0  0  0  0  0  0  0  0
   12.0201    9.2964    4.2845 H   0  0  0  0  0  0  0  0  0  0  0  0
   12.5061   10.5654    3.0942 H   0  0  0  0  0  0  0  0  0  0  0  0
  1  2  1  0
  2  3  1  0
  2  4  1  0
  4  5  1  0
  5  6  1  0
  6  7  1  0
  7  8  1  0
  8  9  2  0
  8 10  1  0
 10 11  1  0
 11 12  1  0
 12 13  2  0
 13 14  1  0
 14 15  2  0
 15 16  1  0
 16 17  1  0
 16 18  2  0
  7 19  1  0
 19 20  1  0
 20  4  1  0
 18 12  1  0
  1 21  1  0
  1 22  1  0
  1 23  1  0
  2 24  1  0
  3 25  1  0
  3 26  1  0
  3 27  1  0
  4 28  1  0
  5 29  1  0
  5 30  1  0
  6 31  1  0
  6 32  1  0
  7 33  1  0
 10 34  1  0
 11 35  1  0
 11 36  1  0
 13 37  1  0
 14 38  1  0
 15 39  1  0
 17 40  1  0
 17 41  1  0
 18 42  1  0
 19 43  1  0
 19 44  1  0
 20 45  1  0
 20 46  1  0
M  CHG  1   3   1
M  END
>  <EmbedRMS>  (110) 
0.17309954011637427

$$$$

     RDKit          3D

 47 48  0  0  0  0  0  0  0  0999 V2000
    3.3550    7.5261    0.2387 C   0  0  0  0  0  0  0  0  0  0  0  0
    3.7591    7.6796    1.6740 C   0  0  0  0  0  0  0  0  0  0  0  0
    3.4093    6.6971    2.6112 C   0  0  0  0  0  0  0  0  0  0  0  0
    3.8066    6.8249    3.9436 C   0  0  0  0  0  0  0  0  0  0  0  0
    4.5708    7.9221    4.3466 C   0  0  0  0  0  0  0  0  0  0  0  0
    4.9400    8.9082    3.4207 C   0  0  0  0  0  0  0  0  0  0  0  0
    5.8031   10.0620    3.8692 C   0  0  0  0  0  0  0  0  0  0  0  0
    7.2179    9.6630    3.9265 N   0  0  0  0  0  0  0  0  0  0  0  0
    7.9878    9.5377    2.7183 C   0  0  0  0  0  0  0  0  0  0  0  0
    7.4195    9.7037    1.6128 O   0  0  0  0  0  0  0  0  0  0  0  0
    9.4506    9.2137    2.6347 C   0  0  0  0  0  0  0  0  0  0  0  0
    9.7340    7.7427    2.3734 C   0  0  0  0  0  0  0  0  0  0  0  0
   11.1976    7.3493    2.5402 C   0  0  0  0  0  0  0  0  0  0  0  0
   12.1819    8.5080    2.2955 C   0  0  0  0  0  0  0  0  0  0  0  0
   13.6459    7.9624    2.3850 C   0  0  0  0  0  0  0  0  0  0  0  0
   14.0279    7.2300    1.0859 C   0  0  0  0  0  0  0  0  0  0  0  0
   14.6271    9.0243    2.6471 N   0  0  0  0  0  4  0  0  0  0  0  0
   11.8957    9.6374    3.3177 C   0  0  0  0  0  0  0  0  0  0  0  0
   10.4177   10.0733    3.4266 C   0  0  0  0  0  0  0  0  0  0  0  0
    4.5324    8.7801    2.0799 C   0  0  0  0  0  0  0  0  0  0  0  0
    3.2257    8.5199   -0.2406 H   0  0  0  0  0  0  0  0  0  0  0  0
    4.1392    6.9607   -0.3066 H   0  0  0  0  0  0  0  0  0  0  0  0
    2.3914    6.9791    0.1583 H   0  0  0  0  0  0  0  0  0  0  0  0
    2.8281    5.8337    2.3113 H   0  0  0  0  0  0  0  0  0  0  0  0
    3.5310    6.0656    4.6641 H   0  0  0  0  0  0  0  0  0  0  0  0
    4.8834    7.9981    5.3809 H   0  0  0  0  0  0  0  0  0  0  0  0
    5.4772   10.3905    4.8801 H   0  0  0  0  0  0  0  0  0  0  0  0
    5.6805   10.9383    3.1956 H   0  0  0  0  0  0  0  0  0  0  0  0
    7.6767    9.5107    4.8522 H   0  0  0  0  0  0  0  0  0  0  0  0
    9.7114    9.6194    1.6251 H   0  0  0  0  0  0  0  0  0  0  0  0
    9.1282    7.1304    3.0776 H   0  0  0  0  0  0  0  0  0  0  0  0
    9.3937    7.4684    1.3478 H   0  0  0  0  0  0  0  0  0  0  0  0
   11.3436    6.9693    3.5766 H   0  0  0  0  0  0  0  0  0  0  0  0
   11.3979    6.4993    1.8571 H   0  0  0  0  0  0  0  0  0  0  0  0
   12.0116    8.9214    1.2757 H   0  0  0  0  0  0  0  0  0  0  0  0
   13.7142    7.2275    3.2200 H   0  0  0  0  0  0  0  0  0  0  0  0
   13.9578    7.9167    0.2154 H   0  0  0  0  0  0  0  0  0  0  0  0
   13.3807    6.3497    0.9044 H   0  0  0  0  0  0  0  0  0  0  0  0
   15.0712    6.8547    1.1520 H   0  0  0  0  0  0  0  0  0  0  0  0
   14.5143    9.3994    3.6160 H   0  0  0  0  0  0  0  0  0  0  0  0
   14.5262    9.7975    1.9495 H   0  0  0  0  0  0  0  0  0  0  0  0
   15.5988    8.6418    2.5850 H   0  0  0  0  0  0  0  0  0  0  0  0
   12.2339    9.3016    4.3236 H   0  0  0  0  0  0  0  0  0  0  0  0
   12.4948   10.5349    3.0515 H   0  0  0  0  0  0  0  0  0  0  0  0
   10.1188   10.0277    4.4963 H   0  0  0  0  0  0  0  0  0  0  0  0
   10.3156   11.1402    3.1210 H   0  0  0  0  0  0  0  0  0  0  0  0
    4.8107    9.5360    1.3560 H   0  0  0  0  0  0  0  0  0  0  0  0
  1  2  1  0
  2  3  2  0
  3  4  1  0
  4  5  2  0
  5  6  1  0
  6  7  1  0
  7  8  1  0
  8  9  1  0
  9 10  2  0
  9 11  1  0
 11 12  1  0
 12 13  1  0
 13 14  1  0
 14 15  1  0
 15 16  1  0
 15 17  1  0
 14 18  1  0
 18 19  1  0
  6 20  2  0
 20  2  1  0
 19 11  1  0
  1 21  1  0
  1 22  1  0
  1 23  1  0
  3 24  1  0
  4 25  1  0
  5 26  1  0
  7 27  1  0
  7 28  1  0
  8 29  1  0
 11 30  1  0
 12 31  1  0
 12 32  1  0
 13 33  1  0
 13 34  1  0
 14 35  1  0
 15 36  1  0
 16 37  1  0
 16 38  1  0
 16 39  1  0
 17 40  1  0
 17 41  1  0
 17 42  1  0
 18 43  1  0
 18 44  1  0
 19 45  1  0
 19 46  1  0
 20 47  1  0
M  CHG  1  17   1
M  END
>  <EmbedRMS>  (111) 
0.16810927383701896

$$$$

     RDKit          3D

 43 43  0  0  0  0  0  0  0  0999 V2000
   14.0277    7.0400    1.2342 C   0  0  0  0  0  0  0  0  0  0  0  0
   13.6689    8.3367    1.9396 C   0  0  0  0  0  0  0  0  0  0  0  0
   14.6131    8.7689    2.9622 N   0  0  0  0  0  4  0  0  0  0  0  0
   12.1574    8.5900    2.2123 C   0  0  0  0  0  0  0  0  0  0  0  0
   11.2408    7.3770    2.4533 C   0  0  0  0  0  0  0  0  0  0  0  0
    9.7883    7.8236    2.2151 C   0  0  0  0  0  0  0  0  0  0  0  0
    9.4114    8.9826    3.1572 C   0  0  0  0  0  0  0  0  0  0  0  0
    8.0135    9.4610    2.8824 C   0  0  0  0  0  0  0  0  0  0  0  0
    7.6271    9.6718    1.6975 O   0  0  0  0  0  0  0  0  0  0  0  0
    7.1307    9.6918    3.9853 N   0  0  0  0  0  0  0  0  0  0  0  0
    5.7650   10.1636    3.8124 C   0  0  0  0  0  0  0  0  0  0  0  0
    5.7639   11.6459    3.4401 C   0  0  0  0  0  0  0  0  0  0  0  0
    4.3352   12.1697    3.3000 C   0  0  0  0  0  0  0  0  0  0  0  0
    3.6716   12.1775    4.5620 O   0  0  0  0  0  0  0  0  0  0  0  0
    3.9257   13.1376    5.5452 C   0  0  0  0  0  0  0  0  0  0  0  0
    4.7441   14.0747    5.3430 O   0  0  0  0  0  0  0  0  0  0  0  0
   10.4051   10.1582    3.0887 C   0  0  0  0  0  0  0  0  0  0  0  0
   11.8553    9.6814    3.2542 C   0  0  0  0  0  0  0  0  0  0  0  0
   13.9078    6.1870    1.9345 H   0  0  0  0  0  0  0  0  0  0  0  0
   15.0828    7.0608    0.8854 H   0  0  0  0  0  0  0  0  0  0  0  0
   13.3766    6.8824    0.3474 H   0  0  0  0  0  0  0  0  0  0  0  0
   13.8824    9.0586    1.1115 H   0  0  0  0  0  0  0  0  0  0  0  0
   14.5953    9.8061    3.0886 H   0  0  0  0  0  0  0  0  0  0  0  0
   14.3780    8.3018    3.8674 H   0  0  0  0  0  0  0  0  0  0  0  0
   15.5894    8.5032    2.6968 H   0  0  0  0  0  0  0  0  0  0  0  0
   11.8016    9.0084    1.2376 H   0  0  0  0  0  0  0  0  0  0  0  0
   11.3714    6.9865    3.4863 H   0  0  0  0  0  0  0  0  0  0  0  0
   11.4628    6.5569    1.7402 H   0  0  0  0  0  0  0  0  0  0  0  0
    9.6573    8.1229    1.1511 H   0  0  0  0  0  0  0  0  0  0  0  0
    9.1137    6.9604    2.4061 H   0  0  0  0  0  0  0  0  0  0  0  0
    9.4481    8.5788    4.1941 H   0  0  0  0  0  0  0  0  0  0  0  0
    7.4545    9.4742    4.9549 H   0  0  0  0  0  0  0  0  0  0  0  0
    5.2117   10.0216    4.7665 H   0  0  0  0  0  0  0  0  0  0  0  0
    5.2568    9.5615    3.0276 H   0  0  0  0  0  0  0  0  0  0  0  0
    6.2862   11.7884    2.4703 H   0  0  0  0  0  0  0  0  0  0  0  0
    6.3119   12.2283    4.2116 H   0  0  0  0  0  0  0  0  0  0  0  0
    4.3485   13.1957    2.8712 H   0  0  0  0  0  0  0  0  0  0  0  0
    3.7660   11.5243    2.5971 H   0  0  0  0  0  0  0  0  0  0  0  0
    3.4078   13.0776    6.4923 H   0  0  0  0  0  0  0  0  0  0  0  0
   10.1711   10.8890    3.8936 H   0  0  0  0  0  0  0  0  0  0  0  0
   10.3002   10.6849    2.1136 H   0  0  0  0  0  0  0  0  0  0  0  0
   12.5075   10.5652    3.0936 H   0  0  0  0  0  0  0  0  0  0  0  0
   12.0216    9.2962    4.2841 H   0  0  0  0  0  0  0  0  0  0  0  0
  1  2  1  0
  2  3  1  0
  2  4  1  0
  4  5  1  0
  5  6  1  0
  6  7  1  0
  7  8  1  0
  8  9  2  0
  8 10  1  0
 10 11  1  0
 11 12  1  0
 12 13  1  0
 13 14  1  0
 14 15  1  0
 15 16  2  0
  7 17  1  0
 17 18  1  0
 18  4  1  0
  1 19  1  0
  1 20  1  0
  1 21  1  0
  2 22  1  0
  3 23  1  0
  3 24  1  0
  3 25  1  0
  4 26  1  0
  5 27  1  0
  5 28  1  0
  6 29  1  0
  6 30  1  0
  7 31  1  0
 10 32  1  0
 11 33  1  0
 11 34  1  0
 12 35  1  0
 12 36  1  0
 13 37  1  0
 13 38  1  0
 15 39  1  0
 17 40  1  0
 17 41  1  0
 18 42  1  0
 18 43  1  0
M  CHG  1   3   1
M  END
>  <EmbedRMS>  (112) 
0.18272380109221892

$$$$

     RDKit          3D

 45 45  0  0  0  0  0  0  0  0999 V2000
   14.0483    7.2192    1.1050 C   0  0  0  0  0  0  0  0  0  0  0  0
   13.6494    7.9556    2.3991 C   0  0  0  0  0  0  0  0  0  0  0  0
   14.6288    9.0156    2.6712 N   0  0  0  0  0  4  0  0  0  0  0  0
   12.1998    8.5120    2.2740 C   0  0  0  0  0  0  0  0  0  0  0  0
   11.1801    7.3657    2.4362 C   0  0  0  0  0  0  0  0  0  0  0  0
    9.7709    7.8717    2.1603 C   0  0  0  0  0  0  0  0  0  0  0  0
    9.4097    8.9935    3.1400 C   0  0  0  0  0  0  0  0  0  0  0  0
    8.0135    9.4794    2.8808 C   0  0  0  0  0  0  0  0  0  0  0  0
    7.6238    9.6897    1.6990 O   0  0  0  0  0  0  0  0  0  0  0  0
    7.1344    9.7051    3.9890 N   0  0  0  0  0  0  0  0  0  0  0  0
    5.7458   10.1170    3.8283 C   0  0  0  0  0  0  0  0  0  0  0  0
    4.9120    8.9627    3.3331 C   0  0  0  0  0  0  0  0  0  0  0  0
    4.7669    7.9469    4.1314 N   0  0  0  0  0  0  0  0  0  0  0  0
    4.2886    8.9803    2.0219 N   0  0  0  0  0  0  0  0  0  0  0  0
    3.5253    7.8212    1.5463 C   0  0  0  0  0  0  0  0  0  0  0  0
    4.3668   10.1703    1.1657 C   0  0  0  0  0  0  0  0  0  0  0  0
   10.4236   10.1482    3.0688 C   0  0  0  0  0  0  0  0  0  0  0  0
   11.8589    9.6378    3.2820 C   0  0  0  0  0  0  0  0  0  0  0  0
   13.4169    6.3269    0.9274 H   0  0  0  0  0  0  0  0  0  0  0  0
   13.9781    7.8973    0.2277 H   0  0  0  0  0  0  0  0  0  0  0  0
   15.0956    6.8572    1.1810 H   0  0  0  0  0  0  0  0  0  0  0  0
   13.6911    7.2249    3.2392 H   0  0  0  0  0  0  0  0  0  0  0  0
   15.6002    8.6296    2.6303 H   0  0  0  0  0  0  0  0  0  0  0  0
   14.5433    9.7862    1.9686 H   0  0  0  0  0  0  0  0  0  0  0  0
   14.4963    9.3932    3.6369 H   0  0  0  0  0  0  0  0  0  0  0  0
   12.0872    8.9472    1.2541 H   0  0  0  0  0  0  0  0  0  0  0  0
   11.3807    6.5456    1.7187 H   0  0  0  0  0  0  0  0  0  0  0  0
   11.2356    6.9384    3.4624 H   0  0  0  0  0  0  0  0  0  0  0  0
    9.7072    8.2313    1.1086 H   0  0  0  0  0  0  0  0  0  0  0  0
    9.0557    7.0280    2.2800 H   0  0  0  0  0  0  0  0  0  0  0  0
    9.4470    8.5671    4.1681 H   0  0  0  0  0  0  0  0  0  0  0  0
    7.4994    9.5842    4.9608 H   0  0  0  0  0  0  0  0  0  0  0  0
    5.3458   10.4333    4.8162 H   0  0  0  0  0  0  0  0  0  0  0  0
    5.7027   11.0122    3.1788 H   0  0  0  0  0  0  0  0  0  0  0  0
    4.2139    7.0922    3.9063 H   0  0  0  0  0  0  0  0  0  0  0  0
    2.6578    7.6405    2.2155 H   0  0  0  0  0  0  0  0  0  0  0  0
    4.1789    6.9235    1.5256 H   0  0  0  0  0  0  0  0  0  0  0  0
    3.1330    7.9704    0.5186 H   0  0  0  0  0  0  0  0  0  0  0  0
    3.9210   11.0414    1.6903 H   0  0  0  0  0  0  0  0  0  0  0  0
    5.4162   10.3894    0.8953 H   0  0  0  0  0  0  0  0  0  0  0  0
    3.8053   10.0384    0.2173 H   0  0  0  0  0  0  0  0  0  0  0  0
   10.1865   10.9009    3.8522 H   0  0  0  0  0  0  0  0  0  0  0  0
   10.3561   10.6508    2.0781 H   0  0  0  0  0  0  0  0  0  0  0  0
   12.5377   10.5051    3.1413 H   0  0  0  0  0  0  0  0  0  0  0  0
   11.9756    9.2659    4.3239 H   0  0  0  0  0  0  0  0  0  0  0  0
  1  2  1  0
  2  3  1  0
  2  4  1  0
  4  5  1  0
  5  6  1  0
  6  7  1  0
  7  8  1  0
  8  9  2  0
  8 10  1  0
 10 11  1  0
 11 12  1  0
 12 13  2  3
 12 14  1  0
 14 15  1  0
 14 16  1  0
  7 17  1  0
 17 18  1  0
 18  4  1  0
  1 19  1  0
  1 20  1  0
  1 21  1  0
  2 22  1  0
  3 23  1  0
  3 24  1  0
  3 25  1  0
  4 26  1  0
  5 27  1  0
  5 28  1  0
  6 29  1  0
  6 30  1  0
  7 31  1  0
 10 32  1  0
 11 33  1  0
 11 34  1  0
 13 35  1  0
 15 36  1  0
 15 37  1  0
 15 38  1  0
 16 39  1  0
 16 40  1  0
 16 41  1  0
 17 42  1  0
 17 43  1  0
 18 44  1  0
 18 45  1  0
M  CHG  1   3   1
M  END
>  <EmbedRMS>  (113) 
0.03360966747943531

$$$$

     RDKit          3D

 42 43  0  0  0  0  0  0  0  0999 V2000
   13.9330    7.3327    1.0255 C   0  0  0  0  0  0  0  0  0  0  0  0
   13.7113    7.9149    2.4297 C   0  0  0  0  0  0  0  0  0  0  0  0
   14.6494    9.0166    2.6727 N   0  0  0  0  0  4  0  0  0  0  0  0
   12.2345    8.2986    2.7964 C   0  0  0  0  0  0  0  0  0  0  0  0
   11.1490    7.3144    2.3221 C   0  0  0  0  0  0  0  0  0  0  0  0
    9.7869    7.9344    2.0758 C   0  0  0  0  0  0  0  0  0  0  0  0
    9.4243    8.9832    3.1211 C   0  0  0  0  0  0  0  0  0  0  0  0
    8.0186    9.4652    2.8740 C   0  0  0  0  0  0  0  0  0  0  0  0
    7.6274    9.6805    1.6915 O   0  0  0  0  0  0  0  0  0  0  0  0
    7.1430    9.6967    3.9865 N   0  0  0  0  0  0  0  0  0  0  0  0
    5.7536   10.1436    3.8689 C   0  0  0  0  0  0  0  0  0  0  0  0
    5.6449   11.5115    3.2125 C   0  0  0  0  0  0  0  0  0  0  0  0
    4.1855   11.6966    2.8499 C   0  0  0  0  0  0  0  0  0  0  0  0
    3.5083   10.0849    2.3403 S   0  0  0  0  0  0  0  0  0  0  0  0
    4.8939    9.1634    3.0760 C   0  0  0  0  0  0  0  0  0  0  0  0
   10.3953   10.1676    3.0639 C   0  0  0  0  0  0  0  0  0  0  0  0
   11.8871    9.7889    2.9945 C   0  0  0  0  0  0  0  0  0  0  0  0
   13.5379    6.2976    0.9561 H   0  0  0  0  0  0  0  0  0  0  0  0
   15.0173    7.2757    0.7907 H   0  0  0  0  0  0  0  0  0  0  0  0
   13.4413    7.9750    0.2644 H   0  0  0  0  0  0  0  0  0  0  0  0
   14.0089    7.0850    3.1153 H   0  0  0  0  0  0  0  0  0  0  0  0
   14.5094    9.7867    1.9798 H   0  0  0  0  0  0  0  0  0  0  0  0
   15.6326    8.6703    2.5829 H   0  0  0  0  0  0  0  0  0  0  0  0
   14.5421    9.3805    3.6467 H   0  0  0  0  0  0  0  0  0  0  0  0
   12.2388    8.0299    3.8813 H   0  0  0  0  0  0  0  0  0  0  0  0
   11.0344    6.4808    3.0539 H   0  0  0  0  0  0  0  0  0  0  0  0
   11.4323    6.8313    1.3685 H   0  0  0  0  0  0  0  0  0  0  0  0
    9.7915    8.4027    1.0650 H   0  0  0  0  0  0  0  0  0  0  0  0
    9.0220    7.1257    2.0675 H   0  0  0  0  0  0  0  0  0  0  0  0
    9.4840    8.5127    4.1281 H   0  0  0  0  0  0  0  0  0  0  0  0
    7.5144    9.5359    4.9501 H   0  0  0  0  0  0  0  0  0  0  0  0
    5.3203   10.2256    4.8924 H   0  0  0  0  0  0  0  0  0  0  0  0
    6.2506   11.5780    2.2865 H   0  0  0  0  0  0  0  0  0  0  0  0
    5.9794   12.3098    3.9100 H   0  0  0  0  0  0  0  0  0  0  0  0
    3.6193   12.0539    3.7367 H   0  0  0  0  0  0  0  0  0  0  0  0
    4.0750   12.4353    2.0282 H   0  0  0  0  0  0  0  0  0  0  0  0
    4.5000    8.3695    3.7455 H   0  0  0  0  0  0  0  0  0  0  0  0
    5.4539    8.6751    2.2544 H   0  0  0  0  0  0  0  0  0  0  0  0
   10.2218   10.8137    3.9530 H   0  0  0  0  0  0  0  0  0  0  0  0
   10.1534   10.7901    2.1719 H   0  0  0  0  0  0  0  0  0  0  0  0
   12.3143   10.3457    2.1336 H   0  0  0  0  0  0  0  0  0  0  0  0
   12.3947   10.1935    3.9001 H   0  0  0  0  0  0  0  0  0  0  0  0
  1  2  1  0
  2  3  1  0
  2  4  1  0
  4  5  1  0
  5  6  1  0
  6  7  1  0
  7  8  1  0
  8  9  2  0
  8 10  1  0
 10 11  1  0
 11 12  1  0
 12 13  1  0
 13 14  1  0
 14 15  1  0
  7 16  1  0
 16 17  1  0
 17  4  1  0
 15 11  1  0
  1 18  1  0
  1 19  1  0
  1 20  1  0
  2 21  1  0
  3 22  1  0
  3 23  1  0
  3 24  1  0
  4 25  1  0
  5 26  1  0
  5 27  1  0
  6 28  1  0
  6 29  1  0
  7 30  1  0
 10 31  1  0
 11 32  1  0
 12 33  1  0
 12 34  1  0
 13 35  1  0
 13 36  1  0
 15 37  1  0
 15 38  1  0
 16 39  1  0
 16 40  1  0
 17 41  1  0
 17 42  1  0
M  CHG  1   3   1
M  END
>  <EmbedRMS>  (114) 
0.16887371723399547

$$$$

     RDKit          3D

 41 41  0  0  0  0  0  0  0  0999 V2000
   14.0115    7.0506    1.2528 C   0  0  0  0  0  0  0  0  0  0  0  0
   13.6007    8.3244    1.9897 C   0  0  0  0  0  0  0  0  0  0  0  0
   14.7026    8.8917    2.7697 N   0  0  0  0  0  4  0  0  0  0  0  0
   12.2613    8.3272    2.7670 C   0  0  0  0  0  0  0  0  0  0  0  0
   11.1798    7.4395    2.1343 C   0  0  0  0  0  0  0  0  0  0  0  0
    9.7449    7.7260    2.5438 C   0  0  0  0  0  0  0  0  0  0  0  0
    9.4498    9.2016    2.6348 C   0  0  0  0  0  0  0  0  0  0  0  0
    7.9883    9.5247    2.7224 C   0  0  0  0  0  0  0  0  0  0  0  0
    7.4124    9.6708    1.6173 O   0  0  0  0  0  0  0  0  0  0  0  0
    7.2314    9.6900    3.9341 N   0  0  0  0  0  0  0  0  0  0  0  0
    5.8391   10.1600    3.8802 C   0  0  0  0  0  0  0  0  0  0  0  0
    5.7848   11.6424    3.4802 C   0  0  0  0  0  0  0  0  0  0  0  0
    4.4046   12.0986    3.3235 N   0  0  0  0  0  0  0  0  0  0  0  0
    4.0979   13.4521    2.9752 C   0  0  0  0  0  0  0  0  0  0  0  0
    5.0150   14.2987    2.8019 O   0  0  0  0  0  0  0  0  0  0  0  0
   10.3846   10.0200    3.4814 C   0  0  0  0  0  0  0  0  0  0  0  0
   11.8491    9.7807    3.1212 C   0  0  0  0  0  0  0  0  0  0  0  0
   14.9833    7.1928    0.7338 H   0  0  0  0  0  0  0  0  0  0  0  0
   14.1168    6.2176    1.9793 H   0  0  0  0  0  0  0  0  0  0  0  0
   13.2678    6.7648    0.4810 H   0  0  0  0  0  0  0  0  0  0  0  0
   13.4367    9.0286    1.1409 H   0  0  0  0  0  0  0  0  0  0  0  0
   15.5920    8.8676    2.2197 H   0  0  0  0  0  0  0  0  0  0  0  0
   14.5201    9.8921    3.0081 H   0  0  0  0  0  0  0  0  0  0  0  0
   14.8383    8.3412    3.6484 H   0  0  0  0  0  0  0  0  0  0  0  0
   12.4685    7.8405    3.7468 H   0  0  0  0  0  0  0  0  0  0  0  0
   11.4064    6.3669    2.3233 H   0  0  0  0  0  0  0  0  0  0  0  0
   11.2136    7.5916    1.0333 H   0  0  0  0  0  0  0  0  0  0  0  0
    9.5620    7.2714    3.5419 H   0  0  0  0  0  0  0  0  0  0  0  0
    9.0548    7.2351    1.8212 H   0  0  0  0  0  0  0  0  0  0  0  0
    9.7207    9.5606    1.6108 H   0  0  0  0  0  0  0  0  0  0  0  0
    7.6691    9.4627    4.8547 H   0  0  0  0  0  0  0  0  0  0  0  0
    5.2621    9.5419    3.1581 H   0  0  0  0  0  0  0  0  0  0  0  0
    5.3740   10.0392    4.8825 H   0  0  0  0  0  0  0  0  0  0  0  0
    6.3234   11.8023    2.5228 H   0  0  0  0  0  0  0  0  0  0  0  0
    6.2851   12.2470    4.2676 H   0  0  0  0  0  0  0  0  0  0  0  0
    3.6094   11.4357    3.4671 H   0  0  0  0  0  0  0  0  0  0  0  0
    3.0657   13.7552    2.8606 H   0  0  0  0  0  0  0  0  0  0  0  0
   10.1471   11.1031    3.3845 H   0  0  0  0  0  0  0  0  0  0  0  0
   10.2299    9.7359    4.5451 H   0  0  0  0  0  0  0  0  0  0  0  0
   12.4695   10.1520    3.9658 H   0  0  0  0  0  0  0  0  0  0  0  0
   12.0655   10.4407    2.2522 H   0  0  0  0  0  0  0  0  0  0  0  0
  1  2  1  0
  2  3  1  0
  2  4  1  0
  4  5  1  0
  5  6  1  0
  6  7  1  0
  7  8  1  0
  8  9  2  0
  8 10  1  0
 10 11  1  0
 11 12  1  0
 12 13  1  0
 13 14  1  0
 14 15  2  0
  7 16  1  0
 16 17  1  0
 17  4  1  0
  1 18  1  0
  1 19  1  0
  1 20  1  0
  2 21  1  0
  3 22  1  0
  3 23  1  0
  3 24  1  0
  4 25  1  0
  5 26  1  0
  5 27  1  0
  6 28  1  0
  6 29  1  0
  7 30  1  0
 10 31  1  0
 11 32  1  0
 11 33  1  0
 12 34  1  0
 12 35  1  0
 13 36  1  0
 14 37  1  0
 16 38  1  0
 16 39  1  0
 17 40  1  0
 17 41  1  0
M  CHG  1   3   1
M  END
>  <EmbedRMS>  (115) 
0.30207850723488733

$$$$

     RDKit          3D

 47 47  0  0  0  0  0  0  0  0999 V2000
    4.1726    7.7207    7.9273 C   0  0  0  0  0  0  0  0  0  0  0  0
    3.8424    8.6134    6.7450 C   0  0  0  0  0  0  0  0  0  0  0  0
    3.0006    9.6783    7.0556 O   0  0  0  0  0  0  0  0  0  0  0  0
    5.0462    8.9023    5.8405 C   0  0  0  0  0  0  0  0  0  0  0  0
    5.0666   10.2570    5.1343 C   0  0  0  0  0  0  0  0  0  0  0  0
    5.8190   10.1679    3.8022 C   0  0  0  0  0  0  0  0  0  0  0  0
    7.2160    9.7093    3.9329 N   0  0  0  0  0  0  0  0  0  0  0  0
    7.9865    9.5396    2.7279 C   0  0  0  0  0  0  0  0  0  0  0  0
    7.4150    9.6886    1.6197 O   0  0  0  0  0  0  0  0  0  0  0  0
    9.4486    9.2040    2.6354 C   0  0  0  0  0  0  0  0  0  0  0  0
    9.7343    7.7240    2.5392 C   0  0  0  0  0  0  0  0  0  0  0  0
   11.1729    7.4165    2.1509 C   0  0  0  0  0  0  0  0  0  0  0  0
   12.2289    8.2937    2.8217 C   0  0  0  0  0  0  0  0  0  0  0  0
   13.7070    7.9210    2.4414 C   0  0  0  0  0  0  0  0  0  0  0  0
   13.9221    7.3284    1.0385 C   0  0  0  0  0  0  0  0  0  0  0  0
   14.6421    9.0267    2.6701 N   0  0  0  0  0  4  0  0  0  0  0  0
   11.8785    9.7843    2.9977 C   0  0  0  0  0  0  0  0  0  0  0  0
   10.4246   10.0512    3.4200 C   0  0  0  0  0  0  0  0  0  0  0  0
    3.2399    7.4264    8.4543 H   0  0  0  0  0  0  0  0  0  0  0  0
    4.6946    6.8002    7.5873 H   0  0  0  0  0  0  0  0  0  0  0  0
    4.8269    8.2647    8.6411 H   0  0  0  0  0  0  0  0  0  0  0  0
    3.1962    7.9612    6.1149 H   0  0  0  0  0  0  0  0  0  0  0  0
    3.5310   10.2916    7.6277 H   0  0  0  0  0  0  0  0  0  0  0  0
    5.9747    8.8418    6.4505 H   0  0  0  0  0  0  0  0  0  0  0  0
    5.1266    8.0761    5.0965 H   0  0  0  0  0  0  0  0  0  0  0  0
    4.0288   10.5856    4.9098 H   0  0  0  0  0  0  0  0  0  0  0  0
    5.5378   11.0223    5.7890 H   0  0  0  0  0  0  0  0  0  0  0  0
    5.2654    9.4768    3.1282 H   0  0  0  0  0  0  0  0  0  0  0  0
    5.8125   11.1742    3.3295 H   0  0  0  0  0  0  0  0  0  0  0  0
    7.6636    9.5623    4.8649 H   0  0  0  0  0  0  0  0  0  0  0  0
    9.7003    9.5369    1.5976 H   0  0  0  0  0  0  0  0  0  0  0  0
    9.5309    7.2691    3.5332 H   0  0  0  0  0  0  0  0  0  0  0  0
    9.0486    7.2423    1.8063 H   0  0  0  0  0  0  0  0  0  0  0  0
   11.2445    7.5656    1.0519 H   0  0  0  0  0  0  0  0  0  0  0  0
   11.3796    6.3431    2.3583 H   0  0  0  0  0  0  0  0  0  0  0  0
   12.1625    7.9504    3.8815 H   0  0  0  0  0  0  0  0  0  0  0  0
   14.0107    7.0968    3.1299 H   0  0  0  0  0  0  0  0  0  0  0  0
   13.3771    6.3681    0.9248 H   0  0  0  0  0  0  0  0  0  0  0  0
   13.5727    8.0451    0.2655 H   0  0  0  0  0  0  0  0  0  0  0  0
   14.9991    7.1179    0.8656 H   0  0  0  0  0  0  0  0  0  0  0  0
   14.4326    9.8276    2.0313 H   0  0  0  0  0  0  0  0  0  0  0  0
   15.6228    8.7088    2.4918 H   0  0  0  0  0  0  0  0  0  0  0  0
   14.5984    9.3361    3.6677 H   0  0  0  0  0  0  0  0  0  0  0  0
   12.0550   10.2952    2.0264 H   0  0  0  0  0  0  0  0  0  0  0  0
   12.5393   10.2613    3.7521 H   0  0  0  0  0  0  0  0  0  0  0  0
   10.1925   11.1311    3.2861 H   0  0  0  0  0  0  0  0  0  0  0  0
   10.3118    9.8101    4.4992 H   0  0  0  0  0  0  0  0  0  0  0  0
  1  2  1  0
  2  3  1  0
  2  4  1  0
  4  5  1  0
  5  6  1  0
  6  7  1  0
  7  8  1  0
  8  9  2  0
  8 10  1  0
 10 11  1  0
 11 12  1  0
 12 13  1  0
 13 14  1  0
 14 15  1  0
 14 16  1  0
 13 17  1  0
 17 18  1  0
 18 10  1  0
  1 19  1  0
  1 20  1  0
  1 21  1  0
  2 22  1  0
  3 23  1  0
  4 24  1  0
  4 25  1  0
  5 26  1  0
  5 27  1  0
  6 28  1  0
  6 29  1  0
  7 30  1  0
 10 31  1  0
 11 32  1  0
 11 33  1  0
 12 34  1  0
 12 35  1  0
 13 36  1  0
 14 37  1  0
 15 38  1  0
 15 39  1  0
 15 40  1  0
 16 41  1  0
 16 42  1  0
 16 43  1  0
 17 44  1  0
 17 45  1  0
 18 46  1  0
 18 47  1  0
M  CHG  1  16   1
M  END
>  <EmbedRMS>  (116) 
0.3138150757084315

$$$$

     RDKit          3D

 41 41  0  0  0  0  0  0  0  0999 V2000
   14.0115    7.0506    1.2528 C   0  0  0  0  0  0  0  0  0  0  0  0
   13.6007    8.3244    1.9897 C   0  0  0  0  0  0  0  0  0  0  0  0
   14.7026    8.8917    2.7697 N   0  0  0  0  0  4  0  0  0  0  0  0
   12.2613    8.3272    2.7670 C   0  0  0  0  0  0  0  0  0  0  0  0
   11.1798    7.4395    2.1343 C   0  0  0  0  0  0  0  0  0  0  0  0
    9.7449    7.7260    2.5438 C   0  0  0  0  0  0  0  0  0  0  0  0
    9.4498    9.2016    2.6348 C   0  0  0  0  0  0  0  0  0  0  0  0
    7.9883    9.5247    2.7224 C   0  0  0  0  0  0  0  0  0  0  0  0
    7.4124    9.6708    1.6173 O   0  0  0  0  0  0  0  0  0  0  0  0
    7.2314    9.6900    3.9341 N   0  0  0  0  0  0  0  0  0  0  0  0
    5.8391   10.1600    3.8802 C   0  0  0  0  0  0  0  0  0  0  0  0
    5.7848   11.6424    3.4802 C   0  0  0  0  0  0  0  0  0  0  0  0
    4.4046   12.0986    3.3235 N   0  0  0  0  0  0  0  0  0  0  0  0
    4.0979   13.4521    2.9752 C   0  0  0  0  0  0  0  0  0  0  0  0
    5.0150   14.2987    2.8019 O   0  0  0  0  0  0  0  0  0  0  0  0
   10.3846   10.0200    3.4814 C   0  0  0  0  0  0  0  0  0  0  0  0
   11.8491    9.7807    3.1212 C   0  0  0  0  0  0  0  0  0  0  0  0
   14.9833    7.1928    0.7338 H   0  0  0  0  0  0  0  0  0  0  0  0
   14.1168    6.2176    1.9793 H   0  0  0  0  0  0  0  0  0  0  0  0
   13.2678    6.7648    0.4810 H   0  0  0  0  0  0  0  0  0  0  0  0
   13.4367    9.0286    1.1409 H   0  0  0  0  0  0  0  0  0  0  0  0
   15.5920    8.8676    2.2197 H   0  0  0  0  0  0  0  0  0  0  0  0
   14.5201    9.8921    3.0081 H   0  0  0  0  0  0  0  0  0  0  0  0
   14.8383    8.3412    3.6484 H   0  0  0  0  0  0  0  0  0  0  0  0
   12.4685    7.8405    3.7468 H   0  0  0  0  0  0  0  0  0  0  0  0
   11.4064    6.3669    2.3233 H   0  0  0  0  0  0  0  0  0  0  0  0
   11.2136    7.5916    1.0333 H   0  0  0  0  0  0  0  0  0  0  0  0
    9.5620    7.2714    3.5419 H   0  0  0  0  0  0  0  0  0  0  0  0
    9.0548    7.2351    1.8212 H   0  0  0  0  0  0  0  0  0  0  0  0
    9.7207    9.5606    1.6108 H   0  0  0  0  0  0  0  0  0  0  0  0
    7.6691    9.4627    4.8547 H   0  0  0  0  0  0  0  0  0  0  0  0
    5.2621    9.5419    3.1581 H   0  0  0  0  0  0  0  0  0  0  0  0
    5.3740   10.0392    4.8825 H   0  0  0  0  0  0  0  0  0  0  0  0
    6.3234   11.8023    2.5228 H   0  0  0  0  0  0  0  0  0  0  0  0
    6.2851   12.2470    4.2676 H   0  0  0  0  0  0  0  0  0  0  0  0
    3.6094   11.4357    3.4671 H   0  0  0  0  0  0  0  0  0  0  0  0
    3.0657   13.7552    2.8606 H   0  0  0  0  0  0  0  0  0  0  0  0
   10.1471   11.1031    3.3845 H   0  0  0  0  0  0  0  0  0  0  0  0
   10.2299    9.7359    4.5451 H   0  0  0  0  0  0  0  0  0  0  0  0
   12.4695   10.1520    3.9658 H   0  0  0  0  0  0  0  0  0  0  0  0
   12.0655   10.4407    2.2522 H   0  0  0  0  0  0  0  0  0  0  0  0
  1  2  1  0
  2  3  1  0
  2  4  1  0
  4  5  1  0
  5  6  1  0
  6  7  1  0
  7  8  1  0
  8  9  2  0
  8 10  1  0
 10 11  1  0
 11 12  1  0
 12 13  1  0
 13 14  1  0
 14 15  2  0
  7 16  1  0
 16 17  1  0
 17  4  1  0
  1 18  1  0
  1 19  1  0
  1 20  1  0
  2 21  1  0
  3 22  1  0
  3 23  1  0
  3 24  1  0
  4 25  1  0
  5 26  1  0
  5 27  1  0
  6 28  1  0
  6 29  1  0
  7 30  1  0
 10 31  1  0
 11 32  1  0
 11 33  1  0
 12 34  1  0
 12 35  1  0
 13 36  1  0
 14 37  1  0
 16 38  1  0
 16 39  1  0
 17 40  1  0
 17 41  1  0
M  CHG  1   3   1
M  END
>  <EmbedRMS>  (117) 
0.30207850723488733

$$$$

     RDKit          3D

 44 44  0  0  0  0  0  0  0  0999 V2000
    2.2726   12.2730    1.9197 C   0  0  0  0  0  0  0  0  0  0  0  0
    3.6716   11.7753    2.0767 C   0  0  0  0  0  0  0  0  0  0  0  0
    4.1993   11.0975    1.1535 O   0  0  0  0  0  0  0  0  0  0  0  0
    4.4123   12.0913    3.2636 N   0  0  0  0  0  0  0  0  0  0  0  0
    5.7882   11.6467    3.4755 C   0  0  0  0  0  0  0  0  0  0  0  0
    5.8325   10.1636    3.8751 C   0  0  0  0  0  0  0  0  0  0  0  0
    7.2226    9.6885    3.9384 N   0  0  0  0  0  0  0  0  0  0  0  0
    7.9822    9.5147    2.7306 C   0  0  0  0  0  0  0  0  0  0  0  0
    7.4090    9.6628    1.6229 O   0  0  0  0  0  0  0  0  0  0  0  0
    9.4448    9.1929    2.6561 C   0  0  0  0  0  0  0  0  0  0  0  0
    9.7666    7.7134    2.4316 C   0  0  0  0  0  0  0  0  0  0  0  0
   11.2651    7.3640    2.5402 C   0  0  0  0  0  0  0  0  0  0  0  0
   12.1439    8.5866    2.2323 C   0  0  0  0  0  0  0  0  0  0  0  0
   13.6549    8.3400    1.9333 C   0  0  0  0  0  0  0  0  0  0  0  0
   14.0142    7.0450    1.2245 C   0  0  0  0  0  0  0  0  0  0  0  0
   14.6174    8.7740    2.9401 N   0  0  0  0  0  4  0  0  0  0  0  0
   11.8897    9.6849    3.2851 C   0  0  0  0  0  0  0  0  0  0  0  0
   10.4047   10.0809    3.4318 C   0  0  0  0  0  0  0  0  0  0  0  0
    1.7850   11.7977    1.0420 H   0  0  0  0  0  0  0  0  0  0  0  0
    2.2858   13.3733    1.7753 H   0  0  0  0  0  0  0  0  0  0  0  0
    1.6851   12.0305    2.8298 H   0  0  0  0  0  0  0  0  0  0  0  0
    3.9764   12.7171    3.9782 H   0  0  0  0  0  0  0  0  0  0  0  0
    6.3806   11.8354    2.5554 H   0  0  0  0  0  0  0  0  0  0  0  0
    6.2447   12.2471    4.2922 H   0  0  0  0  0  0  0  0  0  0  0  0
    5.2582    9.5431    3.1538 H   0  0  0  0  0  0  0  0  0  0  0  0
    5.3593   10.0461    4.8739 H   0  0  0  0  0  0  0  0  0  0  0  0
    7.6549    9.4618    4.8617 H   0  0  0  0  0  0  0  0  0  0  0  0
    9.6827    9.5850    1.6377 H   0  0  0  0  0  0  0  0  0  0  0  0
    9.3865    7.3953    1.4337 H   0  0  0  0  0  0  0  0  0  0  0  0
    9.2159    7.1115    3.1869 H   0  0  0  0  0  0  0  0  0  0  0  0
   11.4755    6.5310    1.8379 H   0  0  0  0  0  0  0  0  0  0  0  0
   11.4952    7.0012    3.5662 H   0  0  0  0  0  0  0  0  0  0  0  0
   11.7508    8.9795    1.2653 H   0  0  0  0  0  0  0  0  0  0  0  0
   13.8449    9.0656    1.1033 H   0  0  0  0  0  0  0  0  0  0  0  0
   15.0592    7.0794    0.8478 H   0  0  0  0  0  0  0  0  0  0  0  0
   13.9249    6.1936    1.9314 H   0  0  0  0  0  0  0  0  0  0  0  0
   13.3412    6.8742    0.3568 H   0  0  0  0  0  0  0  0  0  0  0  0
   14.5656    9.8050    3.1029 H   0  0  0  0  0  0  0  0  0  0  0  0
   14.4333    8.2660    3.8350 H   0  0  0  0  0  0  0  0  0  0  0  0
   15.5929    8.5557    2.6317 H   0  0  0  0  0  0  0  0  0  0  0  0
   12.4544   10.6000    3.0036 H   0  0  0  0  0  0  0  0  0  0  0  0
   12.2718    9.3427    4.2720 H   0  0  0  0  0  0  0  0  0  0  0  0
   10.2656   11.1439    3.1275 H   0  0  0  0  0  0  0  0  0  0  0  0
   10.1319   10.0247    4.5078 H   0  0  0  0  0  0  0  0  0  0  0  0
  1  2  1  0
  2  3  2  0
  2  4  1  0
  4  5  1  0
  5  6  1  0
  6  7  1  0
  7  8  1  0
  8  9  2  0
  8 10  1  0
 10 11  1  0
 11 12  1  0
 12 13  1  0
 13 14  1  0
 14 15  1  0
 14 16  1  0
 13 17  1  0
 17 18  1  0
 18 10  1  0
  1 19  1  0
  1 20  1  0
  1 21  1  0
  4 22  1  0
  5 23  1  0
  5 24  1  0
  6 25  1  0
  6 26  1  0
  7 27  1  0
 10 28  1  0
 11 29  1  0
 11 30  1  0
 12 31  1  0
 12 32  1  0
 13 33  1  0
 14 34  1  0
 15 35  1  0
 15 36  1  0
 15 37  1  0
 16 38  1  0
 16 39  1  0
 16 40  1  0
 17 41  1  0
 17 42  1  0
 18 43  1  0
 18 44  1  0
M  CHG  1  16   1
M  END
>  <EmbedRMS>  (118) 
0.2509587523478319

$$$$

     RDKit          3D

 47 48  0  0  0  0  0  0  0  0999 V2000
    4.7298   11.2329    1.2004 C   0  0  0  0  0  0  0  0  0  0  0  0
    5.3138   12.1441    2.2473 C   0  0  0  0  0  0  0  0  0  0  0  0
    5.3511   13.5258    1.9941 C   0  0  0  0  0  0  0  0  0  0  0  0
    5.8452   14.4116    2.9519 C   0  0  0  0  0  0  0  0  0  0  0  0
    6.3088   13.9314    4.1756 C   0  0  0  0  0  0  0  0  0  0  0  0
    6.2820   12.5622    4.4445 C   0  0  0  0  0  0  0  0  0  0  0  0
    5.7871   11.6542    3.4906 C   0  0  0  0  0  0  0  0  0  0  0  0
    5.7789   10.1855    3.8378 C   0  0  0  0  0  0  0  0  0  0  0  0
    7.1442    9.6952    3.9866 N   0  0  0  0  0  0  0  0  0  0  0  0
    8.0145    9.4670    2.8714 C   0  0  0  0  0  0  0  0  0  0  0  0
    7.6166    9.6840    1.6942 O   0  0  0  0  0  0  0  0  0  0  0  0
    9.4183    8.9869    3.1124 C   0  0  0  0  0  0  0  0  0  0  0  0
    9.8000    7.9217    2.0865 C   0  0  0  0  0  0  0  0  0  0  0  0
   11.1597    7.3122    2.3949 C   0  0  0  0  0  0  0  0  0  0  0  0
   12.2765    8.3218    2.7732 C   0  0  0  0  0  0  0  0  0  0  0  0
   13.5815    8.3570    1.9537 C   0  0  0  0  0  0  0  0  0  0  0  0
   13.9847    7.0983    1.1858 C   0  0  0  0  0  0  0  0  0  0  0  0
   14.7119    8.8840    2.7305 N   0  0  0  0  0  4  0  0  0  0  0  0
   11.8334    9.7200    3.3034 C   0  0  0  0  0  0  0  0  0  0  0  0
   10.3978   10.1508    3.0099 C   0  0  0  0  0  0  0  0  0  0  0  0
    4.4124   11.7976    0.2980 H   0  0  0  0  0  0  0  0  0  0  0  0
    5.4669   10.4782    0.8713 H   0  0  0  0  0  0  0  0  0  0  0  0
    3.8312   10.7231    1.6067 H   0  0  0  0  0  0  0  0  0  0  0  0
    4.9903   13.9248    1.0540 H   0  0  0  0  0  0  0  0  0  0  0  0
    5.8669   15.4740    2.7457 H   0  0  0  0  0  0  0  0  0  0  0  0
    6.6911   14.6209    4.9172 H   0  0  0  0  0  0  0  0  0  0  0  0
    6.6471   12.2062    5.4002 H   0  0  0  0  0  0  0  0  0  0  0  0
    5.2408   10.0581    4.8023 H   0  0  0  0  0  0  0  0  0  0  0  0
    5.2411    9.5570    3.1005 H   0  0  0  0  0  0  0  0  0  0  0  0
    7.4942    9.5033    4.9525 H   0  0  0  0  0  0  0  0  0  0  0  0
    9.4800    8.5436    4.1320 H   0  0  0  0  0  0  0  0  0  0  0  0
    9.8282    8.3622    1.0643 H   0  0  0  0  0  0  0  0  0  0  0  0
    9.0370    7.1114    2.0823 H   0  0  0  0  0  0  0  0  0  0  0  0
   11.0073    6.5945    3.2346 H   0  0  0  0  0  0  0  0  0  0  0  0
   11.4423    6.6852    1.5293 H   0  0  0  0  0  0  0  0  0  0  0  0
   12.6582    7.8402    3.7046 H   0  0  0  0  0  0  0  0  0  0  0  0
   13.3817    9.1007    1.1482 H   0  0  0  0  0  0  0  0  0  0  0  0
   13.9865    6.2212    1.8669 H   0  0  0  0  0  0  0  0  0  0  0  0
   15.0016    7.2109    0.7533 H   0  0  0  0  0  0  0  0  0  0  0  0
   13.2944    6.9112    0.3366 H   0  0  0  0  0  0  0  0  0  0  0  0
   14.4926    9.7904    3.1970 H   0  0  0  0  0  0  0  0  0  0  0  0
   15.5297    9.0532    2.1003 H   0  0  0  0  0  0  0  0  0  0  0  0
   14.9949    8.1903    3.4606 H   0  0  0  0  0  0  0  0  0  0  0  0
   12.4767   10.5266    2.8940 H   0  0  0  0  0  0  0  0  0  0  0  0
   11.9705    9.7524    4.4087 H   0  0  0  0  0  0  0  0  0  0  0  0
   10.1059   10.9525    3.7245 H   0  0  0  0  0  0  0  0  0  0  0  0
   10.3530   10.5869    1.9861 H   0  0  0  0  0  0  0  0  0  0  0  0
  1  2  1  0
  2  3  2  0
  3  4  1  0
  4  5  2  0
  5  6  1  0
  6  7  2  0
  7  8  1  0
  8  9  1  0
  9 10  1  0
 10 11  2  0
 10 12  1  0
 12 13  1  0
 13 14  1  0
 14 15  1  0
 15 16  1  0
 16 17  1  0
 16 18  1  0
 15 19  1  0
 19 20  1  0
  7  2  1  0
 20 12  1  0
  1 21  1  0
  1 22  1  0
  1 23  1  0
  3 24  1  0
  4 25  1  0
  5 26  1  0
  6 27  1  0
  8 28  1  0
  8 29  1  0
  9 30  1  0
 12 31  1  0
 13 32  1  0
 13 33  1  0
 14 34  1  0
 14 35  1  0
 15 36  1  0
 16 37  1  0
 17 38  1  0
 17 39  1  0
 17 40  1  0
 18 41  1  0
 18 42  1  0
 18 43  1  0
 19 44  1  0
 19 45  1  0
 20 46  1  0
 20 47  1  0
M  CHG  1  18   1
M  END
>  <EmbedRMS>  (119) 
0.19204016474732244

$$$$

     RDKit          3D

 37 37  0  0  0  0  0  0  0  0999 V2000
    4.9010    8.9493    3.3214 C   0  0  0  0  0  0  0  0  0  0  0  0
    5.7477   10.1185    3.8091 C   0  0  0  0  0  0  0  0  0  0  0  0
    7.1378    9.7075    3.9757 N   0  0  0  0  0  0  0  0  0  0  0  0
    8.0091    9.4709    2.8632 C   0  0  0  0  0  0  0  0  0  0  0  0
    7.6090    9.6877    1.6849 O   0  0  0  0  0  0  0  0  0  0  0  0
    9.4140    8.9898    3.1084 C   0  0  0  0  0  0  0  0  0  0  0  0
    9.7981    7.9225    2.0853 C   0  0  0  0  0  0  0  0  0  0  0  0
   11.1578    7.3127    2.3960 C   0  0  0  0  0  0  0  0  0  0  0  0
   12.2752    8.3218    2.7734 C   0  0  0  0  0  0  0  0  0  0  0  0
   13.5805    8.3571    1.9538 C   0  0  0  0  0  0  0  0  0  0  0  0
   13.9836    7.0985    1.1857 C   0  0  0  0  0  0  0  0  0  0  0  0
   14.7111    8.8839    2.7305 N   0  0  0  0  0  4  0  0  0  0  0  0
   11.8317    9.7194    3.3044 C   0  0  0  0  0  0  0  0  0  0  0  0
   10.3968   10.1516    3.0079 C   0  0  0  0  0  0  0  0  0  0  0  0
    4.9738    8.1023    4.0363 H   0  0  0  0  0  0  0  0  0  0  0  0
    5.2401    8.6114    2.3200 H   0  0  0  0  0  0  0  0  0  0  0  0
    3.8390    9.2647    3.2475 H   0  0  0  0  0  0  0  0  0  0  0  0
    5.6836   10.9644    3.0910 H   0  0  0  0  0  0  0  0  0  0  0  0
    5.3476   10.4660    4.7862 H   0  0  0  0  0  0  0  0  0  0  0  0
    7.5181    9.6307    4.9461 H   0  0  0  0  0  0  0  0  0  0  0  0
    9.4709    8.5475    4.1287 H   0  0  0  0  0  0  0  0  0  0  0  0
    9.8276    8.3613    1.0624 H   0  0  0  0  0  0  0  0  0  0  0  0
    9.0349    7.1124    2.0811 H   0  0  0  0  0  0  0  0  0  0  0  0
   11.0040    6.5968    3.2371 H   0  0  0  0  0  0  0  0  0  0  0  0
   11.4410    6.6836    1.5321 H   0  0  0  0  0  0  0  0  0  0  0  0
   12.6575    7.8399    3.7045 H   0  0  0  0  0  0  0  0  0  0  0  0
   13.3805    9.1010    1.1485 H   0  0  0  0  0  0  0  0  0  0  0  0
   15.0000    7.2116    0.7521 H   0  0  0  0  0  0  0  0  0  0  0  0
   13.2924    6.9108    0.3375 H   0  0  0  0  0  0  0  0  0  0  0  0
   13.9867    6.2216    1.8670 H   0  0  0  0  0  0  0  0  0  0  0  0
   14.9942    8.1900    3.4603 H   0  0  0  0  0  0  0  0  0  0  0  0
   14.4920    9.7901    3.1973 H   0  0  0  0  0  0  0  0  0  0  0  0
   15.5287    9.0531    2.1001 H   0  0  0  0  0  0  0  0  0  0  0  0
   12.4766   10.5261    2.8979 H   0  0  0  0  0  0  0  0  0  0  0  0
   11.9658    9.7500    4.4102 H   0  0  0  0  0  0  0  0  0  0  0  0
   10.3549   10.5873    1.9838 H   0  0  0  0  0  0  0  0  0  0  0  0
   10.1049   10.9541    3.7216 H   0  0  0  0  0  0  0  0  0  0  0  0
  1  2  1  0
  2  3  1  0
  3  4  1  0
  4  5  2  0
  4  6  1  0
  6  7  1  0
  7  8  1  0
  8  9  1  0
  9 10  1  0
 10 11  1  0
 10 12  1  0
  9 13  1  0
 13 14  1  0
 14  6  1  0
  1 15  1  0
  1 16  1  0
  1 17  1  0
  2 18  1  0
  2 19  1  0
  3 20  1  0
  6 21  1  0
  7 22  1  0
  7 23  1  0
  8 24  1  0
  8 25  1  0
  9 26  1  0
 10 27  1  0
 11 28  1  0
 11 29  1  0
 11 30  1  0
 12 31  1  0
 12 32  1  0
 12 33  1  0
 13 34  1  0
 13 35  1  0
 14 36  1  0
 14 37  1  0
M  CHG  1  12   1
M  END
>  <EmbedRMS>  (120) 
0.22880006867790334

$$$$

     RDKit          3D

 44 44  0  0  0  0  0  0  0  0999 V2000
    4.9254    9.2292    2.9373 C   0  0  0  0  0  0  0  0  0  0  0  0
    5.8171    9.6017    4.0950 C   0  0  0  0  0  0  0  0  0  0  0  0
    5.1715   10.4822    5.1684 C   0  0  0  0  0  0  0  0  0  0  0  0
    5.2387    9.6493    6.4505 C   0  0  0  0  0  0  0  0  0  0  0  0
    4.6831   10.3203    7.5255 O   0  0  0  0  0  0  0  0  0  0  0  0
    7.2094    9.9547    3.8836 N   0  0  0  0  0  0  0  0  0  0  0  0
    8.0117    9.4894    2.8120 C   0  0  0  0  0  0  0  0  0  0  0  0
    7.6039    9.6342    1.6293 O   0  0  0  0  0  0  0  0  0  0  0  0
    9.4097    8.9904    3.0935 C   0  0  0  0  0  0  0  0  0  0  0  0
    9.7897    7.9360    2.0613 C   0  0  0  0  0  0  0  0  0  0  0  0
   11.1451    7.3116    2.3337 C   0  0  0  0  0  0  0  0  0  0  0  0
   12.2327    8.2980    2.7991 C   0  0  0  0  0  0  0  0  0  0  0  0
   13.7092    7.9141    2.4297 C   0  0  0  0  0  0  0  0  0  0  0  0
   13.9296    7.3336    1.0247 C   0  0  0  0  0  0  0  0  0  0  0  0
   14.6480    9.0153    2.6733 N   0  0  0  0  0  4  0  0  0  0  0  0
   11.8847    9.7880    2.9885 C   0  0  0  0  0  0  0  0  0  0  0  0
   10.3933   10.1681    3.0642 C   0  0  0  0  0  0  0  0  0  0  0  0
    4.7544   10.1231    2.3017 H   0  0  0  0  0  0  0  0  0  0  0  0
    5.3846    8.4314    2.3137 H   0  0  0  0  0  0  0  0  0  0  0  0
    3.9423    8.8590    3.3021 H   0  0  0  0  0  0  0  0  0  0  0  0
    5.9259    8.5655    4.4991 H   0  0  0  0  0  0  0  0  0  0  0  0
    4.1089   10.7063    4.9289 H   0  0  0  0  0  0  0  0  0  0  0  0
    5.7154   11.4442    5.2927 H   0  0  0  0  0  0  0  0  0  0  0  0
    6.2933    9.3762    6.6922 H   0  0  0  0  0  0  0  0  0  0  0  0
    4.6591    8.7078    6.3235 H   0  0  0  0  0  0  0  0  0  0  0  0
    5.3218   11.0386    7.7752 H   0  0  0  0  0  0  0  0  0  0  0  0
    7.7362   10.2840    4.7253 H   0  0  0  0  0  0  0  0  0  0  0  0
    9.4310    8.5219    4.1032 H   0  0  0  0  0  0  0  0  0  0  0  0
    9.8152    8.4006    1.0491 H   0  0  0  0  0  0  0  0  0  0  0  0
    9.0219    7.1302    2.0419 H   0  0  0  0  0  0  0  0  0  0  0  0
   11.4349    6.8050    1.3945 H   0  0  0  0  0  0  0  0  0  0  0  0
   11.0156    6.4949    3.0818 H   0  0  0  0  0  0  0  0  0  0  0  0
   12.2416    8.0361    3.8856 H   0  0  0  0  0  0  0  0  0  0  0  0
   14.0070    7.0833    3.1142 H   0  0  0  0  0  0  0  0  0  0  0  0
   13.4326    7.9740    0.2655 H   0  0  0  0  0  0  0  0  0  0  0  0
   15.0134    7.2816    0.7864 H   0  0  0  0  0  0  0  0  0  0  0  0
   13.5390    6.2968    0.9555 H   0  0  0  0  0  0  0  0  0  0  0  0
   14.5070    9.7869    1.9822 H   0  0  0  0  0  0  0  0  0  0  0  0
   14.5423    9.3774    3.6481 H   0  0  0  0  0  0  0  0  0  0  0  0
   15.6311    8.6692    2.5814 H   0  0  0  0  0  0  0  0  0  0  0  0
   12.3063   10.3365    2.1194 H   0  0  0  0  0  0  0  0  0  0  0  0
   12.3990   10.2012    3.8863 H   0  0  0  0  0  0  0  0  0  0  0  0
   10.2226   10.7963    3.9664 H   0  0  0  0  0  0  0  0  0  0  0  0
   10.1567   10.8128    2.1866 H   0  0  0  0  0  0  0  0  0  0  0  0
  1  2  1  0
  2  3  1  0
  3  4  1  0
  4  5  1  0
  2  6  1  0
  6  7  1  0
  7  8  2  0
  7  9  1  0
  9 10  1  0
 10 11  1  0
 11 12  1  0
 12 13  1  0
 13 14  1  0
 13 15  1  0
 12 16  1  0
 16 17  1  0
 17  9  1  0
  1 18  1  0
  1 19  1  0
  1 20  1  0
  2 21  1  0
  3 22  1  0
  3 23  1  0
  4 24  1  0
  4 25  1  0
  5 26  1  0
  6 27  1  0
  9 28  1  0
 10 29  1  0
 10 30  1  0
 11 31  1  0
 11 32  1  0
 12 33  1  0
 13 34  1  0
 14 35  1  0
 14 36  1  0
 14 37  1  0
 15 38  1  0
 15 39  1  0
 15 40  1  0
 16 41  1  0
 16 42  1  0
 17 43  1  0
 17 44  1  0
M  CHG  1  15   1
M  END
>  <EmbedRMS>  (121) 
0.26860030186857947

$$$$

     RDKit          3D

 47 47  0  0  0  0  0  0  0  0999 V2000
    4.3337   12.2202    3.5028 C   0  0  0  0  0  0  0  0  0  0  0  0
    5.6759   11.5404    3.2333 C   0  0  0  0  0  0  0  0  0  0  0  0
    5.7430   10.1376    3.8591 C   0  0  0  0  0  0  0  0  0  0  0  0
    4.8991    9.1101    3.0740 C   0  0  0  0  0  0  0  0  0  0  0  0
    4.7195    7.8122    3.8588 C   0  0  0  0  0  0  0  0  0  0  0  0
    3.9152    8.0347    4.9853 O   0  0  0  0  0  0  0  0  0  0  0  0
    7.1363    9.6950    3.9760 N   0  0  0  0  0  0  0  0  0  0  0  0
    8.0135    9.4721    2.8615 C   0  0  0  0  0  0  0  0  0  0  0  0
    7.6249    9.6981    1.6818 O   0  0  0  0  0  0  0  0  0  0  0  0
    9.4163    8.9893    3.1087 C   0  0  0  0  0  0  0  0  0  0  0  0
    9.7994    7.9220    2.0854 C   0  0  0  0  0  0  0  0  0  0  0  0
   11.1587    7.3121    2.3962 C   0  0  0  0  0  0  0  0  0  0  0  0
   12.2760    8.3214    2.7736 C   0  0  0  0  0  0  0  0  0  0  0  0
   13.5809    8.3570    1.9537 C   0  0  0  0  0  0  0  0  0  0  0  0
   13.9839    7.0984    1.1854 C   0  0  0  0  0  0  0  0  0  0  0  0
   14.7116    8.8837    2.7302 N   0  0  0  0  0  4  0  0  0  0  0  0
   11.8328    9.7190    3.3049 C   0  0  0  0  0  0  0  0  0  0  0  0
   10.3984   10.1513    3.0082 C   0  0  0  0  0  0  0  0  0  0  0  0
    3.5082   11.7181    2.9593 H   0  0  0  0  0  0  0  0  0  0  0  0
    4.3802   13.2710    3.1469 H   0  0  0  0  0  0  0  0  0  0  0  0
    4.1092   12.2337    4.5905 H   0  0  0  0  0  0  0  0  0  0  0  0
    5.8444   11.4930    2.1362 H   0  0  0  0  0  0  0  0  0  0  0  0
    6.4763   12.1737    3.6751 H   0  0  0  0  0  0  0  0  0  0  0  0
    5.3295   10.2145    4.8904 H   0  0  0  0  0  0  0  0  0  0  0  0
    3.8895    9.5143    2.8569 H   0  0  0  0  0  0  0  0  0  0  0  0
    5.3604    8.8777    2.0934 H   0  0  0  0  0  0  0  0  0  0  0  0
    5.7053    7.4185    4.1858 H   0  0  0  0  0  0  0  0  0  0  0  0
    4.2551    7.0409    3.2028 H   0  0  0  0  0  0  0  0  0  0  0  0
    2.9777    8.0864    4.6623 H   0  0  0  0  0  0  0  0  0  0  0  0
    7.5073    9.5297    4.9391 H   0  0  0  0  0  0  0  0  0  0  0  0
    9.4739    8.5465    4.1286 H   0  0  0  0  0  0  0  0  0  0  0  0
    9.8293    8.3607    1.0625 H   0  0  0  0  0  0  0  0  0  0  0  0
    9.0356    7.1123    2.0815 H   0  0  0  0  0  0  0  0  0  0  0  0
   11.4418    6.6827    1.5326 H   0  0  0  0  0  0  0  0  0  0  0  0
   11.0046    6.5965    3.2375 H   0  0  0  0  0  0  0  0  0  0  0  0
   12.6586    7.8394    3.7045 H   0  0  0  0  0  0  0  0  0  0  0  0
   13.3808    9.1009    1.1485 H   0  0  0  0  0  0  0  0  0  0  0  0
   15.0002    7.2116    0.7517 H   0  0  0  0  0  0  0  0  0  0  0  0
   13.2926    6.9109    0.3373 H   0  0  0  0  0  0  0  0  0  0  0  0
   13.9871    6.2215    1.8667 H   0  0  0  0  0  0  0  0  0  0  0  0
   15.5292    9.0529    2.0998 H   0  0  0  0  0  0  0  0  0  0  0  0
   14.4928    9.7900    3.1971 H   0  0  0  0  0  0  0  0  0  0  0  0
   14.9949    8.1898    3.4600 H   0  0  0  0  0  0  0  0  0  0  0  0
   12.4778   10.5258    2.8987 H   0  0  0  0  0  0  0  0  0  0  0  0
   11.9667    9.7493    4.4107 H   0  0  0  0  0  0  0  0  0  0  0  0
   10.1062   10.9537    3.7218 H   0  0  0  0  0  0  0  0  0  0  0  0
   10.3568   10.5870    1.9841 H   0  0  0  0  0  0  0  0  0  0  0  0
  1  2  1  0
  2  3  1  0
  3  4  1  0
  4  5  1  0
  5  6  1  0
  3  7  1  0
  7  8  1  0
  8  9  2  0
  8 10  1  0
 10 11  1  0
 11 12  1  0
 12 13  1  0
 13 14  1  0
 14 15  1  0
 14 16  1  0
 13 17  1  0
 17 18  1  0
 18 10  1  0
  1 19  1  0
  1 20  1  0
  1 21  1  0
  2 22  1  0
  2 23  1  0
  3 24  1  0
  4 25  1  0
  4 26  1  0
  5 27  1  0
  5 28  1  0
  6 29  1  0
  7 30  1  0
 10 31  1  0
 11 32  1  0
 11 33  1  0
 12 34  1  0
 12 35  1  0
 13 36  1  0
 14 37  1  0
 15 38  1  0
 15 39  1  0
 15 40  1  0
 16 41  1  0
 16 42  1  0
 16 43  1  0
 17 44  1  0
 17 45  1  0
 18 46  1  0
 18 47  1  0
M  CHG  1  16   1
M  END
>  <EmbedRMS>  (122) 
0.20292344882046753

$$$$

     RDKit          3D

 43 44  0  0  0  0  0  0  0  0999 V2000
   13.9282    7.3332    1.0258 C   0  0  0  0  0  0  0  0  0  0  0  0
   13.7061    7.9150    2.4301 C   0  0  0  0  0  0  0  0  0  0  0  0
   14.6449    9.0164    2.6736 N   0  0  0  0  0  4  0  0  0  0  0  0
   12.2285    8.2989    2.7981 C   0  0  0  0  0  0  0  0  0  0  0  0
   11.1409    7.3139    2.3301 C   0  0  0  0  0  0  0  0  0  0  0  0
    9.7808    7.9357    2.0670 C   0  0  0  0  0  0  0  0  0  0  0  0
    9.4010    8.9894    3.1017 C   0  0  0  0  0  0  0  0  0  0  0  0
    7.9947    9.4858    2.8331 C   0  0  0  0  0  0  0  0  0  0  0  0
    7.5722    9.6115    1.6528 O   0  0  0  0  0  0  0  0  0  0  0  0
    7.2222   10.0111    3.9043 N   0  0  0  0  0  0  0  0  0  0  0  0
    5.8814    9.6031    4.2698 C   0  0  0  0  0  0  0  0  0  0  0  0
    5.1299   10.5965    5.0924 C   0  0  0  0  0  0  0  0  0  0  0  0
    3.7015   10.0695    5.0261 C   0  0  0  0  0  0  0  0  0  0  0  0
    3.6330    9.0260    3.9865 N   0  0  0  0  0  0  0  0  0  0  0  0
    4.9072    9.0770    3.2601 C   0  0  0  0  0  0  0  0  0  0  0  0
   10.3863   10.1674    3.0638 C   0  0  0  0  0  0  0  0  0  0  0  0
   11.8793    9.7882    2.9900 C   0  0  0  0  0  0  0  0  0  0  0  0
   13.5341    6.2977    0.9562 H   0  0  0  0  0  0  0  0  0  0  0  0
   15.0124    7.2775    0.7903 H   0  0  0  0  0  0  0  0  0  0  0  0
   13.4351    7.9749    0.2652 H   0  0  0  0  0  0  0  0  0  0  0  0
   14.0034    7.0847    3.1154 H   0  0  0  0  0  0  0  0  0  0  0  0
   14.5039    9.7874    1.9819 H   0  0  0  0  0  0  0  0  0  0  0  0
   15.6281    8.6703    2.5827 H   0  0  0  0  0  0  0  0  0  0  0  0
   14.5380    9.3792    3.6480 H   0  0  0  0  0  0  0  0  0  0  0  0
   12.2357    8.0350    3.8841 H   0  0  0  0  0  0  0  0  0  0  0  0
   11.0174    6.4908    3.0723 H   0  0  0  0  0  0  0  0  0  0  0  0
   11.4287    6.8161    1.3856 H   0  0  0  0  0  0  0  0  0  0  0  0
    9.7978    8.4010    1.0550 H   0  0  0  0  0  0  0  0  0  0  0  0
    9.0152    7.1278    2.0514 H   0  0  0  0  0  0  0  0  0  0  0  0
    9.4299    8.5225    4.1118 H   0  0  0  0  0  0  0  0  0  0  0  0
    7.7719   10.4576    4.6738 H   0  0  0  0  0  0  0  0  0  0  0  0
    6.0425    8.7359    4.9549 H   0  0  0  0  0  0  0  0  0  0  0  0
    5.1911   11.6037    4.6239 H   0  0  0  0  0  0  0  0  0  0  0  0
    5.5069   10.6407    6.1383 H   0  0  0  0  0  0  0  0  0  0  0  0
    3.3995    9.6546    6.0145 H   0  0  0  0  0  0  0  0  0  0  0  0
    3.0020   10.8931    4.7671 H   0  0  0  0  0  0  0  0  0  0  0  0
    3.5677    8.0932    4.4600 H   0  0  0  0  0  0  0  0  0  0  0  0
    5.2021    8.0704    2.8873 H   0  0  0  0  0  0  0  0  0  0  0  0
    4.8199    9.7814    2.4045 H   0  0  0  0  0  0  0  0  0  0  0  0
   10.2170   10.8025    3.9612 H   0  0  0  0  0  0  0  0  0  0  0  0
   10.1476   10.8049    2.1818 H   0  0  0  0  0  0  0  0  0  0  0  0
   12.3916   10.1994    3.8899 H   0  0  0  0  0  0  0  0  0  0  0  0
   12.3023   10.3394    2.1232 H   0  0  0  0  0  0  0  0  0  0  0  0
  1  2  1  0
  2  3  1  0
  2  4  1  0
  4  5  1  0
  5  6  1  0
  6  7  1  0
  7  8  1  0
  8  9  2  0
  8 10  1  0
 10 11  1  0
 11 12  1  0
 12 13  1  0
 13 14  1  0
 14 15  1  0
  7 16  1  0
 16 17  1  0
 17  4  1  0
 15 11  1  0
  1 18  1  0
  1 19  1  0
  1 20  1  0
  2 21  1  0
  3 22  1  0
  3 23  1  0
  3 24  1  0
  4 25  1  0
  5 26  1  0
  5 27  1  0
  6 28  1  0
  6 29  1  0
  7 30  1  0
 10 31  1  0
 11 32  1  0
 12 33  1  0
 12 34  1  0
 13 35  1  0
 13 36  1  0
 14 37  1  0
 15 38  1  0
 15 39  1  0
 16 40  1  0
 16 41  1  0
 17 42  1  0
 17 43  1  0
M  CHG  1   3   1
M  END
>  <EmbedRMS>  (123) 
0.2595569453876857

$$$$

     RDKit          3D

 47 48  0  0  0  0  0  0  0  0999 V2000
    5.9306   15.8994    2.7726 C   0  0  0  0  0  0  0  0  0  0  0  0
    5.8720   14.4284    3.0477 C   0  0  0  0  0  0  0  0  0  0  0  0
    6.1055   13.9424    4.3425 C   0  0  0  0  0  0  0  0  0  0  0  0
    6.0684   12.5690    4.5949 C   0  0  0  0  0  0  0  0  0  0  0  0
    5.8011   11.6666    3.5544 C   0  0  0  0  0  0  0  0  0  0  0  0
    5.7764   10.1914    3.8285 C   0  0  0  0  0  0  0  0  0  0  0  0
    7.1367    9.6912    3.9907 N   0  0  0  0  0  0  0  0  0  0  0  0
    8.0103    9.4672    2.8791 C   0  0  0  0  0  0  0  0  0  0  0  0
    7.6083    9.6879    1.7009 O   0  0  0  0  0  0  0  0  0  0  0  0
    9.4194    8.9851    3.1210 C   0  0  0  0  0  0  0  0  0  0  0  0
    9.7823    7.9366    2.0754 C   0  0  0  0  0  0  0  0  0  0  0  0
   11.1459    7.3165    2.3195 C   0  0  0  0  0  0  0  0  0  0  0  0
   12.2319    8.2995    2.7957 C   0  0  0  0  0  0  0  0  0  0  0  0
   13.7093    7.9154    2.4298 C   0  0  0  0  0  0  0  0  0  0  0  0
   13.9321    7.3325    1.0261 C   0  0  0  0  0  0  0  0  0  0  0  0
   14.6476    9.0171    2.6729 N   0  0  0  0  0  4  0  0  0  0  0  0
   11.8842    9.7897    2.9955 C   0  0  0  0  0  0  0  0  0  0  0  0
   10.3918   10.1688    3.0631 C   0  0  0  0  0  0  0  0  0  0  0  0
    5.5950   12.1517    2.2544 C   0  0  0  0  0  0  0  0  0  0  0  0
    5.6339   13.5247    2.0021 C   0  0  0  0  0  0  0  0  0  0  0  0
    5.6144   16.4788    3.6661 H   0  0  0  0  0  0  0  0  0  0  0  0
    6.9699   16.1836    2.5060 H   0  0  0  0  0  0  0  0  0  0  0  0
    5.2546   16.1686    1.9331 H   0  0  0  0  0  0  0  0  0  0  0  0
    6.3148   14.6259    5.1562 H   0  0  0  0  0  0  0  0  0  0  0  0
    6.2489   12.2077    5.5999 H   0  0  0  0  0  0  0  0  0  0  0  0
    5.2596    9.6330    3.0174 H   0  0  0  0  0  0  0  0  0  0  0  0
    5.2036   10.0059    4.7632 H   0  0  0  0  0  0  0  0  0  0  0  0
    7.4789    9.4924    4.9579 H   0  0  0  0  0  0  0  0  0  0  0  0
    9.4815    8.5147    4.1279 H   0  0  0  0  0  0  0  0  0  0  0  0
    9.0179    7.1274    2.0678 H   0  0  0  0  0  0  0  0  0  0  0  0
    9.7843    8.4055    1.0649 H   0  0  0  0  0  0  0  0  0  0  0  0
   11.0323    6.4808    3.0490 H   0  0  0  0  0  0  0  0  0  0  0  0
   11.4290    6.8365    1.3643 H   0  0  0  0  0  0  0  0  0  0  0  0
   12.2352    8.0294    3.8802 H   0  0  0  0  0  0  0  0  0  0  0  0
   14.0064    7.0858    3.1160 H   0  0  0  0  0  0  0  0  0  0  0  0
   15.0165    7.2736    0.7929 H   0  0  0  0  0  0  0  0  0  0  0  0
   13.5351    6.2981    0.9565 H   0  0  0  0  0  0  0  0  0  0  0  0
   13.4425    7.9755    0.2642 H   0  0  0  0  0  0  0  0  0  0  0  0
   15.6308    8.6706    2.5839 H   0  0  0  0  0  0  0  0  0  0  0  0
   14.5396    9.3815    3.6466 H   0  0  0  0  0  0  0  0  0  0  0  0
   14.5080    9.7869    1.9796 H   0  0  0  0  0  0  0  0  0  0  0  0
   12.3130   10.3479    2.1363 H   0  0  0  0  0  0  0  0  0  0  0  0
   12.3903   10.1926    3.9026 H   0  0  0  0  0  0  0  0  0  0  0  0
   10.2176   10.8166    3.9508 H   0  0  0  0  0  0  0  0  0  0  0  0
   10.1503   10.7898    2.1700 H   0  0  0  0  0  0  0  0  0  0  0  0
    5.4034   11.4689    1.4360 H   0  0  0  0  0  0  0  0  0  0  0  0
    5.4750   13.8831    0.9924 H   0  0  0  0  0  0  0  0  0  0  0  0
  1  2  1  0
  2  3  2  0
  3  4  1  0
  4  5  2  0
  5  6  1  0
  6  7  1  0
  7  8  1  0
  8  9  2  0
  8 10  1  0
 10 11  1  0
 11 12  1  0
 12 13  1  0
 13 14  1  0
 14 15  1  0
 14 16  1  0
 13 17  1  0
 17 18  1  0
  5 19  1  0
 19 20  2  0
 20  2  1  0
 18 10  1  0
  1 21  1  0
  1 22  1  0
  1 23  1  0
  3 24  1  0
  4 25  1  0
  6 26  1  0
  6 27  1  0
  7 28  1  0
 10 29  1  0
 11 30  1  0
 11 31  1  0
 12 32  1  0
 12 33  1  0
 13 34  1  0
 14 35  1  0
 15 36  1  0
 15 37  1  0
 15 38  1  0
 16 39  1  0
 16 40  1  0
 16 41  1  0
 17 42  1  0
 17 43  1  0
 18 44  1  0
 18 45  1  0
 19 46  1  0
 20 47  1  0
M  CHG  1  16   1
M  END
>  <EmbedRMS>  (124) 
0.1554419486542057

$$$$

     RDKit          3D

 40 41  0  0  0  0  0  0  0  0999 V2000
   13.9228    7.3284    1.0385 C   0  0  0  0  0  0  0  0  0  0  0  0
   13.7075    7.9210    2.4414 C   0  0  0  0  0  0  0  0  0  0  0  0
   14.6424    9.0269    2.6701 N   0  0  0  0  0  4  0  0  0  0  0  0
   12.2294    8.2934    2.8216 C   0  0  0  0  0  0  0  0  0  0  0  0
   11.1741    7.4157    2.1505 C   0  0  0  0  0  0  0  0  0  0  0  0
    9.7356    7.7231    2.5380 C   0  0  0  0  0  0  0  0  0  0  0  0
    9.4500    9.2029    2.6315 C   0  0  0  0  0  0  0  0  0  0  0  0
    7.9884    9.5360    2.7257 C   0  0  0  0  0  0  0  0  0  0  0  0
    7.4147    9.6914    1.6198 O   0  0  0  0  0  0  0  0  0  0  0  0
    7.2200    9.6887    3.9327 N   0  0  0  0  0  0  0  0  0  0  0  0
    5.8179   10.1209    3.8133 C   0  0  0  0  0  0  0  0  0  0  0  0
    5.1579   10.2598    5.1431 C   0  0  0  0  0  0  0  0  0  0  0  0
    5.1819   11.3879    5.8785 N   0  0  0  0  0  0  0  0  0  0  0  0
    4.4926   11.0189    6.9793 C   0  0  0  0  0  0  0  0  0  0  0  0
    4.0734    9.7394    6.9200 N   0  0  0  0  0  0  0  0  0  0  0  0
    4.4959    9.2707    5.7615 N   0  0  0  0  0  0  0  0  0  0  0  0
   10.4245   10.0506    3.4178 C   0  0  0  0  0  0  0  0  0  0  0  0
   11.8788    9.7841    2.9973 C   0  0  0  0  0  0  0  0  0  0  0  0
   13.5731    8.0449    0.2655 H   0  0  0  0  0  0  0  0  0  0  0  0
   14.9999    7.1185    0.8655 H   0  0  0  0  0  0  0  0  0  0  0  0
   13.3783    6.3678    0.9249 H   0  0  0  0  0  0  0  0  0  0  0  0
   14.0113    7.0969    3.1299 H   0  0  0  0  0  0  0  0  0  0  0  0
   15.6232    8.7091    2.4922 H   0  0  0  0  0  0  0  0  0  0  0  0
   14.5985    9.3365    3.6676 H   0  0  0  0  0  0  0  0  0  0  0  0
   14.4330    9.8276    2.0311 H   0  0  0  0  0  0  0  0  0  0  0  0
   12.1630    7.9502    3.8813 H   0  0  0  0  0  0  0  0  0  0  0  0
   11.3809    6.3424    2.3585 H   0  0  0  0  0  0  0  0  0  0  0  0
   11.2461    7.5643    1.0514 H   0  0  0  0  0  0  0  0  0  0  0  0
    9.0504    7.2401    1.8054 H   0  0  0  0  0  0  0  0  0  0  0  0
    9.5322    7.2696    3.5326 H   0  0  0  0  0  0  0  0  0  0  0  0
    9.7013    9.5355    1.5935 H   0  0  0  0  0  0  0  0  0  0  0  0
    7.6671    9.5283    4.8635 H   0  0  0  0  0  0  0  0  0  0  0  0
    5.7761   11.1007    3.2898 H   0  0  0  0  0  0  0  0  0  0  0  0
    5.2525    9.3800    3.2074 H   0  0  0  0  0  0  0  0  0  0  0  0
    4.2995   11.6765    7.8161 H   0  0  0  0  0  0  0  0  0  0  0  0
    4.3382    8.2981    5.4159 H   0  0  0  0  0  0  0  0  0  0  0  0
   10.3104    9.8093    4.4969 H   0  0  0  0  0  0  0  0  0  0  0  0
   10.1922   11.1303    3.2835 H   0  0  0  0  0  0  0  0  0  0  0  0
   12.5387   10.2611    3.7525 H   0  0  0  0  0  0  0  0  0  0  0  0
   12.0562   10.2951    2.0262 H   0  0  0  0  0  0  0  0  0  0  0  0
  1  2  1  0
  2  3  1  0
  2  4  1  0
  4  5  1  0
  5  6  1  0
  6  7  1  0
  7  8  1  0
  8  9  2  0
  8 10  1  0
 10 11  1  0
 11 12  1  0
 12 13  2  0
 13 14  1  0
 14 15  2  0
 15 16  1  0
  7 17  1  0
 17 18  1  0
 18  4  1  0
 16 12  1  0
  1 19  1  0
  1 20  1  0
  1 21  1  0
  2 22  1  0
  3 23  1  0
  3 24  1  0
  3 25  1  0
  4 26  1  0
  5 27  1  0
  5 28  1  0
  6 29  1  0
  6 30  1  0
  7 31  1  0
 10 32  1  0
 11 33  1  0
 11 34  1  0
 14 35  1  0
 16 36  1  0
 17 37  1  0
 17 38  1  0
 18 39  1  0
 18 40  1  0
M  CHG  1   3   1
M  END
>  <EmbedRMS>  (125) 
0.26092352120004825

$$$$

     RDKit          3D

 45 45  0  0  0  0  0  0  0  0999 V2000
    1.3162    8.6480    2.4764 C   0  0  0  0  0  0  0  0  0  0  0  0
    2.7690    8.2394    2.6571 C   0  0  0  0  0  0  0  0  0  0  0  0
    3.5588    9.3719    3.1531 N   0  0  0  0  0  0  0  0  0  0  0  0
    4.9457    8.9370    3.3408 C   0  0  0  0  0  0  0  0  0  0  0  0
    5.8111   10.0828    3.8756 C   0  0  0  0  0  0  0  0  0  0  0  0
    7.2212    9.6714    3.9388 N   0  0  0  0  0  0  0  0  0  0  0  0
    7.9871    9.5236    2.7309 C   0  0  0  0  0  0  0  0  0  0  0  0
    7.4226    9.7001    1.6228 O   0  0  0  0  0  0  0  0  0  0  0  0
    9.4479    9.1954    2.6571 C   0  0  0  0  0  0  0  0  0  0  0  0
    9.7662    7.7150    2.4336 C   0  0  0  0  0  0  0  0  0  0  0  0
   11.2648    7.3640    2.5399 C   0  0  0  0  0  0  0  0  0  0  0  0
   12.1448    8.5862    2.2323 C   0  0  0  0  0  0  0  0  0  0  0  0
   13.6556    8.3392    1.9331 C   0  0  0  0  0  0  0  0  0  0  0  0
   14.0143    7.0441    1.2245 C   0  0  0  0  0  0  0  0  0  0  0  0
   14.6184    8.7732    2.9398 N   0  0  0  0  0  4  0  0  0  0  0  0
   11.8922    9.6845    3.2853 C   0  0  0  0  0  0  0  0  0  0  0  0
   10.4083   10.0818    3.4329 C   0  0  0  0  0  0  0  0  0  0  0  0
    1.2358    9.4590    1.7217 H   0  0  0  0  0  0  0  0  0  0  0  0
    0.7229    7.7764    2.1277 H   0  0  0  0  0  0  0  0  0  0  0  0
    0.8974    9.0039    3.4416 H   0  0  0  0  0  0  0  0  0  0  0  0
    2.8047    7.3991    3.3860 H   0  0  0  0  0  0  0  0  0  0  0  0
    3.1635    7.8833    1.6781 H   0  0  0  0  0  0  0  0  0  0  0  0
    3.5555   10.1116    2.4109 H   0  0  0  0  0  0  0  0  0  0  0  0
    5.3566    8.5628    2.3778 H   0  0  0  0  0  0  0  0  0  0  0  0
    4.9851    8.1045    4.0788 H   0  0  0  0  0  0  0  0  0  0  0  0
    5.4617   10.3551    4.8951 H   0  0  0  0  0  0  0  0  0  0  0  0
    5.7127   10.9819    3.2288 H   0  0  0  0  0  0  0  0  0  0  0  0
    7.6863    9.5527    4.8663 H   0  0  0  0  0  0  0  0  0  0  0  0
    9.6891    9.5852    1.6385 H   0  0  0  0  0  0  0  0  0  0  0  0
    9.3835    7.3966    1.4368 H   0  0  0  0  0  0  0  0  0  0  0  0
    9.2157    7.1152    3.1908 H   0  0  0  0  0  0  0  0  0  0  0  0
   11.4737    6.5317    1.8364 H   0  0  0  0  0  0  0  0  0  0  0  0
   11.4958    6.9999    3.5652 H   0  0  0  0  0  0  0  0  0  0  0  0
   11.7524    8.9793    1.2652 H   0  0  0  0  0  0  0  0  0  0  0  0
   13.8459    9.0645    1.1030 H   0  0  0  0  0  0  0  0  0  0  0  0
   13.3413    6.8735    0.3567 H   0  0  0  0  0  0  0  0  0  0  0  0
   13.9244    6.1928    1.9314 H   0  0  0  0  0  0  0  0  0  0  0  0
   15.0594    7.0779    0.8479 H   0  0  0  0  0  0  0  0  0  0  0  0
   15.5937    8.5539    2.6315 H   0  0  0  0  0  0  0  0  0  0  0  0
   14.5676    9.8044    3.1018 H   0  0  0  0  0  0  0  0  0  0  0  0
   14.4339    8.2659    3.8350 H   0  0  0  0  0  0  0  0  0  0  0  0
   12.4575   10.5992    3.0035 H   0  0  0  0  0  0  0  0  0  0  0  0
   12.2747    9.3420    4.2719 H   0  0  0  0  0  0  0  0  0  0  0  0
   10.2702   11.1451    3.1293 H   0  0  0  0  0  0  0  0  0  0  0  0
   10.1366   10.0251    4.5091 H   0  0  0  0  0  0  0  0  0  0  0  0
  1  2  1  0
  2  3  1  0
  3  4  1  0
  4  5  1  0
  5  6  1  0
  6  7  1  0
  7  8  2  0
  7  9  1  0
  9 10  1  0
 10 11  1  0
 11 12  1  0
 12 13  1  0
 13 14  1  0
 13 15  1  0
 12 16  1  0
 16 17  1  0
 17  9  1  0
  1 18  1  0
  1 19  1  0
  1 20  1  0
  2 21  1  0
  2 22  1  0
  3 23  1  0
  4 24  1  0
  4 25  1  0
  5 26  1  0
  5 27  1  0
  6 28  1  0
  9 29  1  0
 10 30  1  0
 10 31  1  0
 11 32  1  0
 11 33  1  0
 12 34  1  0
 13 35  1  0
 14 36  1  0
 14 37  1  0
 14 38  1  0
 15 39  1  0
 15 40  1  0
 15 41  1  0
 16 42  1  0
 16 43  1  0
 17 44  1  0
 17 45  1  0
M  CHG  1  15   1
M  END
>  <EmbedRMS>  (126) 
0.25842907567579826

$$$$

     RDKit          3D

 41 41  0  0  0  0  0  0  0  0999 V2000
    4.6460   11.6759    7.1724 C   0  0  0  0  0  0  0  0  0  0  0  0
    5.2633   11.4940    5.8659 N   0  0  0  0  0  0  0  0  0  0  0  0
    5.1493   10.2629    5.1439 C   0  0  0  0  0  0  0  0  0  0  0  0
    4.5014    9.2956    5.6277 O   0  0  0  0  0  0  0  0  0  0  0  0
    5.8086   10.1135    3.8127 C   0  0  0  0  0  0  0  0  0  0  0  0
    7.2095    9.6833    3.9371 N   0  0  0  0  0  0  0  0  0  0  0  0
    7.9808    9.5180    2.7350 C   0  0  0  0  0  0  0  0  0  0  0  0
    7.4142    9.6752    1.6244 O   0  0  0  0  0  0  0  0  0  0  0  0
    9.4440    9.1935    2.6630 C   0  0  0  0  0  0  0  0  0  0  0  0
    9.7658    7.7143    2.4337 C   0  0  0  0  0  0  0  0  0  0  0  0
   11.2644    7.3644    2.5408 C   0  0  0  0  0  0  0  0  0  0  0  0
   12.1433    8.5869    2.2329 C   0  0  0  0  0  0  0  0  0  0  0  0
   13.6544    8.3400    1.9332 C   0  0  0  0  0  0  0  0  0  0  0  0
   14.0135    7.0449    1.2245 C   0  0  0  0  0  0  0  0  0  0  0  0
   14.6174    8.7741    2.9396 N   0  0  0  0  0  4  0  0  0  0  0  0
   11.8904    9.6848    3.2864 C   0  0  0  0  0  0  0  0  0  0  0  0
   10.4058   10.0816    3.4356 C   0  0  0  0  0  0  0  0  0  0  0  0
    3.5459   11.5501    7.0899 H   0  0  0  0  0  0  0  0  0  0  0  0
    4.8632   12.6960    7.5536 H   0  0  0  0  0  0  0  0  0  0  0  0
    5.0530   10.9310    7.8883 H   0  0  0  0  0  0  0  0  0  0  0  0
    5.8124   12.2820    5.4541 H   0  0  0  0  0  0  0  0  0  0  0  0
    5.2457    9.3665    3.2110 H   0  0  0  0  0  0  0  0  0  0  0  0
    5.7655   11.0860    3.2759 H   0  0  0  0  0  0  0  0  0  0  0  0
    7.6527    9.5270    4.8705 H   0  0  0  0  0  0  0  0  0  0  0  0
    9.6833    9.5857    1.6449 H   0  0  0  0  0  0  0  0  0  0  0  0
    9.2152    7.1104    3.1876 H   0  0  0  0  0  0  0  0  0  0  0  0
    9.3851    7.3989    1.4351 H   0  0  0  0  0  0  0  0  0  0  0  0
   11.4740    6.5318    1.8378 H   0  0  0  0  0  0  0  0  0  0  0  0
   11.4952    7.0010    3.5664 H   0  0  0  0  0  0  0  0  0  0  0  0
   11.7498    8.9804    1.2663 H   0  0  0  0  0  0  0  0  0  0  0  0
   13.8441    9.0654    1.1031 H   0  0  0  0  0  0  0  0  0  0  0  0
   15.0584    7.0793    0.8474 H   0  0  0  0  0  0  0  0  0  0  0  0
   13.3402    6.8740    0.3569 H   0  0  0  0  0  0  0  0  0  0  0  0
   13.9243    6.1936    1.9314 H   0  0  0  0  0  0  0  0  0  0  0  0
   15.5927    8.5554    2.6308 H   0  0  0  0  0  0  0  0  0  0  0  0
   14.5660    9.8051    3.1020 H   0  0  0  0  0  0  0  0  0  0  0  0
   14.4336    8.2664    3.8348 H   0  0  0  0  0  0  0  0  0  0  0  0
   12.2736    9.3421    4.2727 H   0  0  0  0  0  0  0  0  0  0  0  0
   12.4550   10.5998    3.0047 H   0  0  0  0  0  0  0  0  0  0  0  0
   10.1351   10.0261    4.5122 H   0  0  0  0  0  0  0  0  0  0  0  0
   10.2667   11.1445    3.1312 H   0  0  0  0  0  0  0  0  0  0  0  0
  1  2  1  0
  2  3  1  0
  3  4  2  0
  3  5  1  0
  5  6  1  0
  6  7  1  0
  7  8  2  0
  7  9  1  0
  9 10  1  0
 10 11  1  0
 11 12  1  0
 12 13  1  0
 13 14  1  0
 13 15  1  0
 12 16  1  0
 16 17  1  0
 17  9  1  0
  1 18  1  0
  1 19  1  0
  1 20  1  0
  2 21  1  0
  5 22  1  0
  5 23  1  0
  6 24  1  0
  9 25  1  0
 10 26  1  0
 10 27  1  0
 11 28  1  0
 11 29  1  0
 12 30  1  0
 13 31  1  0
 14 32  1  0
 14 33  1  0
 14 34  1  0
 15 35  1  0
 15 36  1  0
 15 37  1  0
 16 38  1  0
 16 39  1  0
 17 40  1  0
 17 41  1  0
M  CHG  1  15   1
M  END
>  <EmbedRMS>  (127) 
0.2569057114362328

$$$$

     RDKit          3D

 34 34  0  0  0  0  0  0  0  0999 V2000
    5.8329   10.1084    3.8848 C   0  0  0  0  0  0  0  0  0  0  0  0
    7.2300    9.6721    3.9456 N   0  0  0  0  0  0  0  0  0  0  0  0
    7.9825    9.5176    2.7336 C   0  0  0  0  0  0  0  0  0  0  0  0
    7.4038    9.6808    1.6309 O   0  0  0  0  0  0  0  0  0  0  0  0
    9.4450    9.1949    2.6523 C   0  0  0  0  0  0  0  0  0  0  0  0
    9.7659    7.7145    2.4310 C   0  0  0  0  0  0  0  0  0  0  0  0
   11.2645    7.3643    2.5394 C   0  0  0  0  0  0  0  0  0  0  0  0
   12.1440    8.5865    2.2316 C   0  0  0  0  0  0  0  0  0  0  0  0
   13.6550    8.3396    1.9330 C   0  0  0  0  0  0  0  0  0  0  0  0
   14.0142    7.0445    1.2245 C   0  0  0  0  0  0  0  0  0  0  0  0
   14.6175    8.7737    2.9400 N   0  0  0  0  0  4  0  0  0  0  0  0
   11.8902    9.6847    3.2842 C   0  0  0  0  0  0  0  0  0  0  0  0
   10.4057   10.0818    3.4290 C   0  0  0  0  0  0  0  0  0  0  0  0
    5.7674   11.1015    3.3922 H   0  0  0  0  0  0  0  0  0  0  0  0
    5.4215   10.1915    4.9127 H   0  0  0  0  0  0  0  0  0  0  0  0
    5.2299    9.3684    3.3173 H   0  0  0  0  0  0  0  0  0  0  0  0
    7.6848    9.4991    4.8697 H   0  0  0  0  0  0  0  0  0  0  0  0
    9.6804    9.5858    1.6329 H   0  0  0  0  0  0  0  0  0  0  0  0
    9.2153    7.1145    3.1879 H   0  0  0  0  0  0  0  0  0  0  0  0
    9.3849    7.3947    1.4340 H   0  0  0  0  0  0  0  0  0  0  0  0
   11.4945    7.0012    3.5653 H   0  0  0  0  0  0  0  0  0  0  0  0
   11.4746    6.5314    1.8369 H   0  0  0  0  0  0  0  0  0  0  0  0
   11.7511    8.9795    1.2646 H   0  0  0  0  0  0  0  0  0  0  0  0
   13.8453    9.0650    1.1029 H   0  0  0  0  0  0  0  0  0  0  0  0
   15.0594    7.0787    0.8480 H   0  0  0  0  0  0  0  0  0  0  0  0
   13.3413    6.8737    0.3566 H   0  0  0  0  0  0  0  0  0  0  0  0
   13.9245    6.1932    1.9314 H   0  0  0  0  0  0  0  0  0  0  0  0
   15.5929    8.5546    2.6319 H   0  0  0  0  0  0  0  0  0  0  0  0
   14.5663    9.8048    3.1021 H   0  0  0  0  0  0  0  0  0  0  0  0
   14.4328    8.2662    3.8350 H   0  0  0  0  0  0  0  0  0  0  0  0
   12.2711    9.3420    4.2714 H   0  0  0  0  0  0  0  0  0  0  0  0
   12.4559   10.5993    3.0033 H   0  0  0  0  0  0  0  0  0  0  0  0
   10.1327   10.0263    4.5050 H   0  0  0  0  0  0  0  0  0  0  0  0
   10.2681   11.1447    3.1242 H   0  0  0  0  0  0  0  0  0  0  0  0
  1  2  1  0
  2  3  1  0
  3  4  2  0
  3  5  1  0
  5  6  1  0
  6  7  1  0
  7  8  1  0
  8  9  1  0
  9 10  1  0
  9 11  1  0
  8 12  1  0
 12 13  1  0
 13  5  1  0
  1 14  1  0
  1 15  1  0
  1 16  1  0
  2 17  1  0
  5 18  1  0
  6 19  1  0
  6 20  1  0
  7 21  1  0
  7 22  1  0
  8 23  1  0
  9 24  1  0
 10 25  1  0
 10 26  1  0
 10 27  1  0
 11 28  1  0
 11 29  1  0
 11 30  1  0
 12 31  1  0
 12 32  1  0
 13 33  1  0
 13 34  1  0
M  CHG  1  11   1
M  END
>  <EmbedRMS>  (128) 
0.29639754771625826

$$$$

     RDKit          3D

 47 48  0  0  0  0  0  0  0  0999 V2000
    3.3550    7.5261    0.2387 C   0  0  0  0  0  0  0  0  0  0  0  0
    3.7591    7.6796    1.6740 C   0  0  0  0  0  0  0  0  0  0  0  0
    3.4093    6.6971    2.6112 C   0  0  0  0  0  0  0  0  0  0  0  0
    3.8066    6.8249    3.9436 C   0  0  0  0  0  0  0  0  0  0  0  0
    4.5708    7.9221    4.3466 C   0  0  0  0  0  0  0  0  0  0  0  0
    4.9400    8.9082    3.4207 C   0  0  0  0  0  0  0  0  0  0  0  0
    5.8031   10.0620    3.8692 C   0  0  0  0  0  0  0  0  0  0  0  0
    7.2179    9.6630    3.9265 N   0  0  0  0  0  0  0  0  0  0  0  0
    7.9878    9.5377    2.7183 C   0  0  0  0  0  0  0  0  0  0  0  0
    7.4195    9.7037    1.6128 O   0  0  0  0  0  0  0  0  0  0  0  0
    9.4506    9.2137    2.6347 C   0  0  0  0  0  0  0  0  0  0  0  0
    9.7340    7.7427    2.3734 C   0  0  0  0  0  0  0  0  0  0  0  0
   11.1976    7.3493    2.5402 C   0  0  0  0  0  0  0  0  0  0  0  0
   12.1819    8.5080    2.2955 C   0  0  0  0  0  0  0  0  0  0  0  0
   13.6459    7.9624    2.3850 C   0  0  0  0  0  0  0  0  0  0  0  0
   14.0279    7.2300    1.0859 C   0  0  0  0  0  0  0  0  0  0  0  0
   14.6271    9.0243    2.6471 N   0  0  0  0  0  4  0  0  0  0  0  0
   11.8957    9.6374    3.3177 C   0  0  0  0  0  0  0  0  0  0  0  0
   10.4177   10.0733    3.4266 C   0  0  0  0  0  0  0  0  0  0  0  0
    4.5324    8.7801    2.0799 C   0  0  0  0  0  0  0  0  0  0  0  0
    3.2257    8.5199   -0.2406 H   0  0  0  0  0  0  0  0  0  0  0  0
    4.1392    6.9607   -0.3066 H   0  0  0  0  0  0  0  0  0  0  0  0
    2.3914    6.9791    0.1583 H   0  0  0  0  0  0  0  0  0  0  0  0
    2.8281    5.8337    2.3113 H   0  0  0  0  0  0  0  0  0  0  0  0
    3.5310    6.0656    4.6641 H   0  0  0  0  0  0  0  0  0  0  0  0
    4.8834    7.9981    5.3809 H   0  0  0  0  0  0  0  0  0  0  0  0
    5.4772   10.3905    4.8801 H   0  0  0  0  0  0  0  0  0  0  0  0
    5.6805   10.9383    3.1956 H   0  0  0  0  0  0  0  0  0  0  0  0
    7.6767    9.5107    4.8522 H   0  0  0  0  0  0  0  0  0  0  0  0
    9.7114    9.6194    1.6251 H   0  0  0  0  0  0  0  0  0  0  0  0
    9.1282    7.1304    3.0776 H   0  0  0  0  0  0  0  0  0  0  0  0
    9.3937    7.4684    1.3478 H   0  0  0  0  0  0  0  0  0  0  0  0
   11.3436    6.9693    3.5766 H   0  0  0  0  0  0  0  0  0  0  0  0
   11.3979    6.4993    1.8571 H   0  0  0  0  0  0  0  0  0  0  0  0
   12.0116    8.9214    1.2757 H   0  0  0  0  0  0  0  0  0  0  0  0
   13.7142    7.2275    3.2200 H   0  0  0  0  0  0  0  0  0  0  0  0
   13.9578    7.9167    0.2154 H   0  0  0  0  0  0  0  0  0  0  0  0
   13.3807    6.3497    0.9044 H   0  0  0  0  0  0  0  0  0  0  0  0
   15.0712    6.8547    1.1520 H   0  0  0  0  0  0  0  0  0  0  0  0
   14.5143    9.3994    3.6160 H   0  0  0  0  0  0  0  0  0  0  0  0
   14.5262    9.7975    1.9495 H   0  0  0  0  0  0  0  0  0  0  0  0
   15.5988    8.6418    2.5850 H   0  0  0  0  0  0  0  0  0  0  0  0
   12.2339    9.3016    4.3236 H   0  0  0  0  0  0  0  0  0  0  0  0
   12.4948   10.5349    3.0515 H   0  0  0  0  0  0  0  0  0  0  0  0
   10.1188   10.0277    4.4963 H   0  0  0  0  0  0  0  0  0  0  0  0
   10.3156   11.1402    3.1210 H   0  0  0  0  0  0  0  0  0  0  0  0
    4.8107    9.5360    1.3560 H   0  0  0  0  0  0  0  0  0  0  0  0
  1  2  1  0
  2  3  2  0
  3  4  1  0
  4  5  2  0
  5  6  1  0
  6  7  1  0
  7  8  1  0
  8  9  1  0
  9 10  2  0
  9 11  1  0
 11 12  1  0
 12 13  1  0
 13 14  1  0
 14 15  1  0
 15 16  1  0
 15 17  1  0
 14 18  1  0
 18 19  1  0
  6 20  2  0
 20  2  1  0
 19 11  1  0
  1 21  1  0
  1 22  1  0
  1 23  1  0
  3 24  1  0
  4 25  1  0
  5 26  1  0
  7 27  1  0
  7 28  1  0
  8 29  1  0
 11 30  1  0
 12 31  1  0
 12 32  1  0
 13 33  1  0
 13 34  1  0
 14 35  1  0
 15 36  1  0
 16 37  1  0
 16 38  1  0
 16 39  1  0
 17 40  1  0
 17 41  1  0
 17 42  1  0
 18 43  1  0
 18 44  1  0
 19 45  1  0
 19 46  1  0
 20 47  1  0
M  CHG  1  17   1
M  END
>  <EmbedRMS>  (129) 
0.16810927383701896

$$$$

     RDKit          3D

 40 40  0  0  0  0  0  0  0  0999 V2000
    4.7996    8.8875    5.7514 C   0  0  0  0  0  0  0  0  0  0  0  0
    5.0467   10.2639    5.1374 C   0  0  0  0  0  0  0  0  0  0  0  0
    5.7665   10.1567    3.7915 C   0  0  0  0  0  0  0  0  0  0  0  0
    7.1428    9.7130    3.9787 N   0  0  0  0  0  0  0  0  0  0  0  0
    8.0146    9.4652    2.8756 C   0  0  0  0  0  0  0  0  0  0  0  0
    7.6236    9.6740    1.6923 O   0  0  0  0  0  0  0  0  0  0  0  0
    9.4117    8.9838    3.1514 C   0  0  0  0  0  0  0  0  0  0  0  0
    9.7887    7.8242    2.2110 C   0  0  0  0  0  0  0  0  0  0  0  0
   11.2406    7.3770    2.4518 C   0  0  0  0  0  0  0  0  0  0  0  0
   12.1580    8.5898    2.2119 C   0  0  0  0  0  0  0  0  0  0  0  0
   13.6694    8.3363    1.9396 C   0  0  0  0  0  0  0  0  0  0  0  0
   14.0282    7.0396    1.2342 C   0  0  0  0  0  0  0  0  0  0  0  0
   14.6135    8.7686    2.9623 N   0  0  0  0  0  4  0  0  0  0  0  0
   11.8558    9.6805    3.2543 C   0  0  0  0  0  0  0  0  0  0  0  0
   10.4065   10.1585    3.0871 C   0  0  0  0  0  0  0  0  0  0  0  0
    5.7572    8.3688    5.9654 H   0  0  0  0  0  0  0  0  0  0  0  0
    4.2454    9.0044    6.7064 H   0  0  0  0  0  0  0  0  0  0  0  0
    4.1898    8.2616    5.0655 H   0  0  0  0  0  0  0  0  0  0  0  0
    4.0659   10.7624    4.9797 H   0  0  0  0  0  0  0  0  0  0  0  0
    5.6383   10.8902    5.8402 H   0  0  0  0  0  0  0  0  0  0  0  0
    5.7713   11.1553    3.3036 H   0  0  0  0  0  0  0  0  0  0  0  0
    5.2272    9.4458    3.1277 H   0  0  0  0  0  0  0  0  0  0  0  0
    7.5227    9.5975    4.9460 H   0  0  0  0  0  0  0  0  0  0  0  0
    9.4460    8.5780    4.1877 H   0  0  0  0  0  0  0  0  0  0  0  0
    9.1131    6.9617    2.4015 H   0  0  0  0  0  0  0  0  0  0  0  0
    9.6593    8.1232    1.1467 H   0  0  0  0  0  0  0  0  0  0  0  0
   11.3694    6.9867    3.4850 H   0  0  0  0  0  0  0  0  0  0  0  0
   11.4634    6.5566    1.7393 H   0  0  0  0  0  0  0  0  0  0  0  0
   11.8029    9.0089    1.2373 H   0  0  0  0  0  0  0  0  0  0  0  0
   13.8833    9.0581    1.1114 H   0  0  0  0  0  0  0  0  0  0  0  0
   15.0833    7.0602    0.8857 H   0  0  0  0  0  0  0  0  0  0  0  0
   13.3773    6.8823    0.3472 H   0  0  0  0  0  0  0  0  0  0  0  0
   13.9078    6.1866    1.9345 H   0  0  0  0  0  0  0  0  0  0  0  0
   15.5897    8.5020    2.6974 H   0  0  0  0  0  0  0  0  0  0  0  0
   14.5964    9.8059    3.0880 H   0  0  0  0  0  0  0  0  0  0  0  0
   14.3778    8.3021    3.8677 H   0  0  0  0  0  0  0  0  0  0  0  0
   12.5089   10.5640    3.0952 H   0  0  0  0  0  0  0  0  0  0  0  0
   12.0205    9.2944    4.2841 H   0  0  0  0  0  0  0  0  0  0  0  0
   10.1719   10.8879    3.8931 H   0  0  0  0  0  0  0  0  0  0  0  0
   10.3038   10.6871    2.1128 H   0  0  0  0  0  0  0  0  0  0  0  0
  1  2  1  0
  2  3  1  0
  3  4  1  0
  4  5  1  0
  5  6  2  0
  5  7  1  0
  7  8  1  0
  8  9  1  0
  9 10  1  0
 10 11  1  0
 11 12  1  0
 11 13  1  0
 10 14  1  0
 14 15  1  0
 15  7  1  0
  1 16  1  0
  1 17  1  0
  1 18  1  0
  2 19  1  0
  2 20  1  0
  3 21  1  0
  3 22  1  0
  4 23  1  0
  7 24  1  0
  8 25  1  0
  8 26  1  0
  9 27  1  0
  9 28  1  0
 10 29  1  0
 11 30  1  0
 12 31  1  0
 12 32  1  0
 12 33  1  0
 13 34  1  0
 13 35  1  0
 13 36  1  0
 14 37  1  0
 14 38  1  0
 15 39  1  0
 15 40  1  0
M  CHG  1  13   1
M  END
>  <EmbedRMS>  (130) 
0.2000484947854372

$$$$

     RDKit          3D

 45 45  0  0  0  0  0  0  0  0999 V2000
    1.3162    8.6480    2.4764 C   0  0  0  0  0  0  0  0  0  0  0  0
    2.7690    8.2394    2.6571 C   0  0  0  0  0  0  0  0  0  0  0  0
    3.5588    9.3719    3.1531 N   0  0  0  0  0  0  0  0  0  0  0  0
    4.9457    8.9370    3.3408 C   0  0  0  0  0  0  0  0  0  0  0  0
    5.8111   10.0828    3.8756 C   0  0  0  0  0  0  0  0  0  0  0  0
    7.2212    9.6714    3.9388 N   0  0  0  0  0  0  0  0  0  0  0  0
    7.9871    9.5236    2.7309 C   0  0  0  0  0  0  0  0  0  0  0  0
    7.4226    9.7001    1.6228 O   0  0  0  0  0  0  0  0  0  0  0  0
    9.4479    9.1954    2.6571 C   0  0  0  0  0  0  0  0  0  0  0  0
    9.7662    7.7150    2.4336 C   0  0  0  0  0  0  0  0  0  0  0  0
   11.2648    7.3640    2.5399 C   0  0  0  0  0  0  0  0  0  0  0  0
   12.1448    8.5862    2.2323 C   0  0  0  0  0  0  0  0  0  0  0  0
   13.6556    8.3392    1.9331 C   0  0  0  0  0  0  0  0  0  0  0  0
   14.0143    7.0441    1.2245 C   0  0  0  0  0  0  0  0  0  0  0  0
   14.6184    8.7732    2.9398 N   0  0  0  0  0  4  0  0  0  0  0  0
   11.8922    9.6845    3.2853 C   0  0  0  0  0  0  0  0  0  0  0  0
   10.4083   10.0818    3.4329 C   0  0  0  0  0  0  0  0  0  0  0  0
    1.2358    9.4590    1.7217 H   0  0  0  0  0  0  0  0  0  0  0  0
    0.7229    7.7764    2.1277 H   0  0  0  0  0  0  0  0  0  0  0  0
    0.8974    9.0039    3.4416 H   0  0  0  0  0  0  0  0  0  0  0  0
    2.8047    7.3991    3.3860 H   0  0  0  0  0  0  0  0  0  0  0  0
    3.1635    7.8833    1.6781 H   0  0  0  0  0  0  0  0  0  0  0  0
    3.5555   10.1116    2.4109 H   0  0  0  0  0  0  0  0  0  0  0  0
    5.3566    8.5628    2.3778 H   0  0  0  0  0  0  0  0  0  0  0  0
    4.9851    8.1045    4.0788 H   0  0  0  0  0  0  0  0  0  0  0  0
    5.4617   10.3551    4.8951 H   0  0  0  0  0  0  0  0  0  0  0  0
    5.7127   10.9819    3.2288 H   0  0  0  0  0  0  0  0  0  0  0  0
    7.6863    9.5527    4.8663 H   0  0  0  0  0  0  0  0  0  0  0  0
    9.6891    9.5852    1.6385 H   0  0  0  0  0  0  0  0  0  0  0  0
    9.3835    7.3966    1.4368 H   0  0  0  0  0  0  0  0  0  0  0  0
    9.2157    7.1152    3.1908 H   0  0  0  0  0  0  0  0  0  0  0  0
   11.4737    6.5317    1.8364 H   0  0  0  0  0  0  0  0  0  0  0  0
   11.4958    6.9999    3.5652 H   0  0  0  0  0  0  0  0  0  0  0  0
   11.7524    8.9793    1.2652 H   0  0  0  0  0  0  0  0  0  0  0  0
   13.8459    9.0645    1.1030 H   0  0  0  0  0  0  0  0  0  0  0  0
   13.3413    6.8735    0.3567 H   0  0  0  0  0  0  0  0  0  0  0  0
   13.9244    6.1928    1.9314 H   0  0  0  0  0  0  0  0  0  0  0  0
   15.0594    7.0779    0.8479 H   0  0  0  0  0  0  0  0  0  0  0  0
   15.5937    8.5539    2.6315 H   0  0  0  0  0  0  0  0  0  0  0  0
   14.5676    9.8044    3.1018 H   0  0  0  0  0  0  0  0  0  0  0  0
   14.4339    8.2659    3.8350 H   0  0  0  0  0  0  0  0  0  0  0  0
   12.4575   10.5992    3.0035 H   0  0  0  0  0  0  0  0  0  0  0  0
   12.2747    9.3420    4.2719 H   0  0  0  0  0  0  0  0  0  0  0  0
   10.2702   11.1451    3.1293 H   0  0  0  0  0  0  0  0  0  0  0  0
   10.1366   10.0251    4.5091 H   0  0  0  0  0  0  0  0  0  0  0  0
  1  2  1  0
  2  3  1  0
  3  4  1  0
  4  5  1  0
  5  6  1  0
  6  7  1  0
  7  8  2  0
  7  9  1  0
  9 10  1  0
 10 11  1  0
 11 12  1  0
 12 13  1  0
 13 14  1  0
 13 15  1  0
 12 16  1  0
 16 17  1  0
 17  9  1  0
  1 18  1  0
  1 19  1  0
  1 20  1  0
  2 21  1  0
  2 22  1  0
  3 23  1  0
  4 24  1  0
  4 25  1  0
  5 26  1  0
  5 27  1  0
  6 28  1  0
  9 29  1  0
 10 30  1  0
 10 31  1  0
 11 32  1  0
 11 33  1  0
 12 34  1  0
 13 35  1  0
 14 36  1  0
 14 37  1  0
 14 38  1  0
 15 39  1  0
 15 40  1  0
 15 41  1  0
 16 42  1  0
 16 43  1  0
 17 44  1  0
 17 45  1  0
M  CHG  1  15   1
M  END
>  <EmbedRMS>  (131) 
0.25842907567579826

$$$$

     RDKit          3D

 45 45  0  0  0  0  0  0  0  0999 V2000
    1.3162    8.6480    2.4764 C   0  0  0  0  0  0  0  0  0  0  0  0
    2.7690    8.2394    2.6571 C   0  0  0  0  0  0  0  0  0  0  0  0
    3.5588    9.3719    3.1531 N   0  0  0  0  0  0  0  0  0  0  0  0
    4.9457    8.9370    3.3408 C   0  0  0  0  0  0  0  0  0  0  0  0
    5.8111   10.0828    3.8756 C   0  0  0  0  0  0  0  0  0  0  0  0
    7.2212    9.6714    3.9388 N   0  0  0  0  0  0  0  0  0  0  0  0
    7.9871    9.5236    2.7309 C   0  0  0  0  0  0  0  0  0  0  0  0
    7.4226    9.7001    1.6228 O   0  0  0  0  0  0  0  0  0  0  0  0
    9.4479    9.1954    2.6571 C   0  0  0  0  0  0  0  0  0  0  0  0
    9.7662    7.7150    2.4336 C   0  0  0  0  0  0  0  0  0  0  0  0
   11.2648    7.3640    2.5399 C   0  0  0  0  0  0  0  0  0  0  0  0
   12.1448    8.5862    2.2323 C   0  0  0  0  0  0  0  0  0  0  0  0
   13.6556    8.3392    1.9331 C   0  0  0  0  0  0  0  0  0  0  0  0
   14.0143    7.0441    1.2245 C   0  0  0  0  0  0  0  0  0  0  0  0
   14.6184    8.7732    2.9398 N   0  0  0  0  0  4  0  0  0  0  0  0
   11.8922    9.6845    3.2853 C   0  0  0  0  0  0  0  0  0  0  0  0
   10.4083   10.0818    3.4329 C   0  0  0  0  0  0  0  0  0  0  0  0
    1.2358    9.4590    1.7217 H   0  0  0  0  0  0  0  0  0  0  0  0
    0.7229    7.7764    2.1277 H   0  0  0  0  0  0  0  0  0  0  0  0
    0.8974    9.0039    3.4416 H   0  0  0  0  0  0  0  0  0  0  0  0
    2.8047    7.3991    3.3860 H   0  0  0  0  0  0  0  0  0  0  0  0
    3.1635    7.8833    1.6781 H   0  0  0  0  0  0  0  0  0  0  0  0
    3.5555   10.1116    2.4109 H   0  0  0  0  0  0  0  0  0  0  0  0
    5.3566    8.5628    2.3778 H   0  0  0  0  0  0  0  0  0  0  0  0
    4.9851    8.1045    4.0788 H   0  0  0  0  0  0  0  0  0  0  0  0
    5.4617   10.3551    4.8951 H   0  0  0  0  0  0  0  0  0  0  0  0
    5.7127   10.9819    3.2288 H   0  0  0  0  0  0  0  0  0  0  0  0
    7.6863    9.5527    4.8663 H   0  0  0  0  0  0  0  0  0  0  0  0
    9.6891    9.5852    1.6385 H   0  0  0  0  0  0  0  0  0  0  0  0
    9.3835    7.3966    1.4368 H   0  0  0  0  0  0  0  0  0  0  0  0
    9.2157    7.1152    3.1908 H   0  0  0  0  0  0  0  0  0  0  0  0
   11.4737    6.5317    1.8364 H   0  0  0  0  0  0  0  0  0  0  0  0
   11.4958    6.9999    3.5652 H   0  0  0  0  0  0  0  0  0  0  0  0
   11.7524    8.9793    1.2652 H   0  0  0  0  0  0  0  0  0  0  0  0
   13.8459    9.0645    1.1030 H   0  0  0  0  0  0  0  0  0  0  0  0
   13.3413    6.8735    0.3567 H   0  0  0  0  0  0  0  0  0  0  0  0
   13.9244    6.1928    1.9314 H   0  0  0  0  0  0  0  0  0  0  0  0
   15.0594    7.0779    0.8479 H   0  0  0  0  0  0  0  0  0  0  0  0
   15.5937    8.5539    2.6315 H   0  0  0  0  0  0  0  0  0  0  0  0
   14.5676    9.8044    3.1018 H   0  0  0  0  0  0  0  0  0  0  0  0
   14.4339    8.2659    3.8350 H   0  0  0  0  0  0  0  0  0  0  0  0
   12.4575   10.5992    3.0035 H   0  0  0  0  0  0  0  0  0  0  0  0
   12.2747    9.3420    4.2719 H   0  0  0  0  0  0  0  0  0  0  0  0
   10.2702   11.1451    3.1293 H   0  0  0  0  0  0  0  0  0  0  0  0
   10.1366   10.0251    4.5091 H   0  0  0  0  0  0  0  0  0  0  0  0
  1  2  1  0
  2  3  1  0
  3  4  1  0
  4  5  1  0
  5  6  1  0
  6  7  1  0
  7  8  2  0
  7  9  1  0
  9 10  1  0
 10 11  1  0
 11 12  1  0
 12 13  1  0
 13 14  1  0
 13 15  1  0
 12 16  1  0
 16 17  1  0
 17  9  1  0
  1 18  1  0
  1 19  1  0
  1 20  1  0
  2 21  1  0
  2 22  1  0
  3 23  1  0
  4 24  1  0
  4 25  1  0
  5 26  1  0
  5 27  1  0
  6 28  1  0
  9 29  1  0
 10 30  1  0
 10 31  1  0
 11 32  1  0
 11 33  1  0
 12 34  1  0
 13 35  1  0
 14 36  1  0
 14 37  1  0
 14 38  1  0
 15 39  1  0
 15 40  1  0
 15 41  1  0
 16 42  1  0
 16 43  1  0
 17 44  1  0
 17 45  1  0
M  CHG  1  15   1
M  END
>  <EmbedRMS>  (132) 
0.25842907567579826

$$$$

     RDKit          3D

 40 40  0  0  0  0  0  0  0  0999 V2000
    4.7996    8.8875    5.7514 C   0  0  0  0  0  0  0  0  0  0  0  0
    5.0467   10.2639    5.1374 C   0  0  0  0  0  0  0  0  0  0  0  0
    5.7665   10.1567    3.7915 C   0  0  0  0  0  0  0  0  0  0  0  0
    7.1428    9.7130    3.9787 N   0  0  0  0  0  0  0  0  0  0  0  0
    8.0146    9.4652    2.8756 C   0  0  0  0  0  0  0  0  0  0  0  0
    7.6236    9.6740    1.6923 O   0  0  0  0  0  0  0  0  0  0  0  0
    9.4117    8.9838    3.1514 C   0  0  0  0  0  0  0  0  0  0  0  0
    9.7887    7.8242    2.2110 C   0  0  0  0  0  0  0  0  0  0  0  0
   11.2406    7.3770    2.4518 C   0  0  0  0  0  0  0  0  0  0  0  0
   12.1580    8.5898    2.2119 C   0  0  0  0  0  0  0  0  0  0  0  0
   13.6694    8.3363    1.9396 C   0  0  0  0  0  0  0  0  0  0  0  0
   14.0282    7.0396    1.2342 C   0  0  0  0  0  0  0  0  0  0  0  0
   14.6135    8.7686    2.9623 N   0  0  0  0  0  4  0  0  0  0  0  0
   11.8558    9.6805    3.2543 C   0  0  0  0  0  0  0  0  0  0  0  0
   10.4065   10.1585    3.0871 C   0  0  0  0  0  0  0  0  0  0  0  0
    5.7572    8.3688    5.9654 H   0  0  0  0  0  0  0  0  0  0  0  0
    4.2454    9.0044    6.7064 H   0  0  0  0  0  0  0  0  0  0  0  0
    4.1898    8.2616    5.0655 H   0  0  0  0  0  0  0  0  0  0  0  0
    4.0659   10.7624    4.9797 H   0  0  0  0  0  0  0  0  0  0  0  0
    5.6383   10.8902    5.8402 H   0  0  0  0  0  0  0  0  0  0  0  0
    5.7713   11.1553    3.3036 H   0  0  0  0  0  0  0  0  0  0  0  0
    5.2272    9.4458    3.1277 H   0  0  0  0  0  0  0  0  0  0  0  0
    7.5227    9.5975    4.9460 H   0  0  0  0  0  0  0  0  0  0  0  0
    9.4460    8.5780    4.1877 H   0  0  0  0  0  0  0  0  0  0  0  0
    9.1131    6.9617    2.4015 H   0  0  0  0  0  0  0  0  0  0  0  0
    9.6593    8.1232    1.1467 H   0  0  0  0  0  0  0  0  0  0  0  0
   11.3694    6.9867    3.4850 H   0  0  0  0  0  0  0  0  0  0  0  0
   11.4634    6.5566    1.7393 H   0  0  0  0  0  0  0  0  0  0  0  0
   11.8029    9.0089    1.2373 H   0  0  0  0  0  0  0  0  0  0  0  0
   13.8833    9.0581    1.1114 H   0  0  0  0  0  0  0  0  0  0  0  0
   15.0833    7.0602    0.8857 H   0  0  0  0  0  0  0  0  0  0  0  0
   13.3773    6.8823    0.3472 H   0  0  0  0  0  0  0  0  0  0  0  0
   13.9078    6.1866    1.9345 H   0  0  0  0  0  0  0  0  0  0  0  0
   15.5897    8.5020    2.6974 H   0  0  0  0  0  0  0  0  0  0  0  0
   14.5964    9.8059    3.0880 H   0  0  0  0  0  0  0  0  0  0  0  0
   14.3778    8.3021    3.8677 H   0  0  0  0  0  0  0  0  0  0  0  0
   12.5089   10.5640    3.0952 H   0  0  0  0  0  0  0  0  0  0  0  0
   12.0205    9.2944    4.2841 H   0  0  0  0  0  0  0  0  0  0  0  0
   10.1719   10.8879    3.8931 H   0  0  0  0  0  0  0  0  0  0  0  0
   10.3038   10.6871    2.1128 H   0  0  0  0  0  0  0  0  0  0  0  0
  1  2  1  0
  2  3  1  0
  3  4  1  0
  4  5  1  0
  5  6  2  0
  5  7  1  0
  7  8  1  0
  8  9  1  0
  9 10  1  0
 10 11  1  0
 11 12  1  0
 11 13  1  0
 10 14  1  0
 14 15  1  0
 15  7  1  0
  1 16  1  0
  1 17  1  0
  1 18  1  0
  2 19  1  0
  2 20  1  0
  3 21  1  0
  3 22  1  0
  4 23  1  0
  7 24  1  0
  8 25  1  0
  8 26  1  0
  9 27  1  0
  9 28  1  0
 10 29  1  0
 11 30  1  0
 12 31  1  0
 12 32  1  0
 12 33  1  0
 13 34  1  0
 13 35  1  0
 13 36  1  0
 14 37  1  0
 14 38  1  0
 15 39  1  0
 15 40  1  0
M  CHG  1  13   1
M  END
>  <EmbedRMS>  (133) 
0.2000484947854372

$$$$

     RDKit          3D

 44 44  0  0  0  0  0  0  0  0999 V2000
    4.4368    8.5830    1.3291 C   0  0  0  0  0  0  0  0  0  0  0  0
    5.0041    7.9435    2.5953 C   0  0  0  0  0  0  0  0  0  0  0  0
    4.8218    8.8406    3.8314 C   0  0  0  0  0  0  0  0  0  0  0  0
    5.0607    8.0778    4.9850 O   0  0  0  0  0  0  0  0  0  0  0  0
    5.7382   10.0786    3.8221 C   0  0  0  0  0  0  0  0  0  0  0  0
    7.1400    9.7018    3.9851 N   0  0  0  0  0  0  0  0  0  0  0  0
    8.0161    9.4758    2.8762 C   0  0  0  0  0  0  0  0  0  0  0  0
    7.6206    9.7018    1.6971 O   0  0  0  0  0  0  0  0  0  0  0  0
    9.4217    8.9882    3.1213 C   0  0  0  0  0  0  0  0  0  0  0  0
    9.7820    7.9373    2.0770 C   0  0  0  0  0  0  0  0  0  0  0  0
   11.1456    7.3166    2.3199 C   0  0  0  0  0  0  0  0  0  0  0  0
   12.2326    8.2988    2.7958 C   0  0  0  0  0  0  0  0  0  0  0  0
   13.7098    7.9145    2.4297 C   0  0  0  0  0  0  0  0  0  0  0  0
   13.9319    7.3321    1.0257 C   0  0  0  0  0  0  0  0  0  0  0  0
   14.6485    9.0158    2.6728 N   0  0  0  0  0  4  0  0  0  0  0  0
   11.8869    9.7891    2.9963 C   0  0  0  0  0  0  0  0  0  0  0  0
   10.3956   10.1699    3.0626 C   0  0  0  0  0  0  0  0  0  0  0  0
    4.5001    7.8562    0.4920 H   0  0  0  0  0  0  0  0  0  0  0  0
    3.3701    8.8569    1.4735 H   0  0  0  0  0  0  0  0  0  0  0  0
    5.0123    9.4852    1.0408 H   0  0  0  0  0  0  0  0  0  0  0  0
    4.4494    6.9951    2.7672 H   0  0  0  0  0  0  0  0  0  0  0  0
    6.0677    7.6678    2.4459 H   0  0  0  0  0  0  0  0  0  0  0  0
    3.7631    9.1923    3.8475 H   0  0  0  0  0  0  0  0  0  0  0  0
    4.6708    8.5786    5.7490 H   0  0  0  0  0  0  0  0  0  0  0  0
    5.4504   10.7346    4.6721 H   0  0  0  0  0  0  0  0  0  0  0  0
    5.5946   10.6857    2.9045 H   0  0  0  0  0  0  0  0  0  0  0  0
    7.4935    9.5336    4.9541 H   0  0  0  0  0  0  0  0  0  0  0  0
    9.4806    8.5189    4.1289 H   0  0  0  0  0  0  0  0  0  0  0  0
    9.7829    8.4041    1.0656 H   0  0  0  0  0  0  0  0  0  0  0  0
    9.0162    7.1292    2.0723 H   0  0  0  0  0  0  0  0  0  0  0  0
   11.4280    6.8368    1.3644 H   0  0  0  0  0  0  0  0  0  0  0  0
   11.0321    6.4807    3.0491 H   0  0  0  0  0  0  0  0  0  0  0  0
   12.2360    8.0283    3.8802 H   0  0  0  0  0  0  0  0  0  0  0  0
   14.0067    7.0845    3.1155 H   0  0  0  0  0  0  0  0  0  0  0  0
   13.4426    7.9757    0.2642 H   0  0  0  0  0  0  0  0  0  0  0  0
   15.0163    7.2726    0.7923 H   0  0  0  0  0  0  0  0  0  0  0  0
   13.5342    6.2980    0.9557 H   0  0  0  0  0  0  0  0  0  0  0  0
   14.5097    9.7856    1.9793 H   0  0  0  0  0  0  0  0  0  0  0  0
   14.5408    9.3804    3.6465 H   0  0  0  0  0  0  0  0  0  0  0  0
   15.6316    8.6688    2.5840 H   0  0  0  0  0  0  0  0  0  0  0  0
   12.3173   10.3475    2.1381 H   0  0  0  0  0  0  0  0  0  0  0  0
   12.3926   10.1907    3.9043 H   0  0  0  0  0  0  0  0  0  0  0  0
   10.1563   10.7904    2.1685 H   0  0  0  0  0  0  0  0  0  0  0  0
   10.2223   10.8190    3.9496 H   0  0  0  0  0  0  0  0  0  0  0  0
  1  2  1  0
  2  3  1  0
  3  4  1  0
  3  5  1  0
  5  6  1  0
  6  7  1  0
  7  8  2  0
  7  9  1  0
  9 10  1  0
 10 11  1  0
 11 12  1  0
 12 13  1  0
 13 14  1  0
 13 15  1  0
 12 16  1  0
 16 17  1  0
 17  9  1  0
  1 18  1  0
  1 19  1  0
  1 20  1  0
  2 21  1  0
  2 22  1  0
  3 23  1  0
  4 24  1  0
  5 25  1  0
  5 26  1  0
  6 27  1  0
  9 28  1  0
 10 29  1  0
 10 30  1  0
 11 31  1  0
 11 32  1  0
 12 33  1  0
 13 34  1  0
 14 35  1  0
 14 36  1  0
 14 37  1  0
 15 38  1  0
 15 39  1  0
 15 40  1  0
 16 41  1  0
 16 42  1  0
 17 43  1  0
 17 44  1  0
M  CHG  1  15   1
M  END
>  <EmbedRMS>  (134) 
0.1692382603345377

$$$$

     RDKit          3D

 45 46  0  0  0  0  0  0  0  0999 V2000
   13.9234    7.3284    1.0387 C   0  0  0  0  0  0  0  0  0  0  0  0
   13.7078    7.9211    2.4415 C   0  0  0  0  0  0  0  0  0  0  0  0
   14.6425    9.0270    2.6702 N   0  0  0  0  0  4  0  0  0  0  0  0
   12.2296    8.2935    2.8212 C   0  0  0  0  0  0  0  0  0  0  0  0
   11.1748    7.4151    2.1500 C   0  0  0  0  0  0  0  0  0  0  0  0
    9.7363    7.7236    2.5352 C   0  0  0  0  0  0  0  0  0  0  0  0
    9.4519    9.2036    2.6236 C   0  0  0  0  0  0  0  0  0  0  0  0
    7.9915    9.5358    2.7190 C   0  0  0  0  0  0  0  0  0  0  0  0
    7.4120    9.6818    1.6162 O   0  0  0  0  0  0  0  0  0  0  0  0
    7.2350    9.6955    3.9307 N   0  0  0  0  0  0  0  0  0  0  0  0
    5.8469   10.1791    3.8765 C   0  0  0  0  0  0  0  0  0  0  0  0
    5.8178   11.6565    3.5733 C   0  0  0  0  0  0  0  0  0  0  0  0
    5.5838   12.1324    2.2700 C   0  0  0  0  0  0  0  0  0  0  0  0
    5.6158   13.5065    2.0056 C   0  0  0  0  0  0  0  0  0  0  0  0
    5.8776   14.4125    3.0374 C   0  0  0  0  0  0  0  0  0  0  0  0
    6.1100   13.9476    4.3362 C   0  0  0  0  0  0  0  0  0  0  0  0
    6.3690   14.8561    5.3589 O   0  0  0  0  0  0  0  0  0  0  0  0
    6.0842   12.5728    4.6002 C   0  0  0  0  0  0  0  0  0  0  0  0
   10.4238   10.0509    3.4137 C   0  0  0  0  0  0  0  0  0  0  0  0
   11.8790    9.7843    2.9967 C   0  0  0  0  0  0  0  0  0  0  0  0
   13.3792    6.3675    0.9251 H   0  0  0  0  0  0  0  0  0  0  0  0
   13.5736    8.0448    0.2655 H   0  0  0  0  0  0  0  0  0  0  0  0
   15.0005    7.1188    0.8658 H   0  0  0  0  0  0  0  0  0  0  0  0
   14.0115    7.0971    3.1302 H   0  0  0  0  0  0  0  0  0  0  0  0
   15.6234    8.7092    2.4930 H   0  0  0  0  0  0  0  0  0  0  0  0
   14.5979    9.3372    3.6676 H   0  0  0  0  0  0  0  0  0  0  0  0
   14.4336    9.8275    2.0307 H   0  0  0  0  0  0  0  0  0  0  0  0
   12.1629    7.9506    3.8811 H   0  0  0  0  0  0  0  0  0  0  0  0
   11.3811    6.3420    2.3598 H   0  0  0  0  0  0  0  0  0  0  0  0
   11.2480    7.5622    1.0509 H   0  0  0  0  0  0  0  0  0  0  0  0
    9.0518    7.2388    1.8032 H   0  0  0  0  0  0  0  0  0  0  0  0
    9.5317    7.2730    3.5310 H   0  0  0  0  0  0  0  0  0  0  0  0
    9.7032    9.5358    1.5855 H   0  0  0  0  0  0  0  0  0  0  0  0
    7.6851    9.5036    4.8534 H   0  0  0  0  0  0  0  0  0  0  0  0
    5.3598    9.9973    4.8591 H   0  0  0  0  0  0  0  0  0  0  0  0
    5.2687    9.6024    3.1218 H   0  0  0  0  0  0  0  0  0  0  0  0
    5.3778   11.4425    1.4617 H   0  0  0  0  0  0  0  0  0  0  0  0
    5.4362   13.8681    1.0014 H   0  0  0  0  0  0  0  0  0  0  0  0
    5.8995   15.4745    2.8286 H   0  0  0  0  0  0  0  0  0  0  0  0
    6.5423   14.5501    6.3093 H   0  0  0  0  0  0  0  0  0  0  0  0
    6.2787   12.2178    5.6051 H   0  0  0  0  0  0  0  0  0  0  0  0
   10.1917   11.1307    3.2792 H   0  0  0  0  0  0  0  0  0  0  0  0
   10.3070    9.8091    4.4923 H   0  0  0  0  0  0  0  0  0  0  0  0
   12.5374   10.2609    3.7534 H   0  0  0  0  0  0  0  0  0  0  0  0
   12.0585   10.2955    2.0260 H   0  0  0  0  0  0  0  0  0  0  0  0
  1  2  1  0
  2  3  1  0
  2  4  1  0
  4  5  1  0
  5  6  1  0
  6  7  1  0
  7  8  1  0
  8  9  2  0
  8 10  1  0
 10 11  1  0
 11 12  1  0
 12 13  2  0
 13 14  1  0
 14 15  2  0
 15 16  1  0
 16 17  1  0
 16 18  2  0
  7 19  1  0
 19 20  1  0
 20  4  1  0
 18 12  1  0
  1 21  1  0
  1 22  1  0
  1 23  1  0
  2 24  1  0
  3 25  1  0
  3 26  1  0
  3 27  1  0
  4 28  1  0
  5 29  1  0
  5 30  1  0
  6 31  1  0
  6 32  1  0
  7 33  1  0
 10 34  1  0
 11 35  1  0
 11 36  1  0
 13 37  1  0
 14 38  1  0
 15 39  1  0
 17 40  1  0
 18 41  1  0
 19 42  1  0
 19 43  1  0
 20 44  1  0
 20 45  1  0
M  CHG  1   3   1
M  END
>  <EmbedRMS>  (135) 
0.24874902131530774

$$$$

     RDKit          3D

 44 44  0  0  0  0  0  0  0  0999 V2000
   14.0273    7.0397    1.2342 C   0  0  0  0  0  0  0  0  0  0  0  0
   13.6687    8.3364    1.9397 C   0  0  0  0  0  0  0  0  0  0  0  0
   14.6133    8.7687    2.9619 N   0  0  0  0  0  4  0  0  0  0  0  0
   12.1572    8.5898    2.2127 C   0  0  0  0  0  0  0  0  0  0  0  0
   11.2401    7.3773    2.4539 C   0  0  0  0  0  0  0  0  0  0  0  0
    9.7876    7.8244    2.2163 C   0  0  0  0  0  0  0  0  0  0  0  0
    9.4111    8.9846    3.1576 C   0  0  0  0  0  0  0  0  0  0  0  0
    8.0155    9.4669    2.8796 C   0  0  0  0  0  0  0  0  0  0  0  0
    7.6311    9.6756    1.6937 O   0  0  0  0  0  0  0  0  0  0  0  0
    7.1365    9.7203    3.9800 N   0  0  0  0  0  0  0  0  0  0  0  0
    5.7524   10.1299    3.7933 C   0  0  0  0  0  0  0  0  0  0  0  0
    4.9121    8.9419    3.3299 C   0  0  0  0  0  0  0  0  0  0  0  0
    3.5201    9.3544    3.1309 N   0  0  0  0  0  0  0  0  0  0  0  0
    2.9650    9.4696    1.7835 C   0  0  0  0  0  0  0  0  0  0  0  0
    2.6570    9.5968    4.2527 C   0  0  0  0  0  0  0  0  0  0  0  0
    3.0756    9.4611    5.4335 O   0  0  0  0  0  0  0  0  0  0  0  0
   10.4065   10.1587    3.0899 C   0  0  0  0  0  0  0  0  0  0  0  0
   11.8560    9.6807    3.2551 C   0  0  0  0  0  0  0  0  0  0  0  0
   15.0823    7.0604    0.8851 H   0  0  0  0  0  0  0  0  0  0  0  0
   13.3758    6.8820    0.3477 H   0  0  0  0  0  0  0  0  0  0  0  0
   13.9075    6.1867    1.9347 H   0  0  0  0  0  0  0  0  0  0  0  0
   13.8820    9.0581    1.1114 H   0  0  0  0  0  0  0  0  0  0  0  0
   14.3781    8.3022    3.8674 H   0  0  0  0  0  0  0  0  0  0  0  0
   14.5962    9.8060    3.0876 H   0  0  0  0  0  0  0  0  0  0  0  0
   15.5894    8.5022    2.6965 H   0  0  0  0  0  0  0  0  0  0  0  0
   11.8013    9.0085    1.2382 H   0  0  0  0  0  0  0  0  0  0  0  0
   11.3707    6.9867    3.4869 H   0  0  0  0  0  0  0  0  0  0  0  0
   11.4617    6.5570    1.7409 H   0  0  0  0  0  0  0  0  0  0  0  0
    9.1123    6.9619    2.4079 H   0  0  0  0  0  0  0  0  0  0  0  0
    9.6566    8.1230    1.1520 H   0  0  0  0  0  0  0  0  0  0  0  0
    9.4423    8.5813    4.1950 H   0  0  0  0  0  0  0  0  0  0  0  0
    7.5063    9.6601    4.9558 H   0  0  0  0  0  0  0  0  0  0  0  0
    5.3580   10.5173    4.7566 H   0  0  0  0  0  0  0  0  0  0  0  0
    5.6989   10.9533    3.0481 H   0  0  0  0  0  0  0  0  0  0  0  0
    5.3362    8.5286    2.3899 H   0  0  0  0  0  0  0  0  0  0  0  0
    4.9568    8.1289    4.0873 H   0  0  0  0  0  0  0  0  0  0  0  0
    3.7352    9.2862    1.0049 H   0  0  0  0  0  0  0  0  0  0  0  0
    2.5610   10.4931    1.6332 H   0  0  0  0  0  0  0  0  0  0  0  0
    2.1455    8.7319    1.6522 H   0  0  0  0  0  0  0  0  0  0  0  0
    1.6295    9.8977    4.0910 H   0  0  0  0  0  0  0  0  0  0  0  0
   10.1736   10.8895    3.8952 H   0  0  0  0  0  0  0  0  0  0  0  0
   10.3026   10.6862    2.1151 H   0  0  0  0  0  0  0  0  0  0  0  0
   12.0220    9.2949    4.2848 H   0  0  0  0  0  0  0  0  0  0  0  0
   12.5088   10.5642    3.0950 H   0  0  0  0  0  0  0  0  0  0  0  0
  1  2  1  0
  2  3  1  0
  2  4  1  0
  4  5  1  0
  5  6  1  0
  6  7  1  0
  7  8  1  0
  8  9  2  0
  8 10  1  0
 10 11  1  0
 11 12  1  0
 12 13  1  0
 13 14  1  0
 13 15  1  0
 15 16  2  0
  7 17  1  0
 17 18  1  0
 18  4  1  0
  1 19  1  0
  1 20  1  0
  1 21  1  0
  2 22  1  0
  3 23  1  0
  3 24  1  0
  3 25  1  0
  4 26  1  0
  5 27  1  0
  5 28  1  0
  6 29  1  0
  6 30  1  0
  7 31  1  0
 10 32  1  0
 11 33  1  0
 11 34  1  0
 12 35  1  0
 12 36  1  0
 14 37  1  0
 14 38  1  0
 14 39  1  0
 15 40  1  0
 17 41  1  0
 17 42  1  0
 18 43  1  0
 18 44  1  0
M  CHG  1   3   1
M  END
>  <EmbedRMS>  (136) 
0.18265891910600293

$$$$

     RDKit          3D

 44 44  0  0  0  0  0  0  0  0999 V2000
    2.2726   12.2730    1.9197 C   0  0  0  0  0  0  0  0  0  0  0  0
    3.6716   11.7753    2.0767 C   0  0  0  0  0  0  0  0  0  0  0  0
    4.1993   11.0975    1.1535 O   0  0  0  0  0  0  0  0  0  0  0  0
    4.4123   12.0913    3.2636 N   0  0  0  0  0  0  0  0  0  0  0  0
    5.7882   11.6467    3.4755 C   0  0  0  0  0  0  0  0  0  0  0  0
    5.8325   10.1636    3.8751 C   0  0  0  0  0  0  0  0  0  0  0  0
    7.2226    9.6885    3.9384 N   0  0  0  0  0  0  0  0  0  0  0  0
    7.9822    9.5147    2.7306 C   0  0  0  0  0  0  0  0  0  0  0  0
    7.4090    9.6628    1.6229 O   0  0  0  0  0  0  0  0  0  0  0  0
    9.4448    9.1929    2.6561 C   0  0  0  0  0  0  0  0  0  0  0  0
    9.7666    7.7134    2.4316 C   0  0  0  0  0  0  0  0  0  0  0  0
   11.2651    7.3640    2.5402 C   0  0  0  0  0  0  0  0  0  0  0  0
   12.1439    8.5866    2.2323 C   0  0  0  0  0  0  0  0  0  0  0  0
   13.6549    8.3400    1.9333 C   0  0  0  0  0  0  0  0  0  0  0  0
   14.0142    7.0450    1.2245 C   0  0  0  0  0  0  0  0  0  0  0  0
   14.6174    8.7740    2.9401 N   0  0  0  0  0  4  0  0  0  0  0  0
   11.8897    9.6849    3.2851 C   0  0  0  0  0  0  0  0  0  0  0  0
   10.4047   10.0809    3.4318 C   0  0  0  0  0  0  0  0  0  0  0  0
    1.7850   11.7977    1.0420 H   0  0  0  0  0  0  0  0  0  0  0  0
    2.2858   13.3733    1.7753 H   0  0  0  0  0  0  0  0  0  0  0  0
    1.6851   12.0305    2.8298 H   0  0  0  0  0  0  0  0  0  0  0  0
    3.9764   12.7171    3.9782 H   0  0  0  0  0  0  0  0  0  0  0  0
    6.3806   11.8354    2.5554 H   0  0  0  0  0  0  0  0  0  0  0  0
    6.2447   12.2471    4.2922 H   0  0  0  0  0  0  0  0  0  0  0  0
    5.2582    9.5431    3.1538 H   0  0  0  0  0  0  0  0  0  0  0  0
    5.3593   10.0461    4.8739 H   0  0  0  0  0  0  0  0  0  0  0  0
    7.6549    9.4618    4.8617 H   0  0  0  0  0  0  0  0  0  0  0  0
    9.6827    9.5850    1.6377 H   0  0  0  0  0  0  0  0  0  0  0  0
    9.3865    7.3953    1.4337 H   0  0  0  0  0  0  0  0  0  0  0  0
    9.2159    7.1115    3.1869 H   0  0  0  0  0  0  0  0  0  0  0  0
   11.4755    6.5310    1.8379 H   0  0  0  0  0  0  0  0  0  0  0  0
   11.4952    7.0012    3.5662 H   0  0  0  0  0  0  0  0  0  0  0  0
   11.7508    8.9795    1.2653 H   0  0  0  0  0  0  0  0  0  0  0  0
   13.8449    9.0656    1.1033 H   0  0  0  0  0  0  0  0  0  0  0  0
   15.0592    7.0794    0.8478 H   0  0  0  0  0  0  0  0  0  0  0  0
   13.9249    6.1936    1.9314 H   0  0  0  0  0  0  0  0  0  0  0  0
   13.3412    6.8742    0.3568 H   0  0  0  0  0  0  0  0  0  0  0  0
   14.5656    9.8050    3.1029 H   0  0  0  0  0  0  0  0  0  0  0  0
   14.4333    8.2660    3.8350 H   0  0  0  0  0  0  0  0  0  0  0  0
   15.5929    8.5557    2.6317 H   0  0  0  0  0  0  0  0  0  0  0  0
   12.4544   10.6000    3.0036 H   0  0  0  0  0  0  0  0  0  0  0  0
   12.2718    9.3427    4.2720 H   0  0  0  0  0  0  0  0  0  0  0  0
   10.2656   11.1439    3.1275 H   0  0  0  0  0  0  0  0  0  0  0  0
   10.1319   10.0247    4.5078 H   0  0  0  0  0  0  0  0  0  0  0  0
  1  2  1  0
  2  3  2  0
  2  4  1  0
  4  5  1  0
  5  6  1  0
  6  7  1  0
  7  8  1  0
  8  9  2  0
  8 10  1  0
 10 11  1  0
 11 12  1  0
 12 13  1  0
 13 14  1  0
 14 15  1  0
 14 16  1  0
 13 17  1  0
 17 18  1  0
 18 10  1  0
  1 19  1  0
  1 20  1  0
  1 21  1  0
  4 22  1  0
  5 23  1  0
  5 24  1  0
  6 25  1  0
  6 26  1  0
  7 27  1  0
 10 28  1  0
 11 29  1  0
 11 30  1  0
 12 31  1  0
 12 32  1  0
 13 33  1  0
 14 34  1  0
 15 35  1  0
 15 36  1  0
 15 37  1  0
 16 38  1  0
 16 39  1  0
 16 40  1  0
 17 41  1  0
 17 42  1  0
 18 43  1  0
 18 44  1  0
M  CHG  1  16   1
M  END
>  <EmbedRMS>  (137) 
0.2509587523478319

$$$$

     RDKit          3D

 44 44  0  0  0  0  0  0  0  0999 V2000
    8.2507   13.6510    5.6746 C   0  0  0  0  0  0  0  0  0  0  0  0
    7.6935   12.8559    4.5887 N   0  0  0  0  0  0  0  0  0  0  0  0
    6.3008   12.5270    4.5313 C   0  0  0  0  0  0  0  0  0  0  0  0
    5.5148   12.9236    5.4337 O   0  0  0  0  0  0  0  0  0  0  0  0
    5.7719   11.6768    3.4172 C   0  0  0  0  0  0  0  0  0  0  0  0
    5.7738   10.1969    3.8073 C   0  0  0  0  0  0  0  0  0  0  0  0
    7.1370    9.7021    3.9754 N   0  0  0  0  0  0  0  0  0  0  0  0
    8.0104    9.4682    2.8639 C   0  0  0  0  0  0  0  0  0  0  0  0
    7.6101    9.6812    1.6849 O   0  0  0  0  0  0  0  0  0  0  0  0
    9.4149    8.9869    3.1097 C   0  0  0  0  0  0  0  0  0  0  0  0
    9.7998    7.9227    2.0839 C   0  0  0  0  0  0  0  0  0  0  0  0
   11.1587    7.3120    2.3949 C   0  0  0  0  0  0  0  0  0  0  0  0
   12.2760    8.3207    2.7729 C   0  0  0  0  0  0  0  0  0  0  0  0
   13.5811    8.3565    1.9534 C   0  0  0  0  0  0  0  0  0  0  0  0
   13.9845    7.0979    1.1856 C   0  0  0  0  0  0  0  0  0  0  0  0
   14.7114    8.8838    2.7302 N   0  0  0  0  0  4  0  0  0  0  0  0
   11.8334    9.7183    3.3033 C   0  0  0  0  0  0  0  0  0  0  0  0
   10.3972   10.1495    3.0136 C   0  0  0  0  0  0  0  0  0  0  0  0
    8.0958   13.1276    6.6415 H   0  0  0  0  0  0  0  0  0  0  0  0
    9.3401   13.7955    5.5152 H   0  0  0  0  0  0  0  0  0  0  0  0
    7.7569   14.6450    5.7059 H   0  0  0  0  0  0  0  0  0  0  0  0
    8.3259   12.5394    3.8205 H   0  0  0  0  0  0  0  0  0  0  0  0
    4.7287   11.9858    3.1896 H   0  0  0  0  0  0  0  0  0  0  0  0
    6.3701   11.8408    2.4963 H   0  0  0  0  0  0  0  0  0  0  0  0
    5.2093   10.0617    4.7561 H   0  0  0  0  0  0  0  0  0  0  0  0
    5.2556    9.6021    3.0243 H   0  0  0  0  0  0  0  0  0  0  0  0
    7.4662    9.4783    4.9415 H   0  0  0  0  0  0  0  0  0  0  0  0
    9.4721    8.5420    4.1288 H   0  0  0  0  0  0  0  0  0  0  0  0
    9.8312    8.3648    1.0625 H   0  0  0  0  0  0  0  0  0  0  0  0
    9.0366    7.1126    2.0763 H   0  0  0  0  0  0  0  0  0  0  0  0
   11.0042    6.5959    3.2357 H   0  0  0  0  0  0  0  0  0  0  0  0
   11.4418    6.6832    1.5308 H   0  0  0  0  0  0  0  0  0  0  0  0
   12.6579    7.8385    3.7039 H   0  0  0  0  0  0  0  0  0  0  0  0
   13.3811    9.1000    1.1478 H   0  0  0  0  0  0  0  0  0  0  0  0
   13.2937    6.9100    0.3372 H   0  0  0  0  0  0  0  0  0  0  0  0
   13.9875    6.2210    1.8670 H   0  0  0  0  0  0  0  0  0  0  0  0
   15.0010    7.2110    0.7523 H   0  0  0  0  0  0  0  0  0  0  0  0
   14.9943    8.1904    3.4606 H   0  0  0  0  0  0  0  0  0  0  0  0
   14.4920    9.7904    3.1963 H   0  0  0  0  0  0  0  0  0  0  0  0
   15.5293    9.0527    2.1001 H   0  0  0  0  0  0  0  0  0  0  0  0
   11.9737    9.7510    4.4083 H   0  0  0  0  0  0  0  0  0  0  0  0
   12.4757   10.5250    2.8923 H   0  0  0  0  0  0  0  0  0  0  0  0
   10.1109   10.9432    3.7375 H   0  0  0  0  0  0  0  0  0  0  0  0
   10.3502   10.5947    1.9938 H   0  0  0  0  0  0  0  0  0  0  0  0
  1  2  1  0
  2  3  1  0
  3  4  2  0
  3  5  1  0
  5  6  1  0
  6  7  1  0
  7  8  1  0
  8  9  2  0
  8 10  1  0
 10 11  1  0
 11 12  1  0
 12 13  1  0
 13 14  1  0
 14 15  1  0
 14 16  1  0
 13 17  1  0
 17 18  1  0
 18 10  1  0
  1 19  1  0
  1 20  1  0
  1 21  1  0
  2 22  1  0
  5 23  1  0
  5 24  1  0
  6 25  1  0
  6 26  1  0
  7 27  1  0
 10 28  1  0
 11 29  1  0
 11 30  1  0
 12 31  1  0
 12 32  1  0
 13 33  1  0
 14 34  1  0
 15 35  1  0
 15 36  1  0
 15 37  1  0
 16 38  1  0
 16 39  1  0
 16 40  1  0
 17 41  1  0
 17 42  1  0
 18 43  1  0
 18 44  1  0
M  CHG  1  16   1
M  END
>  <EmbedRMS>  (138) 
0.20180190035783102

$$$$

     RDKit          3D

 47 48  0  0  0  0  0  0  0  0999 V2000
    3.3550    7.5261    0.2387 C   0  0  0  0  0  0  0  0  0  0  0  0
    3.7591    7.6796    1.6740 C   0  0  0  0  0  0  0  0  0  0  0  0
    3.4093    6.6971    2.6112 C   0  0  0  0  0  0  0  0  0  0  0  0
    3.8066    6.8249    3.9436 C   0  0  0  0  0  0  0  0  0  0  0  0
    4.5708    7.9221    4.3466 C   0  0  0  0  0  0  0  0  0  0  0  0
    4.9400    8.9082    3.4207 C   0  0  0  0  0  0  0  0  0  0  0  0
    5.8031   10.0620    3.8692 C   0  0  0  0  0  0  0  0  0  0  0  0
    7.2179    9.6630    3.9265 N   0  0  0  0  0  0  0  0  0  0  0  0
    7.9878    9.5377    2.7183 C   0  0  0  0  0  0  0  0  0  0  0  0
    7.4195    9.7037    1.6128 O   0  0  0  0  0  0  0  0  0  0  0  0
    9.4506    9.2137    2.6347 C   0  0  0  0  0  0  0  0  0  0  0  0
    9.7340    7.7427    2.3734 C   0  0  0  0  0  0  0  0  0  0  0  0
   11.1976    7.3493    2.5402 C   0  0  0  0  0  0  0  0  0  0  0  0
   12.1819    8.5080    2.2955 C   0  0  0  0  0  0  0  0  0  0  0  0
   13.6459    7.9624    2.3850 C   0  0  0  0  0  0  0  0  0  0  0  0
   14.0279    7.2300    1.0859 C   0  0  0  0  0  0  0  0  0  0  0  0
   14.6271    9.0243    2.6471 N   0  0  0  0  0  4  0  0  0  0  0  0
   11.8957    9.6374    3.3177 C   0  0  0  0  0  0  0  0  0  0  0  0
   10.4177   10.0733    3.4266 C   0  0  0  0  0  0  0  0  0  0  0  0
    4.5324    8.7801    2.0799 C   0  0  0  0  0  0  0  0  0  0  0  0
    3.2257    8.5199   -0.2406 H   0  0  0  0  0  0  0  0  0  0  0  0
    4.1392    6.9607   -0.3066 H   0  0  0  0  0  0  0  0  0  0  0  0
    2.3914    6.9791    0.1583 H   0  0  0  0  0  0  0  0  0  0  0  0
    2.8281    5.8337    2.3113 H   0  0  0  0  0  0  0  0  0  0  0  0
    3.5310    6.0656    4.6641 H   0  0  0  0  0  0  0  0  0  0  0  0
    4.8834    7.9981    5.3809 H   0  0  0  0  0  0  0  0  0  0  0  0
    5.4772   10.3905    4.8801 H   0  0  0  0  0  0  0  0  0  0  0  0
    5.6805   10.9383    3.1956 H   0  0  0  0  0  0  0  0  0  0  0  0
    7.6767    9.5107    4.8522 H   0  0  0  0  0  0  0  0  0  0  0  0
    9.7114    9.6194    1.6251 H   0  0  0  0  0  0  0  0  0  0  0  0
    9.1282    7.1304    3.0776 H   0  0  0  0  0  0  0  0  0  0  0  0
    9.3937    7.4684    1.3478 H   0  0  0  0  0  0  0  0  0  0  0  0
   11.3436    6.9693    3.5766 H   0  0  0  0  0  0  0  0  0  0  0  0
   11.3979    6.4993    1.8571 H   0  0  0  0  0  0  0  0  0  0  0  0
   12.0116    8.9214    1.2757 H   0  0  0  0  0  0  0  0  0  0  0  0
   13.7142    7.2275    3.2200 H   0  0  0  0  0  0  0  0  0  0  0  0
   13.9578    7.9167    0.2154 H   0  0  0  0  0  0  0  0  0  0  0  0
   13.3807    6.3497    0.9044 H   0  0  0  0  0  0  0  0  0  0  0  0
   15.0712    6.8547    1.1520 H   0  0  0  0  0  0  0  0  0  0  0  0
   14.5143    9.3994    3.6160 H   0  0  0  0  0  0  0  0  0  0  0  0
   14.5262    9.7975    1.9495 H   0  0  0  0  0  0  0  0  0  0  0  0
   15.5988    8.6418    2.5850 H   0  0  0  0  0  0  0  0  0  0  0  0
   12.2339    9.3016    4.3236 H   0  0  0  0  0  0  0  0  0  0  0  0
   12.4948   10.5349    3.0515 H   0  0  0  0  0  0  0  0  0  0  0  0
   10.1188   10.0277    4.4963 H   0  0  0  0  0  0  0  0  0  0  0  0
   10.3156   11.1402    3.1210 H   0  0  0  0  0  0  0  0  0  0  0  0
    4.8107    9.5360    1.3560 H   0  0  0  0  0  0  0  0  0  0  0  0
  1  2  1  0
  2  3  2  0
  3  4  1  0
  4  5  2  0
  5  6  1  0
  6  7  1  0
  7  8  1  0
  8  9  1  0
  9 10  2  0
  9 11  1  0
 11 12  1  0
 12 13  1  0
 13 14  1  0
 14 15  1  0
 15 16  1  0
 15 17  1  0
 14 18  1  0
 18 19  1  0
  6 20  2  0
 20  2  1  0
 19 11  1  0
  1 21  1  0
  1 22  1  0
  1 23  1  0
  3 24  1  0
  4 25  1  0
  5 26  1  0
  7 27  1  0
  7 28  1  0
  8 29  1  0
 11 30  1  0
 12 31  1  0
 12 32  1  0
 13 33  1  0
 13 34  1  0
 14 35  1  0
 15 36  1  0
 16 37  1  0
 16 38  1  0
 16 39  1  0
 17 40  1  0
 17 41  1  0
 17 42  1  0
 18 43  1  0
 18 44  1  0
 19 45  1  0
 19 46  1  0
 20 47  1  0
M  CHG  1  17   1
M  END
>  <EmbedRMS>  (139) 
0.16810927383701896

$$$$

     RDKit          3D

 37 37  0  0  0  0  0  0  0  0999 V2000
    4.9010    8.9493    3.3214 C   0  0  0  0  0  0  0  0  0  0  0  0
    5.7477   10.1185    3.8091 C   0  0  0  0  0  0  0  0  0  0  0  0
    7.1378    9.7075    3.9757 N   0  0  0  0  0  0  0  0  0  0  0  0
    8.0091    9.4709    2.8632 C   0  0  0  0  0  0  0  0  0  0  0  0
    7.6090    9.6877    1.6849 O   0  0  0  0  0  0  0  0  0  0  0  0
    9.4140    8.9898    3.1084 C   0  0  0  0  0  0  0  0  0  0  0  0
    9.7981    7.9225    2.0853 C   0  0  0  0  0  0  0  0  0  0  0  0
   11.1578    7.3127    2.3960 C   0  0  0  0  0  0  0  0  0  0  0  0
   12.2752    8.3218    2.7734 C   0  0  0  0  0  0  0  0  0  0  0  0
   13.5805    8.3571    1.9538 C   0  0  0  0  0  0  0  0  0  0  0  0
   13.9836    7.0985    1.1857 C   0  0  0  0  0  0  0  0  0  0  0  0
   14.7111    8.8839    2.7305 N   0  0  0  0  0  4  0  0  0  0  0  0
   11.8317    9.7194    3.3044 C   0  0  0  0  0  0  0  0  0  0  0  0
   10.3968   10.1516    3.0079 C   0  0  0  0  0  0  0  0  0  0  0  0
    4.9738    8.1023    4.0363 H   0  0  0  0  0  0  0  0  0  0  0  0
    5.2401    8.6114    2.3200 H   0  0  0  0  0  0  0  0  0  0  0  0
    3.8390    9.2647    3.2475 H   0  0  0  0  0  0  0  0  0  0  0  0
    5.6836   10.9644    3.0910 H   0  0  0  0  0  0  0  0  0  0  0  0
    5.3476   10.4660    4.7862 H   0  0  0  0  0  0  0  0  0  0  0  0
    7.5181    9.6307    4.9461 H   0  0  0  0  0  0  0  0  0  0  0  0
    9.4709    8.5475    4.1287 H   0  0  0  0  0  0  0  0  0  0  0  0
    9.8276    8.3613    1.0624 H   0  0  0  0  0  0  0  0  0  0  0  0
    9.0349    7.1124    2.0811 H   0  0  0  0  0  0  0  0  0  0  0  0
   11.0040    6.5968    3.2371 H   0  0  0  0  0  0  0  0  0  0  0  0
   11.4410    6.6836    1.5321 H   0  0  0  0  0  0  0  0  0  0  0  0
   12.6575    7.8399    3.7045 H   0  0  0  0  0  0  0  0  0  0  0  0
   13.3805    9.1010    1.1485 H   0  0  0  0  0  0  0  0  0  0  0  0
   15.0000    7.2116    0.7521 H   0  0  0  0  0  0  0  0  0  0  0  0
   13.2924    6.9108    0.3375 H   0  0  0  0  0  0  0  0  0  0  0  0
   13.9867    6.2216    1.8670 H   0  0  0  0  0  0  0  0  0  0  0  0
   14.9942    8.1900    3.4603 H   0  0  0  0  0  0  0  0  0  0  0  0
   14.4920    9.7901    3.1973 H   0  0  0  0  0  0  0  0  0  0  0  0
   15.5287    9.0531    2.1001 H   0  0  0  0  0  0  0  0  0  0  0  0
   12.4766   10.5261    2.8979 H   0  0  0  0  0  0  0  0  0  0  0  0
   11.9658    9.7500    4.4102 H   0  0  0  0  0  0  0  0  0  0  0  0
   10.3549   10.5873    1.9838 H   0  0  0  0  0  0  0  0  0  0  0  0
   10.1049   10.9541    3.7216 H   0  0  0  0  0  0  0  0  0  0  0  0
  1  2  1  0
  2  3  1  0
  3  4  1  0
  4  5  2  0
  4  6  1  0
  6  7  1  0
  7  8  1  0
  8  9  1  0
  9 10  1  0
 10 11  1  0
 10 12  1  0
  9 13  1  0
 13 14  1  0
 14  6  1  0
  1 15  1  0
  1 16  1  0
  1 17  1  0
  2 18  1  0
  2 19  1  0
  3 20  1  0
  6 21  1  0
  7 22  1  0
  7 23  1  0
  8 24  1  0
  8 25  1  0
  9 26  1  0
 10 27  1  0
 11 28  1  0
 11 29  1  0
 11 30  1  0
 12 31  1  0
 12 32  1  0
 12 33  1  0
 13 34  1  0
 13 35  1  0
 14 36  1  0
 14 37  1  0
M  CHG  1  12   1
M  END
>  <EmbedRMS>  (140) 
0.22880006867790334

$$$$

     RDKit          3D

 41 41  0  0  0  0  0  0  0  0999 V2000
   14.0115    7.0506    1.2528 C   0  0  0  0  0  0  0  0  0  0  0  0
   13.6007    8.3244    1.9897 C   0  0  0  0  0  0  0  0  0  0  0  0
   14.7026    8.8917    2.7697 N   0  0  0  0  0  4  0  0  0  0  0  0
   12.2613    8.3272    2.7670 C   0  0  0  0  0  0  0  0  0  0  0  0
   11.1798    7.4395    2.1343 C   0  0  0  0  0  0  0  0  0  0  0  0
    9.7449    7.7260    2.5438 C   0  0  0  0  0  0  0  0  0  0  0  0
    9.4498    9.2016    2.6348 C   0  0  0  0  0  0  0  0  0  0  0  0
    7.9883    9.5247    2.7224 C   0  0  0  0  0  0  0  0  0  0  0  0
    7.4124    9.6708    1.6173 O   0  0  0  0  0  0  0  0  0  0  0  0
    7.2314    9.6900    3.9341 N   0  0  0  0  0  0  0  0  0  0  0  0
    5.8391   10.1600    3.8802 C   0  0  0  0  0  0  0  0  0  0  0  0
    5.7848   11.6424    3.4802 C   0  0  0  0  0  0  0  0  0  0  0  0
    4.4046   12.0986    3.3235 N   0  0  0  0  0  0  0  0  0  0  0  0
    4.0979   13.4521    2.9752 C   0  0  0  0  0  0  0  0  0  0  0  0
    5.0150   14.2987    2.8019 O   0  0  0  0  0  0  0  0  0  0  0  0
   10.3846   10.0200    3.4814 C   0  0  0  0  0  0  0  0  0  0  0  0
   11.8491    9.7807    3.1212 C   0  0  0  0  0  0  0  0  0  0  0  0
   14.9833    7.1928    0.7338 H   0  0  0  0  0  0  0  0  0  0  0  0
   14.1168    6.2176    1.9793 H   0  0  0  0  0  0  0  0  0  0  0  0
   13.2678    6.7648    0.4810 H   0  0  0  0  0  0  0  0  0  0  0  0
   13.4367    9.0286    1.1409 H   0  0  0  0  0  0  0  0  0  0  0  0
   15.5920    8.8676    2.2197 H   0  0  0  0  0  0  0  0  0  0  0  0
   14.5201    9.8921    3.0081 H   0  0  0  0  0  0  0  0  0  0  0  0
   14.8383    8.3412    3.6484 H   0  0  0  0  0  0  0  0  0  0  0  0
   12.4685    7.8405    3.7468 H   0  0  0  0  0  0  0  0  0  0  0  0
   11.4064    6.3669    2.3233 H   0  0  0  0  0  0  0  0  0  0  0  0
   11.2136    7.5916    1.0333 H   0  0  0  0  0  0  0  0  0  0  0  0
    9.5620    7.2714    3.5419 H   0  0  0  0  0  0  0  0  0  0  0  0
    9.0548    7.2351    1.8212 H   0  0  0  0  0  0  0  0  0  0  0  0
    9.7207    9.5606    1.6108 H   0  0  0  0  0  0  0  0  0  0  0  0
    7.6691    9.4627    4.8547 H   0  0  0  0  0  0  0  0  0  0  0  0
    5.2621    9.5419    3.1581 H   0  0  0  0  0  0  0  0  0  0  0  0
    5.3740   10.0392    4.8825 H   0  0  0  0  0  0  0  0  0  0  0  0
    6.3234   11.8023    2.5228 H   0  0  0  0  0  0  0  0  0  0  0  0
    6.2851   12.2470    4.2676 H   0  0  0  0  0  0  0  0  0  0  0  0
    3.6094   11.4357    3.4671 H   0  0  0  0  0  0  0  0  0  0  0  0
    3.0657   13.7552    2.8606 H   0  0  0  0  0  0  0  0  0  0  0  0
   10.1471   11.1031    3.3845 H   0  0  0  0  0  0  0  0  0  0  0  0
   10.2299    9.7359    4.5451 H   0  0  0  0  0  0  0  0  0  0  0  0
   12.4695   10.1520    3.9658 H   0  0  0  0  0  0  0  0  0  0  0  0
   12.0655   10.4407    2.2522 H   0  0  0  0  0  0  0  0  0  0  0  0
  1  2  1  0
  2  3  1  0
  2  4  1  0
  4  5  1  0
  5  6  1  0
  6  7  1  0
  7  8  1  0
  8  9  2  0
  8 10  1  0
 10 11  1  0
 11 12  1  0
 12 13  1  0
 13 14  1  0
 14 15  2  0
  7 16  1  0
 16 17  1  0
 17  4  1  0
  1 18  1  0
  1 19  1  0
  1 20  1  0
  2 21  1  0
  3 22  1  0
  3 23  1  0
  3 24  1  0
  4 25  1  0
  5 26  1  0
  5 27  1  0
  6 28  1  0
  6 29  1  0
  7 30  1  0
 10 31  1  0
 11 32  1  0
 11 33  1  0
 12 34  1  0
 12 35  1  0
 13 36  1  0
 14 37  1  0
 16 38  1  0
 16 39  1  0
 17 40  1  0
 17 41  1  0
M  CHG  1   3   1
M  END
>  <EmbedRMS>  (141) 
0.30207850723488733

$$$$

     RDKit          3D

 37 37  0  0  0  0  0  0  0  0999 V2000
    4.9010    8.9493    3.3214 C   0  0  0  0  0  0  0  0  0  0  0  0
    5.7477   10.1185    3.8091 C   0  0  0  0  0  0  0  0  0  0  0  0
    7.1378    9.7075    3.9757 N   0  0  0  0  0  0  0  0  0  0  0  0
    8.0091    9.4709    2.8632 C   0  0  0  0  0  0  0  0  0  0  0  0
    7.6090    9.6877    1.6849 O   0  0  0  0  0  0  0  0  0  0  0  0
    9.4140    8.9898    3.1084 C   0  0  0  0  0  0  0  0  0  0  0  0
    9.7981    7.9225    2.0853 C   0  0  0  0  0  0  0  0  0  0  0  0
   11.1578    7.3127    2.3960 C   0  0  0  0  0  0  0  0  0  0  0  0
   12.2752    8.3218    2.7734 C   0  0  0  0  0  0  0  0  0  0  0  0
   13.5805    8.3571    1.9538 C   0  0  0  0  0  0  0  0  0  0  0  0
   13.9836    7.0985    1.1857 C   0  0  0  0  0  0  0  0  0  0  0  0
   14.7111    8.8839    2.7305 N   0  0  0  0  0  4  0  0  0  0  0  0
   11.8317    9.7194    3.3044 C   0  0  0  0  0  0  0  0  0  0  0  0
   10.3968   10.1516    3.0079 C   0  0  0  0  0  0  0  0  0  0  0  0
    4.9738    8.1023    4.0363 H   0  0  0  0  0  0  0  0  0  0  0  0
    5.2401    8.6114    2.3200 H   0  0  0  0  0  0  0  0  0  0  0  0
    3.8390    9.2647    3.2475 H   0  0  0  0  0  0  0  0  0  0  0  0
    5.6836   10.9644    3.0910 H   0  0  0  0  0  0  0  0  0  0  0  0
    5.3476   10.4660    4.7862 H   0  0  0  0  0  0  0  0  0  0  0  0
    7.5181    9.6307    4.9461 H   0  0  0  0  0  0  0  0  0  0  0  0
    9.4709    8.5475    4.1287 H   0  0  0  0  0  0  0  0  0  0  0  0
    9.8276    8.3613    1.0624 H   0  0  0  0  0  0  0  0  0  0  0  0
    9.0349    7.1124    2.0811 H   0  0  0  0  0  0  0  0  0  0  0  0
   11.0040    6.5968    3.2371 H   0  0  0  0  0  0  0  0  0  0  0  0
   11.4410    6.6836    1.5321 H   0  0  0  0  0  0  0  0  0  0  0  0
   12.6575    7.8399    3.7045 H   0  0  0  0  0  0  0  0  0  0  0  0
   13.3805    9.1010    1.1485 H   0  0  0  0  0  0  0  0  0  0  0  0
   15.0000    7.2116    0.7521 H   0  0  0  0  0  0  0  0  0  0  0  0
   13.2924    6.9108    0.3375 H   0  0  0  0  0  0  0  0  0  0  0  0
   13.9867    6.2216    1.8670 H   0  0  0  0  0  0  0  0  0  0  0  0
   14.9942    8.1900    3.4603 H   0  0  0  0  0  0  0  0  0  0  0  0
   14.4920    9.7901    3.1973 H   0  0  0  0  0  0  0  0  0  0  0  0
   15.5287    9.0531    2.1001 H   0  0  0  0  0  0  0  0  0  0  0  0
   12.4766   10.5261    2.8979 H   0  0  0  0  0  0  0  0  0  0  0  0
   11.9658    9.7500    4.4102 H   0  0  0  0  0  0  0  0  0  0  0  0
   10.3549   10.5873    1.9838 H   0  0  0  0  0  0  0  0  0  0  0  0
   10.1049   10.9541    3.7216 H   0  0  0  0  0  0  0  0  0  0  0  0
  1  2  1  0
  2  3  1  0
  3  4  1  0
  4  5  2  0
  4  6  1  0
  6  7  1  0
  7  8  1  0
  8  9  1  0
  9 10  1  0
 10 11  1  0
 10 12  1  0
  9 13  1  0
 13 14  1  0
 14  6  1  0
  1 15  1  0
  1 16  1  0
  1 17  1  0
  2 18  1  0
  2 19  1  0
  3 20  1  0
  6 21  1  0
  7 22  1  0
  7 23  1  0
  8 24  1  0
  8 25  1  0
  9 26  1  0
 10 27  1  0
 11 28  1  0
 11 29  1  0
 11 30  1  0
 12 31  1  0
 12 32  1  0
 12 33  1  0
 13 34  1  0
 13 35  1  0
 14 36  1  0
 14 37  1  0
M  CHG  1  12   1
M  END
>  <EmbedRMS>  (142) 
0.22880006867790334

$$$$

     RDKit          3D

 47 48  0  0  0  0  0  0  0  0999 V2000
    3.3550    7.5261    0.2387 C   0  0  0  0  0  0  0  0  0  0  0  0
    3.7591    7.6796    1.6740 C   0  0  0  0  0  0  0  0  0  0  0  0
    3.4093    6.6971    2.6112 C   0  0  0  0  0  0  0  0  0  0  0  0
    3.8066    6.8249    3.9436 C   0  0  0  0  0  0  0  0  0  0  0  0
    4.5708    7.9221    4.3466 C   0  0  0  0  0  0  0  0  0  0  0  0
    4.9400    8.9082    3.4207 C   0  0  0  0  0  0  0  0  0  0  0  0
    5.8031   10.0620    3.8692 C   0  0  0  0  0  0  0  0  0  0  0  0
    7.2179    9.6630    3.9265 N   0  0  0  0  0  0  0  0  0  0  0  0
    7.9878    9.5377    2.7183 C   0  0  0  0  0  0  0  0  0  0  0  0
    7.4195    9.7037    1.6128 O   0  0  0  0  0  0  0  0  0  0  0  0
    9.4506    9.2137    2.6347 C   0  0  0  0  0  0  0  0  0  0  0  0
    9.7340    7.7427    2.3734 C   0  0  0  0  0  0  0  0  0  0  0  0
   11.1976    7.3493    2.5402 C   0  0  0  0  0  0  0  0  0  0  0  0
   12.1819    8.5080    2.2955 C   0  0  0  0  0  0  0  0  0  0  0  0
   13.6459    7.9624    2.3850 C   0  0  0  0  0  0  0  0  0  0  0  0
   14.0279    7.2300    1.0859 C   0  0  0  0  0  0  0  0  0  0  0  0
   14.6271    9.0243    2.6471 N   0  0  0  0  0  4  0  0  0  0  0  0
   11.8957    9.6374    3.3177 C   0  0  0  0  0  0  0  0  0  0  0  0
   10.4177   10.0733    3.4266 C   0  0  0  0  0  0  0  0  0  0  0  0
    4.5324    8.7801    2.0799 C   0  0  0  0  0  0  0  0  0  0  0  0
    3.2257    8.5199   -0.2406 H   0  0  0  0  0  0  0  0  0  0  0  0
    4.1392    6.9607   -0.3066 H   0  0  0  0  0  0  0  0  0  0  0  0
    2.3914    6.9791    0.1583 H   0  0  0  0  0  0  0  0  0  0  0  0
    2.8281    5.8337    2.3113 H   0  0  0  0  0  0  0  0  0  0  0  0
    3.5310    6.0656    4.6641 H   0  0  0  0  0  0  0  0  0  0  0  0
    4.8834    7.9981    5.3809 H   0  0  0  0  0  0  0  0  0  0  0  0
    5.4772   10.3905    4.8801 H   0  0  0  0  0  0  0  0  0  0  0  0
    5.6805   10.9383    3.1956 H   0  0  0  0  0  0  0  0  0  0  0  0
    7.6767    9.5107    4.8522 H   0  0  0  0  0  0  0  0  0  0  0  0
    9.7114    9.6194    1.6251 H   0  0  0  0  0  0  0  0  0  0  0  0
    9.1282    7.1304    3.0776 H   0  0  0  0  0  0  0  0  0  0  0  0
    9.3937    7.4684    1.3478 H   0  0  0  0  0  0  0  0  0  0  0  0
   11.3436    6.9693    3.5766 H   0  0  0  0  0  0  0  0  0  0  0  0
   11.3979    6.4993    1.8571 H   0  0  0  0  0  0  0  0  0  0  0  0
   12.0116    8.9214    1.2757 H   0  0  0  0  0  0  0  0  0  0  0  0
   13.7142    7.2275    3.2200 H   0  0  0  0  0  0  0  0  0  0  0  0
   13.9578    7.9167    0.2154 H   0  0  0  0  0  0  0  0  0  0  0  0
   13.3807    6.3497    0.9044 H   0  0  0  0  0  0  0  0  0  0  0  0
   15.0712    6.8547    1.1520 H   0  0  0  0  0  0  0  0  0  0  0  0
   14.5143    9.3994    3.6160 H   0  0  0  0  0  0  0  0  0  0  0  0
   14.5262    9.7975    1.9495 H   0  0  0  0  0  0  0  0  0  0  0  0
   15.5988    8.6418    2.5850 H   0  0  0  0  0  0  0  0  0  0  0  0
   12.2339    9.3016    4.3236 H   0  0  0  0  0  0  0  0  0  0  0  0
   12.4948   10.5349    3.0515 H   0  0  0  0  0  0  0  0  0  0  0  0
   10.1188   10.0277    4.4963 H   0  0  0  0  0  0  0  0  0  0  0  0
   10.3156   11.1402    3.1210 H   0  0  0  0  0  0  0  0  0  0  0  0
    4.8107    9.5360    1.3560 H   0  0  0  0  0  0  0  0  0  0  0  0
  1  2  1  0
  2  3  2  0
  3  4  1  0
  4  5  2  0
  5  6  1  0
  6  7  1  0
  7  8  1  0
  8  9  1  0
  9 10  2  0
  9 11  1  0
 11 12  1  0
 12 13  1  0
 13 14  1  0
 14 15  1  0
 15 16  1  0
 15 17  1  0
 14 18  1  0
 18 19  1  0
  6 20  2  0
 20  2  1  0
 19 11  1  0
  1 21  1  0
  1 22  1  0
  1 23  1  0
  3 24  1  0
  4 25  1  0
  5 26  1  0
  7 27  1  0
  7 28  1  0
  8 29  1  0
 11 30  1  0
 12 31  1  0
 12 32  1  0
 13 33  1  0
 13 34  1  0
 14 35  1  0
 15 36  1  0
 16 37  1  0
 16 38  1  0
 16 39  1  0
 17 40  1  0
 17 41  1  0
 17 42  1  0
 18 43  1  0
 18 44  1  0
 19 45  1  0
 19 46  1  0
 20 47  1  0
M  CHG  1  17   1
M  END
>  <EmbedRMS>  (143) 
0.16810927383701896

$$$$

     RDKit          3D

 42 42  0  0  0  0  0  0  0  0999 V2000
    3.9001    7.5288    1.5629 C   0  0  0  0  0  0  0  0  0  0  0  0
    4.6326    8.6920    2.0531 N   0  0  0  0  0  0  0  0  0  0  0  0
    4.9417    8.9005    3.4440 C   0  0  0  0  0  0  0  0  0  0  0  0
    4.5311    8.0727    4.3538 N   0  0  0  0  0  0  0  0  0  0  0  0
    5.8032   10.0605    3.8661 C   0  0  0  0  0  0  0  0  0  0  0  0
    7.2174    9.6610    3.9271 N   0  0  0  0  0  0  0  0  0  0  0  0
    7.9881    9.5272    2.7204 C   0  0  0  0  0  0  0  0  0  0  0  0
    7.4252    9.7009    1.6138 O   0  0  0  0  0  0  0  0  0  0  0  0
    9.4499    9.2013    2.6371 C   0  0  0  0  0  0  0  0  0  0  0  0
    9.7440    7.7258    2.5450 C   0  0  0  0  0  0  0  0  0  0  0  0
   11.1792    7.4390    2.1353 C   0  0  0  0  0  0  0  0  0  0  0  0
   12.2612    8.3269    2.7673 C   0  0  0  0  0  0  0  0  0  0  0  0
   13.6004    8.3242    1.9897 C   0  0  0  0  0  0  0  0  0  0  0  0
   14.0112    7.0505    1.2528 C   0  0  0  0  0  0  0  0  0  0  0  0
   14.7024    8.8916    2.7694 N   0  0  0  0  0  4  0  0  0  0  0  0
   11.8491    9.7804    3.1220 C   0  0  0  0  0  0  0  0  0  0  0  0
   10.3850   10.0196    3.4833 C   0  0  0  0  0  0  0  0  0  0  0  0
    3.7952    7.5885    0.4590 H   0  0  0  0  0  0  0  0  0  0  0  0
    2.8852    7.5022    2.0122 H   0  0  0  0  0  0  0  0  0  0  0  0
    4.4530    6.5997    1.8160 H   0  0  0  0  0  0  0  0  0  0  0  0
    4.9107    9.4202    1.3581 H   0  0  0  0  0  0  0  0  0  0  0  0
    3.9469    7.2329    4.1510 H   0  0  0  0  0  0  0  0  0  0  0  0
    5.6748   10.9176    3.1703 H   0  0  0  0  0  0  0  0  0  0  0  0
    5.4803   10.4078    4.8717 H   0  0  0  0  0  0  0  0  0  0  0  0
    7.6771    9.5187    4.8541 H   0  0  0  0  0  0  0  0  0  0  0  0
    9.7245    9.5589    1.6135 H   0  0  0  0  0  0  0  0  0  0  0  0
    9.5608    7.2706    3.5428 H   0  0  0  0  0  0  0  0  0  0  0  0
    9.0534    7.2359    1.8222 H   0  0  0  0  0  0  0  0  0  0  0  0
   11.4057    6.3664    2.3245 H   0  0  0  0  0  0  0  0  0  0  0  0
   11.2127    7.5907    1.0342 H   0  0  0  0  0  0  0  0  0  0  0  0
   12.4688    7.8402    3.7471 H   0  0  0  0  0  0  0  0  0  0  0  0
   13.4361    9.0284    1.1410 H   0  0  0  0  0  0  0  0  0  0  0  0
   14.1169    6.2176    1.9793 H   0  0  0  0  0  0  0  0  0  0  0  0
   13.2671    6.7644    0.4813 H   0  0  0  0  0  0  0  0  0  0  0  0
   14.9827    7.1929    0.7333 H   0  0  0  0  0  0  0  0  0  0  0  0
   14.5200    9.8921    3.0077 H   0  0  0  0  0  0  0  0  0  0  0  0
   14.8382    8.3413    3.6482 H   0  0  0  0  0  0  0  0  0  0  0  0
   15.5917    8.8674    2.2193 H   0  0  0  0  0  0  0  0  0  0  0  0
   12.4701   10.1517    3.9662 H   0  0  0  0  0  0  0  0  0  0  0  0
   12.0651   10.4405    2.2529 H   0  0  0  0  0  0  0  0  0  0  0  0
   10.2310    9.7351    4.5470 H   0  0  0  0  0  0  0  0  0  0  0  0
   10.1475   11.1027    3.3868 H   0  0  0  0  0  0  0  0  0  0  0  0
  1  2  1  0
  2  3  1  0
  3  4  2  3
  3  5  1  0
  5  6  1  0
  6  7  1  0
  7  8  2  0
  7  9  1  0
  9 10  1  0
 10 11  1  0
 11 12  1  0
 12 13  1  0
 13 14  1  0
 13 15  1  0
 12 16  1  0
 16 17  1  0
 17  9  1  0
  1 18  1  0
  1 19  1  0
  1 20  1  0
  2 21  1  0
  4 22  1  0
  5 23  1  0
  5 24  1  0
  6 25  1  0
  9 26  1  0
 10 27  1  0
 10 28  1  0
 11 29  1  0
 11 30  1  0
 12 31  1  0
 13 32  1  0
 14 33  1  0
 14 34  1  0
 14 35  1  0
 15 36  1  0
 15 37  1  0
 15 38  1  0
 16 39  1  0
 16 40  1  0
 17 41  1  0
 17 42  1  0
M  CHG  1  15   1
M  END
>  <EmbedRMS>  (144) 
0.30183759959029793

$$$$

     RDKit          3D

 44 44  0  0  0  0  0  0  0  0999 V2000
    4.4368    8.5830    1.3291 C   0  0  0  0  0  0  0  0  0  0  0  0
    5.0041    7.9435    2.5953 C   0  0  0  0  0  0  0  0  0  0  0  0
    4.8218    8.8406    3.8314 C   0  0  0  0  0  0  0  0  0  0  0  0
    5.0607    8.0778    4.9850 O   0  0  0  0  0  0  0  0  0  0  0  0
    5.7382   10.0786    3.8221 C   0  0  0  0  0  0  0  0  0  0  0  0
    7.1400    9.7018    3.9851 N   0  0  0  0  0  0  0  0  0  0  0  0
    8.0161    9.4758    2.8762 C   0  0  0  0  0  0  0  0  0  0  0  0
    7.6206    9.7018    1.6971 O   0  0  0  0  0  0  0  0  0  0  0  0
    9.4217    8.9882    3.1213 C   0  0  0  0  0  0  0  0  0  0  0  0
    9.7820    7.9373    2.0770 C   0  0  0  0  0  0  0  0  0  0  0  0
   11.1456    7.3166    2.3199 C   0  0  0  0  0  0  0  0  0  0  0  0
   12.2326    8.2988    2.7958 C   0  0  0  0  0  0  0  0  0  0  0  0
   13.7098    7.9145    2.4297 C   0  0  0  0  0  0  0  0  0  0  0  0
   13.9319    7.3321    1.0257 C   0  0  0  0  0  0  0  0  0  0  0  0
   14.6485    9.0158    2.6728 N   0  0  0  0  0  4  0  0  0  0  0  0
   11.8869    9.7891    2.9963 C   0  0  0  0  0  0  0  0  0  0  0  0
   10.3956   10.1699    3.0626 C   0  0  0  0  0  0  0  0  0  0  0  0
    4.5001    7.8562    0.4920 H   0  0  0  0  0  0  0  0  0  0  0  0
    3.3701    8.8569    1.4735 H   0  0  0  0  0  0  0  0  0  0  0  0
    5.0123    9.4852    1.0408 H   0  0  0  0  0  0  0  0  0  0  0  0
    4.4494    6.9951    2.7672 H   0  0  0  0  0  0  0  0  0  0  0  0
    6.0677    7.6678    2.4459 H   0  0  0  0  0  0  0  0  0  0  0  0
    3.7631    9.1923    3.8475 H   0  0  0  0  0  0  0  0  0  0  0  0
    4.6708    8.5786    5.7490 H   0  0  0  0  0  0  0  0  0  0  0  0
    5.4504   10.7346    4.6721 H   0  0  0  0  0  0  0  0  0  0  0  0
    5.5946   10.6857    2.9045 H   0  0  0  0  0  0  0  0  0  0  0  0
    7.4935    9.5336    4.9541 H   0  0  0  0  0  0  0  0  0  0  0  0
    9.4806    8.5189    4.1289 H   0  0  0  0  0  0  0  0  0  0  0  0
    9.7829    8.4041    1.0656 H   0  0  0  0  0  0  0  0  0  0  0  0
    9.0162    7.1292    2.0723 H   0  0  0  0  0  0  0  0  0  0  0  0
   11.4280    6.8368    1.3644 H   0  0  0  0  0  0  0  0  0  0  0  0
   11.0321    6.4807    3.0491 H   0  0  0  0  0  0  0  0  0  0  0  0
   12.2360    8.0283    3.8802 H   0  0  0  0  0  0  0  0  0  0  0  0
   14.0067    7.0845    3.1155 H   0  0  0  0  0  0  0  0  0  0  0  0
   13.4426    7.9757    0.2642 H   0  0  0  0  0  0  0  0  0  0  0  0
   15.0163    7.2726    0.7923 H   0  0  0  0  0  0  0  0  0  0  0  0
   13.5342    6.2980    0.9557 H   0  0  0  0  0  0  0  0  0  0  0  0
   14.5097    9.7856    1.9793 H   0  0  0  0  0  0  0  0  0  0  0  0
   14.5408    9.3804    3.6465 H   0  0  0  0  0  0  0  0  0  0  0  0
   15.6316    8.6688    2.5840 H   0  0  0  0  0  0  0  0  0  0  0  0
   12.3173   10.3475    2.1381 H   0  0  0  0  0  0  0  0  0  0  0  0
   12.3926   10.1907    3.9043 H   0  0  0  0  0  0  0  0  0  0  0  0
   10.1563   10.7904    2.1685 H   0  0  0  0  0  0  0  0  0  0  0  0
   10.2223   10.8190    3.9496 H   0  0  0  0  0  0  0  0  0  0  0  0
  1  2  1  0
  2  3  1  0
  3  4  1  0
  3  5  1  0
  5  6  1  0
  6  7  1  0
  7  8  2  0
  7  9  1  0
  9 10  1  0
 10 11  1  0
 11 12  1  0
 12 13  1  0
 13 14  1  0
 13 15  1  0
 12 16  1  0
 16 17  1  0
 17  9  1  0
  1 18  1  0
  1 19  1  0
  1 20  1  0
  2 21  1  0
  2 22  1  0
  3 23  1  0
  4 24  1  0
  5 25  1  0
  5 26  1  0
  6 27  1  0
  9 28  1  0
 10 29  1  0
 10 30  1  0
 11 31  1  0
 11 32  1  0
 12 33  1  0
 13 34  1  0
 14 35  1  0
 14 36  1  0
 14 37  1  0
 15 38  1  0
 15 39  1  0
 15 40  1  0
 16 41  1  0
 16 42  1  0
 17 43  1  0
 17 44  1  0
M  CHG  1  15   1
M  END
>  <EmbedRMS>  (145) 
0.1692382603345377

$$$$

     RDKit          3D

 45 46  0  0  0  0  0  0  0  0999 V2000
   13.9234    7.3284    1.0387 C   0  0  0  0  0  0  0  0  0  0  0  0
   13.7078    7.9211    2.4415 C   0  0  0  0  0  0  0  0  0  0  0  0
   14.6425    9.0270    2.6702 N   0  0  0  0  0  4  0  0  0  0  0  0
   12.2296    8.2935    2.8212 C   0  0  0  0  0  0  0  0  0  0  0  0
   11.1748    7.4151    2.1500 C   0  0  0  0  0  0  0  0  0  0  0  0
    9.7363    7.7236    2.5352 C   0  0  0  0  0  0  0  0  0  0  0  0
    9.4519    9.2036    2.6236 C   0  0  0  0  0  0  0  0  0  0  0  0
    7.9915    9.5358    2.7190 C   0  0  0  0  0  0  0  0  0  0  0  0
    7.4120    9.6818    1.6162 O   0  0  0  0  0  0  0  0  0  0  0  0
    7.2350    9.6955    3.9307 N   0  0  0  0  0  0  0  0  0  0  0  0
    5.8469   10.1791    3.8765 C   0  0  0  0  0  0  0  0  0  0  0  0
    5.8178   11.6565    3.5733 C   0  0  0  0  0  0  0  0  0  0  0  0
    5.5838   12.1324    2.2700 C   0  0  0  0  0  0  0  0  0  0  0  0
    5.6158   13.5065    2.0056 C   0  0  0  0  0  0  0  0  0  0  0  0
    5.8776   14.4125    3.0374 C   0  0  0  0  0  0  0  0  0  0  0  0
    6.1100   13.9476    4.3362 C   0  0  0  0  0  0  0  0  0  0  0  0
    6.3690   14.8561    5.3589 O   0  0  0  0  0  0  0  0  0  0  0  0
    6.0842   12.5728    4.6002 C   0  0  0  0  0  0  0  0  0  0  0  0
   10.4238   10.0509    3.4137 C   0  0  0  0  0  0  0  0  0  0  0  0
   11.8790    9.7843    2.9967 C   0  0  0  0  0  0  0  0  0  0  0  0
   13.3792    6.3675    0.9251 H   0  0  0  0  0  0  0  0  0  0  0  0
   13.5736    8.0448    0.2655 H   0  0  0  0  0  0  0  0  0  0  0  0
   15.0005    7.1188    0.8658 H   0  0  0  0  0  0  0  0  0  0  0  0
   14.0115    7.0971    3.1302 H   0  0  0  0  0  0  0  0  0  0  0  0
   15.6234    8.7092    2.4930 H   0  0  0  0  0  0  0  0  0  0  0  0
   14.5979    9.3372    3.6676 H   0  0  0  0  0  0  0  0  0  0  0  0
   14.4336    9.8275    2.0307 H   0  0  0  0  0  0  0  0  0  0  0  0
   12.1629    7.9506    3.8811 H   0  0  0  0  0  0  0  0  0  0  0  0
   11.3811    6.3420    2.3598 H   0  0  0  0  0  0  0  0  0  0  0  0
   11.2480    7.5622    1.0509 H   0  0  0  0  0  0  0  0  0  0  0  0
    9.0518    7.2388    1.8032 H   0  0  0  0  0  0  0  0  0  0  0  0
    9.5317    7.2730    3.5310 H   0  0  0  0  0  0  0  0  0  0  0  0
    9.7032    9.5358    1.5855 H   0  0  0  0  0  0  0  0  0  0  0  0
    7.6851    9.5036    4.8534 H   0  0  0  0  0  0  0  0  0  0  0  0
    5.3598    9.9973    4.8591 H   0  0  0  0  0  0  0  0  0  0  0  0
    5.2687    9.6024    3.1218 H   0  0  0  0  0  0  0  0  0  0  0  0
    5.3778   11.4425    1.4617 H   0  0  0  0  0  0  0  0  0  0  0  0
    5.4362   13.8681    1.0014 H   0  0  0  0  0  0  0  0  0  0  0  0
    5.8995   15.4745    2.8286 H   0  0  0  0  0  0  0  0  0  0  0  0
    6.5423   14.5501    6.3093 H   0  0  0  0  0  0  0  0  0  0  0  0
    6.2787   12.2178    5.6051 H   0  0  0  0  0  0  0  0  0  0  0  0
   10.1917   11.1307    3.2792 H   0  0  0  0  0  0  0  0  0  0  0  0
   10.3070    9.8091    4.4923 H   0  0  0  0  0  0  0  0  0  0  0  0
   12.5374   10.2609    3.7534 H   0  0  0  0  0  0  0  0  0  0  0  0
   12.0585   10.2955    2.0260 H   0  0  0  0  0  0  0  0  0  0  0  0
  1  2  1  0
  2  3  1  0
  2  4  1  0
  4  5  1  0
  5  6  1  0
  6  7  1  0
  7  8  1  0
  8  9  2  0
  8 10  1  0
 10 11  1  0
 11 12  1  0
 12 13  2  0
 13 14  1  0
 14 15  2  0
 15 16  1  0
 16 17  1  0
 16 18  2  0
  7 19  1  0
 19 20  1  0
 20  4  1  0
 18 12  1  0
  1 21  1  0
  1 22  1  0
  1 23  1  0
  2 24  1  0
  3 25  1  0
  3 26  1  0
  3 27  1  0
  4 28  1  0
  5 29  1  0
  5 30  1  0
  6 31  1  0
  6 32  1  0
  7 33  1  0
 10 34  1  0
 11 35  1  0
 11 36  1  0
 13 37  1  0
 14 38  1  0
 15 39  1  0
 17 40  1  0
 18 41  1  0
 19 42  1  0
 19 43  1  0
 20 44  1  0
 20 45  1  0
M  CHG  1   3   1
M  END
>  <EmbedRMS>  (146) 
0.24874902131530774

$$$$

     RDKit          3D

 47 48  0  0  0  0  0  0  0  0999 V2000
    3.3550    7.5261    0.2387 C   0  0  0  0  0  0  0  0  0  0  0  0
    3.7591    7.6796    1.6740 C   0  0  0  0  0  0  0  0  0  0  0  0
    3.4093    6.6971    2.6112 C   0  0  0  0  0  0  0  0  0  0  0  0
    3.8066    6.8249    3.9436 C   0  0  0  0  0  0  0  0  0  0  0  0
    4.5708    7.9221    4.3466 C   0  0  0  0  0  0  0  0  0  0  0  0
    4.9400    8.9082    3.4207 C   0  0  0  0  0  0  0  0  0  0  0  0
    5.8031   10.0620    3.8692 C   0  0  0  0  0  0  0  0  0  0  0  0
    7.2179    9.6630    3.9265 N   0  0  0  0  0  0  0  0  0  0  0  0
    7.9878    9.5377    2.7183 C   0  0  0  0  0  0  0  0  0  0  0  0
    7.4195    9.7037    1.6128 O   0  0  0  0  0  0  0  0  0  0  0  0
    9.4506    9.2137    2.6347 C   0  0  0  0  0  0  0  0  0  0  0  0
    9.7340    7.7427    2.3734 C   0  0  0  0  0  0  0  0  0  0  0  0
   11.1976    7.3493    2.5402 C   0  0  0  0  0  0  0  0  0  0  0  0
   12.1819    8.5080    2.2955 C   0  0  0  0  0  0  0  0  0  0  0  0
   13.6459    7.9624    2.3850 C   0  0  0  0  0  0  0  0  0  0  0  0
   14.0279    7.2300    1.0859 C   0  0  0  0  0  0  0  0  0  0  0  0
   14.6271    9.0243    2.6471 N   0  0  0  0  0  4  0  0  0  0  0  0
   11.8957    9.6374    3.3177 C   0  0  0  0  0  0  0  0  0  0  0  0
   10.4177   10.0733    3.4266 C   0  0  0  0  0  0  0  0  0  0  0  0
    4.5324    8.7801    2.0799 C   0  0  0  0  0  0  0  0  0  0  0  0
    3.2257    8.5199   -0.2406 H   0  0  0  0  0  0  0  0  0  0  0  0
    4.1392    6.9607   -0.3066 H   0  0  0  0  0  0  0  0  0  0  0  0
    2.3914    6.9791    0.1583 H   0  0  0  0  0  0  0  0  0  0  0  0
    2.8281    5.8337    2.3113 H   0  0  0  0  0  0  0  0  0  0  0  0
    3.5310    6.0656    4.6641 H   0  0  0  0  0  0  0  0  0  0  0  0
    4.8834    7.9981    5.3809 H   0  0  0  0  0  0  0  0  0  0  0  0
    5.4772   10.3905    4.8801 H   0  0  0  0  0  0  0  0  0  0  0  0
    5.6805   10.9383    3.1956 H   0  0  0  0  0  0  0  0  0  0  0  0
    7.6767    9.5107    4.8522 H   0  0  0  0  0  0  0  0  0  0  0  0
    9.7114    9.6194    1.6251 H   0  0  0  0  0  0  0  0  0  0  0  0
    9.1282    7.1304    3.0776 H   0  0  0  0  0  0  0  0  0  0  0  0
    9.3937    7.4684    1.3478 H   0  0  0  0  0  0  0  0  0  0  0  0
   11.3436    6.9693    3.5766 H   0  0  0  0  0  0  0  0  0  0  0  0
   11.3979    6.4993    1.8571 H   0  0  0  0  0  0  0  0  0  0  0  0
   12.0116    8.9214    1.2757 H   0  0  0  0  0  0  0  0  0  0  0  0
   13.7142    7.2275    3.2200 H   0  0  0  0  0  0  0  0  0  0  0  0
   13.9578    7.9167    0.2154 H   0  0  0  0  0  0  0  0  0  0  0  0
   13.3807    6.3497    0.9044 H   0  0  0  0  0  0  0  0  0  0  0  0
   15.0712    6.8547    1.1520 H   0  0  0  0  0  0  0  0  0  0  0  0
   14.5143    9.3994    3.6160 H   0  0  0  0  0  0  0  0  0  0  0  0
   14.5262    9.7975    1.9495 H   0  0  0  0  0  0  0  0  0  0  0  0
   15.5988    8.6418    2.5850 H   0  0  0  0  0  0  0  0  0  0  0  0
   12.2339    9.3016    4.3236 H   0  0  0  0  0  0  0  0  0  0  0  0
   12.4948   10.5349    3.0515 H   0  0  0  0  0  0  0  0  0  0  0  0
   10.1188   10.0277    4.4963 H   0  0  0  0  0  0  0  0  0  0  0  0
   10.3156   11.1402    3.1210 H   0  0  0  0  0  0  0  0  0  0  0  0
    4.8107    9.5360    1.3560 H   0  0  0  0  0  0  0  0  0  0  0  0
  1  2  1  0
  2  3  2  0
  3  4  1  0
  4  5  2  0
  5  6  1  0
  6  7  1  0
  7  8  1  0
  8  9  1  0
  9 10  2  0
  9 11  1  0
 11 12  1  0
 12 13  1  0
 13 14  1  0
 14 15  1  0
 15 16  1  0
 15 17  1  0
 14 18  1  0
 18 19  1  0
  6 20  2  0
 20  2  1  0
 19 11  1  0
  1 21  1  0
  1 22  1  0
  1 23  1  0
  3 24  1  0
  4 25  1  0
  5 26  1  0
  7 27  1  0
  7 28  1  0
  8 29  1  0
 11 30  1  0
 12 31  1  0
 12 32  1  0
 13 33  1  0
 13 34  1  0
 14 35  1  0
 15 36  1  0
 16 37  1  0
 16 38  1  0
 16 39  1  0
 17 40  1  0
 17 41  1  0
 17 42  1  0
 18 43  1  0
 18 44  1  0
 19 45  1  0
 19 46  1  0
 20 47  1  0
M  CHG  1  17   1
M  END
>  <EmbedRMS>  (147) 
0.16810927383701896

$$$$

     RDKit          3D

 47 48  0  0  0  0  0  0  0  0999 V2000
    4.7298   11.2329    1.2004 C   0  0  0  0  0  0  0  0  0  0  0  0
    5.3138   12.1441    2.2473 C   0  0  0  0  0  0  0  0  0  0  0  0
    5.3511   13.5258    1.9941 C   0  0  0  0  0  0  0  0  0  0  0  0
    5.8452   14.4116    2.9519 C   0  0  0  0  0  0  0  0  0  0  0  0
    6.3088   13.9314    4.1756 C   0  0  0  0  0  0  0  0  0  0  0  0
    6.2820   12.5622    4.4445 C   0  0  0  0  0  0  0  0  0  0  0  0
    5.7871   11.6542    3.4906 C   0  0  0  0  0  0  0  0  0  0  0  0
    5.7789   10.1855    3.8378 C   0  0  0  0  0  0  0  0  0  0  0  0
    7.1442    9.6952    3.9866 N   0  0  0  0  0  0  0  0  0  0  0  0
    8.0145    9.4670    2.8714 C   0  0  0  0  0  0  0  0  0  0  0  0
    7.6166    9.6840    1.6942 O   0  0  0  0  0  0  0  0  0  0  0  0
    9.4183    8.9869    3.1124 C   0  0  0  0  0  0  0  0  0  0  0  0
    9.8000    7.9217    2.0865 C   0  0  0  0  0  0  0  0  0  0  0  0
   11.1597    7.3122    2.3949 C   0  0  0  0  0  0  0  0  0  0  0  0
   12.2765    8.3218    2.7732 C   0  0  0  0  0  0  0  0  0  0  0  0
   13.5815    8.3570    1.9537 C   0  0  0  0  0  0  0  0  0  0  0  0
   13.9847    7.0983    1.1858 C   0  0  0  0  0  0  0  0  0  0  0  0
   14.7119    8.8840    2.7305 N   0  0  0  0  0  4  0  0  0  0  0  0
   11.8334    9.7200    3.3034 C   0  0  0  0  0  0  0  0  0  0  0  0
   10.3978   10.1508    3.0099 C   0  0  0  0  0  0  0  0  0  0  0  0
    4.4124   11.7976    0.2980 H   0  0  0  0  0  0  0  0  0  0  0  0
    5.4669   10.4782    0.8713 H   0  0  0  0  0  0  0  0  0  0  0  0
    3.8312   10.7231    1.6067 H   0  0  0  0  0  0  0  0  0  0  0  0
    4.9903   13.9248    1.0540 H   0  0  0  0  0  0  0  0  0  0  0  0
    5.8669   15.4740    2.7457 H   0  0  0  0  0  0  0  0  0  0  0  0
    6.6911   14.6209    4.9172 H   0  0  0  0  0  0  0  0  0  0  0  0
    6.6471   12.2062    5.4002 H   0  0  0  0  0  0  0  0  0  0  0  0
    5.2408   10.0581    4.8023 H   0  0  0  0  0  0  0  0  0  0  0  0
    5.2411    9.5570    3.1005 H   0  0  0  0  0  0  0  0  0  0  0  0
    7.4942    9.5033    4.9525 H   0  0  0  0  0  0  0  0  0  0  0  0
    9.4800    8.5436    4.1320 H   0  0  0  0  0  0  0  0  0  0  0  0
    9.8282    8.3622    1.0643 H   0  0  0  0  0  0  0  0  0  0  0  0
    9.0370    7.1114    2.0823 H   0  0  0  0  0  0  0  0  0  0  0  0
   11.0073    6.5945    3.2346 H   0  0  0  0  0  0  0  0  0  0  0  0
   11.4423    6.6852    1.5293 H   0  0  0  0  0  0  0  0  0  0  0  0
   12.6582    7.8402    3.7046 H   0  0  0  0  0  0  0  0  0  0  0  0
   13.3817    9.1007    1.1482 H   0  0  0  0  0  0  0  0  0  0  0  0
   13.9865    6.2212    1.8669 H   0  0  0  0  0  0  0  0  0  0  0  0
   15.0016    7.2109    0.7533 H   0  0  0  0  0  0  0  0  0  0  0  0
   13.2944    6.9112    0.3366 H   0  0  0  0  0  0  0  0  0  0  0  0
   14.4926    9.7904    3.1970 H   0  0  0  0  0  0  0  0  0  0  0  0
   15.5297    9.0532    2.1003 H   0  0  0  0  0  0  0  0  0  0  0  0
   14.9949    8.1903    3.4606 H   0  0  0  0  0  0  0  0  0  0  0  0
   12.4767   10.5266    2.8940 H   0  0  0  0  0  0  0  0  0  0  0  0
   11.9705    9.7524    4.4087 H   0  0  0  0  0  0  0  0  0  0  0  0
   10.1059   10.9525    3.7245 H   0  0  0  0  0  0  0  0  0  0  0  0
   10.3530   10.5869    1.9861 H   0  0  0  0  0  0  0  0  0  0  0  0
  1  2  1  0
  2  3  2  0
  3  4  1  0
  4  5  2  0
  5  6  1  0
  6  7  2  0
  7  8  1  0
  8  9  1  0
  9 10  1  0
 10 11  2  0
 10 12  1  0
 12 13  1  0
 13 14  1  0
 14 15  1  0
 15 16  1  0
 16 17  1  0
 16 18  1  0
 15 19  1  0
 19 20  1  0
  7  2  1  0
 20 12  1  0
  1 21  1  0
  1 22  1  0
  1 23  1  0
  3 24  1  0
  4 25  1  0
  5 26  1  0
  6 27  1  0
  8 28  1  0
  8 29  1  0
  9 30  1  0
 12 31  1  0
 13 32  1  0
 13 33  1  0
 14 34  1  0
 14 35  1  0
 15 36  1  0
 16 37  1  0
 17 38  1  0
 17 39  1  0
 17 40  1  0
 18 41  1  0
 18 42  1  0
 18 43  1  0
 19 44  1  0
 19 45  1  0
 20 46  1  0
 20 47  1  0
M  CHG  1  18   1
M  END
>  <EmbedRMS>  (148) 
0.19204016474732244

$$$$

     RDKit          3D

 47 47  0  0  0  0  0  0  0  0999 V2000
   13.9859    7.0985    1.1846 C   0  0  0  0  0  0  0  0  0  0  0  0
   13.5829    8.3569    1.9531 C   0  0  0  0  0  0  0  0  0  0  0  0
   14.7135    8.8833    2.7299 N   0  0  0  0  0  4  0  0  0  0  0  0
   12.2786    8.3206    2.7729 C   0  0  0  0  0  0  0  0  0  0  0  0
   11.1621    7.3105    2.3946 C   0  0  0  0  0  0  0  0  0  0  0  0
    9.8047    7.9206    2.0793 C   0  0  0  0  0  0  0  0  0  0  0  0
    9.4232    8.9861    3.1024 C   0  0  0  0  0  0  0  0  0  0  0  0
    8.0212    9.4644    2.8613 C   0  0  0  0  0  0  0  0  0  0  0  0
    7.6145    9.6879    1.6862 O   0  0  0  0  0  0  0  0  0  0  0  0
    7.1607    9.6893    3.9799 N   0  0  0  0  0  0  0  0  0  0  0  0
    5.7852   10.1287    3.8246 C   0  0  0  0  0  0  0  0  0  0  0  0
    4.9080    8.9591    3.3359 C   0  0  0  0  0  0  0  0  0  0  0  0
    3.4985    9.3344    3.0931 N   0  0  0  0  0  0  0  0  0  0  0  0
    3.3807   10.3552    2.0401 C   0  0  0  0  0  0  0  0  0  0  0  0
    2.7823    9.7672    4.3098 C   0  0  0  0  0  0  0  0  0  0  0  0
    2.4760    8.6187    5.1529 N   0  0  0  0  0  0  0  0  0  0  0  0
   10.4019   10.1502    3.0044 C   0  0  0  0  0  0  0  0  0  0  0  0
   11.8353    9.7184    3.3039 C   0  0  0  0  0  0  0  0  0  0  0  0
   13.9884    6.2212    1.8654 H   0  0  0  0  0  0  0  0  0  0  0  0
   15.0025    7.2115    0.7515 H   0  0  0  0  0  0  0  0  0  0  0  0
   13.2951    6.9116    0.3358 H   0  0  0  0  0  0  0  0  0  0  0  0
   13.3827    9.1011    1.1481 H   0  0  0  0  0  0  0  0  0  0  0  0
   14.4948    9.7892    3.1976 H   0  0  0  0  0  0  0  0  0  0  0  0
   15.5310    9.0531    2.0995 H   0  0  0  0  0  0  0  0  0  0  0  0
   14.9970    8.1889    3.4591 H   0  0  0  0  0  0  0  0  0  0  0  0
   12.6610    7.8387    3.7038 H   0  0  0  0  0  0  0  0  0  0  0  0
   11.0058    6.5967    3.2370 H   0  0  0  0  0  0  0  0  0  0  0  0
   11.4468    6.6789    1.5330 H   0  0  0  0  0  0  0  0  0  0  0  0
    9.8372    8.3603    1.0569 H   0  0  0  0  0  0  0  0  0  0  0  0
    9.0406    7.1112    2.0736 H   0  0  0  0  0  0  0  0  0  0  0  0
    9.4833    8.5417    4.1219 H   0  0  0  0  0  0  0  0  0  0  0  0
    7.5446    9.5919    4.9473 H   0  0  0  0  0  0  0  0  0  0  0  0
    5.4416   10.4896    4.8132 H   0  0  0  0  0  0  0  0  0  0  0  0
    5.7602   10.9845    3.1189 H   0  0  0  0  0  0  0  0  0  0  0  0
    5.3337    8.5401    2.3986 H   0  0  0  0  0  0  0  0  0  0  0  0
    4.9549    8.1347    4.0786 H   0  0  0  0  0  0  0  0  0  0  0  0
    2.3395   10.3673    1.6533 H   0  0  0  0  0  0  0  0  0  0  0  0
    3.6209   11.3716    2.4224 H   0  0  0  0  0  0  0  0  0  0  0  0
    4.0433   10.1189    1.1792 H   0  0  0  0  0  0  0  0  0  0  0  0
    1.8103   10.2277    4.0166 H   0  0  0  0  0  0  0  0  0  0  0  0
    3.3189   10.5492    4.8833 H   0  0  0  0  0  0  0  0  0  0  0  0
    1.7499    8.9124    5.8462 H   0  0  0  0  0  0  0  0  0  0  0  0
    3.3276    8.3876    5.7133 H   0  0  0  0  0  0  0  0  0  0  0  0
   10.3616   10.5862    1.9804 H   0  0  0  0  0  0  0  0  0  0  0  0
   10.1076   10.9516    3.7184 H   0  0  0  0  0  0  0  0  0  0  0  0
   12.4809   10.5254    2.8991 H   0  0  0  0  0  0  0  0  0  0  0  0
   11.9671    9.7483    4.4099 H   0  0  0  0  0  0  0  0  0  0  0  0
  1  2  1  0
  2  3  1  0
  2  4  1  0
  4  5  1  0
  5  6  1  0
  6  7  1  0
  7  8  1  0
  8  9  2  0
  8 10  1  0
 10 11  1  0
 11 12  1  0
 12 13  1  0
 13 14  1  0
 13 15  1  0
 15 16  1  0
  7 17  1  0
 17 18  1  0
 18  4  1  0
  1 19  1  0
  1 20  1  0
  1 21  1  0
  2 22  1  0
  3 23  1  0
  3 24  1  0
  3 25  1  0
  4 26  1  0
  5 27  1  0
  5 28  1  0
  6 29  1  0
  6 30  1  0
  7 31  1  0
 10 32  1  0
 11 33  1  0
 11 34  1  0
 12 35  1  0
 12 36  1  0
 14 37  1  0
 14 38  1  0
 14 39  1  0
 15 40  1  0
 15 41  1  0
 16 42  1  0
 16 43  1  0
 17 44  1  0
 17 45  1  0
 18 46  1  0
 18 47  1  0
M  CHG  1   3   1
M  END
>  <EmbedRMS>  (149) 
0.20589076450161456

$$$$

     RDKit          3D

 44 44  0  0  0  0  0  0  0  0999 V2000
    4.4064   12.2531    4.2498 C   0  0  0  0  0  0  0  0  0  0  0  0
    5.8266   11.7486    3.9808 C   0  0  0  0  0  0  0  0  0  0  0  0
    5.8548   10.2090    3.8957 C   0  0  0  0  0  0  0  0  0  0  0  0
    7.2354    9.7014    3.9320 N   0  0  0  0  0  0  0  0  0  0  0  0
    7.9881    9.5295    2.7199 C   0  0  0  0  0  0  0  0  0  0  0  0
    7.4116    9.6735    1.6153 O   0  0  0  0  0  0  0  0  0  0  0  0
    9.4496    9.2045    2.6326 C   0  0  0  0  0  0  0  0  0  0  0  0
    9.7437    7.7284    2.5428 C   0  0  0  0  0  0  0  0  0  0  0  0
   11.1788    7.4404    2.1344 C   0  0  0  0  0  0  0  0  0  0  0  0
   12.2608    8.3279    2.7668 C   0  0  0  0  0  0  0  0  0  0  0  0
   13.6004    8.3244    1.9897 C   0  0  0  0  0  0  0  0  0  0  0  0
   14.0110    7.0505    1.2531 C   0  0  0  0  0  0  0  0  0  0  0  0
   14.7022    8.8917    2.7697 N   0  0  0  0  0  4  0  0  0  0  0  0
   11.8489    9.7817    3.1205 C   0  0  0  0  0  0  0  0  0  0  0  0
   10.3845   10.0221    3.4799 C   0  0  0  0  0  0  0  0  0  0  0  0
    6.3738   12.3961    2.7325 C   0  0  0  0  0  0  0  0  0  0  0  0
    7.5853   13.1487    2.7860 N   0  0  0  0  0  0  0  0  0  0  0  0
    5.7637   12.2799    1.6344 O   0  0  0  0  0  0  0  0  0  0  0  0
    4.0324   11.8490    5.2147 H   0  0  0  0  0  0  0  0  0  0  0  0
    4.3997   13.3625    4.3157 H   0  0  0  0  0  0  0  0  0  0  0  0
    3.7153   11.9361    3.4391 H   0  0  0  0  0  0  0  0  0  0  0  0
    6.4495   12.0531    4.8510 H   0  0  0  0  0  0  0  0  0  0  0  0
    5.3133    9.7864    4.7700 H   0  0  0  0  0  0  0  0  0  0  0  0
    5.3215    9.8509    2.9877 H   0  0  0  0  0  0  0  0  0  0  0  0
    7.7088    9.5720    4.8539 H   0  0  0  0  0  0  0  0  0  0  0  0
    9.7210    9.5631    1.6087 H   0  0  0  0  0  0  0  0  0  0  0  0
    9.5598    7.2746    3.5411 H   0  0  0  0  0  0  0  0  0  0  0  0
    9.0536    7.2376    1.8201 H   0  0  0  0  0  0  0  0  0  0  0  0
   11.2133    7.5915    1.0333 H   0  0  0  0  0  0  0  0  0  0  0  0
   11.4046    6.3677    2.3244 H   0  0  0  0  0  0  0  0  0  0  0  0
   12.4677    7.8415    3.7468 H   0  0  0  0  0  0  0  0  0  0  0  0
   13.4366    9.0285    1.1408 H   0  0  0  0  0  0  0  0  0  0  0  0
   14.1164    6.2177    1.9798 H   0  0  0  0  0  0  0  0  0  0  0  0
   13.2672    6.7645    0.4814 H   0  0  0  0  0  0  0  0  0  0  0  0
   14.9828    7.1926    0.7338 H   0  0  0  0  0  0  0  0  0  0  0  0
   14.8376    8.3414    3.6486 H   0  0  0  0  0  0  0  0  0  0  0  0
   14.5199    9.8922    3.0078 H   0  0  0  0  0  0  0  0  0  0  0  0
   15.5917    8.8671    2.2199 H   0  0  0  0  0  0  0  0  0  0  0  0
   12.4693   10.1530    3.9652 H   0  0  0  0  0  0  0  0  0  0  0  0
   12.0661   10.4414    2.2515 H   0  0  0  0  0  0  0  0  0  0  0  0
   10.2298    9.7380    4.5436 H   0  0  0  0  0  0  0  0  0  0  0  0
   10.1474   11.1054    3.3830 H   0  0  0  0  0  0  0  0  0  0  0  0
    8.1186   13.2465    3.6782 H   0  0  0  0  0  0  0  0  0  0  0  0
    7.9639   13.5967    1.9222 H   0  0  0  0  0  0  0  0  0  0  0  0
  1  2  1  0
  2  3  1  0
  3  4  1  0
  4  5  1  0
  5  6  2  0
  5  7  1  0
  7  8  1  0
  8  9  1  0
  9 10  1  0
 10 11  1  0
 11 12  1  0
 11 13  1  0
 10 14  1  0
 14 15  1  0
  2 16  1  0
 16 17  1  0
 16 18  2  0
 15  7  1  0
  1 19  1  0
  1 20  1  0
  1 21  1  0
  2 22  1  0
  3 23  1  0
  3 24  1  0
  4 25  1  0
  7 26  1  0
  8 27  1  0
  8 28  1  0
  9 29  1  0
  9 30  1  0
 10 31  1  0
 11 32  1  0
 12 33  1  0
 12 34  1  0
 12 35  1  0
 13 36  1  0
 13 37  1  0
 13 38  1  0
 14 39  1  0
 14 40  1  0
 15 41  1  0
 15 42  1  0
 17 43  1  0
 17 44  1  0
M  CHG  1  13   1
M  END
>  <EmbedRMS>  (150) 
0.29404078451179205

$$$$

     RDKit          3D

 40 40  0  0  0  0  0  0  0  0999 V2000
   13.9329    7.3325    1.0256 C   0  0  0  0  0  0  0  0  0  0  0  0
   13.7105    7.9149    2.4295 C   0  0  0  0  0  0  0  0  0  0  0  0
   14.6487    9.0165    2.6728 N   0  0  0  0  0  4  0  0  0  0  0  0
   12.2334    8.2987    2.7955 C   0  0  0  0  0  0  0  0  0  0  0  0
   11.1474    7.3153    2.3198 C   0  0  0  0  0  0  0  0  0  0  0  0
    9.7855    7.9363    2.0713 C   0  0  0  0  0  0  0  0  0  0  0  0
    9.4223    8.9847    3.1156 C   0  0  0  0  0  0  0  0  0  0  0  0
    8.0144    9.4669    2.8721 C   0  0  0  0  0  0  0  0  0  0  0  0
    7.6087    9.6862    1.6951 O   0  0  0  0  0  0  0  0  0  0  0  0
    7.1483    9.6996    3.9827 N   0  0  0  0  0  0  0  0  0  0  0  0
    5.7687   10.1321    3.7956 C   0  0  0  0  0  0  0  0  0  0  0  0
    5.1029   10.2810    5.1238 C   0  0  0  0  0  0  0  0  0  0  0  0
    4.4834    9.3035    5.6225 O   0  0  0  0  0  0  0  0  0  0  0  0
    5.2360   11.5013    5.8573 N   0  0  0  0  0  0  0  0  0  0  0  0
    4.6516   11.6423    7.1252 N   0  0  0  0  0  0  0  0  0  0  0  0
   10.3943   10.1684    3.0613 C   0  0  0  0  0  0  0  0  0  0  0  0
   11.8862    9.7890    2.9949 C   0  0  0  0  0  0  0  0  0  0  0  0
   13.5375    6.2975    0.9560 H   0  0  0  0  0  0  0  0  0  0  0  0
   15.0173    7.2752    0.7914 H   0  0  0  0  0  0  0  0  0  0  0  0
   13.4419    7.9749    0.2642 H   0  0  0  0  0  0  0  0  0  0  0  0
   14.0077    7.0850    3.1154 H   0  0  0  0  0  0  0  0  0  0  0  0
   14.5407    9.3810    3.6465 H   0  0  0  0  0  0  0  0  0  0  0  0
   15.6320    8.6700    2.5840 H   0  0  0  0  0  0  0  0  0  0  0  0
   14.5096    9.7863    1.9794 H   0  0  0  0  0  0  0  0  0  0  0  0
   12.2370    8.0291    3.8801 H   0  0  0  0  0  0  0  0  0  0  0  0
   11.0312    6.4819    3.0515 H   0  0  0  0  0  0  0  0  0  0  0  0
   11.4317    6.8319    1.3667 H   0  0  0  0  0  0  0  0  0  0  0  0
    9.7908    8.4052    1.0608 H   0  0  0  0  0  0  0  0  0  0  0  0
    9.0203    7.1279    2.0620 H   0  0  0  0  0  0  0  0  0  0  0  0
    9.4828    8.5130    4.1221 H   0  0  0  0  0  0  0  0  0  0  0  0
    7.5230    9.5520    4.9484 H   0  0  0  0  0  0  0  0  0  0  0  0
    5.7508   11.1040    3.2571 H   0  0  0  0  0  0  0  0  0  0  0  0
    5.2220    9.3807    3.1854 H   0  0  0  0  0  0  0  0  0  0  0  0
    5.8097   12.2803    5.4597 H   0  0  0  0  0  0  0  0  0  0  0  0
    4.9264   12.5791    7.4995 H   0  0  0  0  0  0  0  0  0  0  0  0
    3.6158   11.6688    6.9865 H   0  0  0  0  0  0  0  0  0  0  0  0
   10.2194   10.8143    3.9503 H   0  0  0  0  0  0  0  0  0  0  0  0
   10.1542   10.7911    2.1690 H   0  0  0  0  0  0  0  0  0  0  0  0
   12.3156   10.3469    2.1358 H   0  0  0  0  0  0  0  0  0  0  0  0
   12.3920   10.1921    3.9022 H   0  0  0  0  0  0  0  0  0  0  0  0
  1  2  1  0
  2  3  1  0
  2  4  1  0
  4  5  1  0
  5  6  1  0
  6  7  1  0
  7  8  1  0
  8  9  2  0
  8 10  1  0
 10 11  1  0
 11 12  1  0
 12 13  2  0
 12 14  1  0
 14 15  1  0
  7 16  1  0
 16 17  1  0
 17  4  1  0
  1 18  1  0
  1 19  1  0
  1 20  1  0
  2 21  1  0
  3 22  1  0
  3 23  1  0
  3 24  1  0
  4 25  1  0
  5 26  1  0
  5 27  1  0
  6 28  1  0
  6 29  1  0
  7 30  1  0
 10 31  1  0
 11 32  1  0
 11 33  1  0
 14 34  1  0
 15 35  1  0
 15 36  1  0
 16 37  1  0
 16 38  1  0
 17 39  1  0
 17 40  1  0
M  CHG  1   3   1
M  END
>  <EmbedRMS>  (151) 
0.16865104847114704

$$$$

     RDKit          3D

 45 46  0  0  0  0  0  0  0  0999 V2000
   13.9234    7.3284    1.0387 C   0  0  0  0  0  0  0  0  0  0  0  0
   13.7078    7.9211    2.4415 C   0  0  0  0  0  0  0  0  0  0  0  0
   14.6425    9.0270    2.6702 N   0  0  0  0  0  4  0  0  0  0  0  0
   12.2296    8.2935    2.8212 C   0  0  0  0  0  0  0  0  0  0  0  0
   11.1748    7.4151    2.1500 C   0  0  0  0  0  0  0  0  0  0  0  0
    9.7363    7.7236    2.5352 C   0  0  0  0  0  0  0  0  0  0  0  0
    9.4519    9.2036    2.6236 C   0  0  0  0  0  0  0  0  0  0  0  0
    7.9915    9.5358    2.7190 C   0  0  0  0  0  0  0  0  0  0  0  0
    7.4120    9.6818    1.6162 O   0  0  0  0  0  0  0  0  0  0  0  0
    7.2350    9.6955    3.9307 N   0  0  0  0  0  0  0  0  0  0  0  0
    5.8469   10.1791    3.8765 C   0  0  0  0  0  0  0  0  0  0  0  0
    5.8178   11.6565    3.5733 C   0  0  0  0  0  0  0  0  0  0  0  0
    5.5838   12.1324    2.2700 C   0  0  0  0  0  0  0  0  0  0  0  0
    5.6158   13.5065    2.0056 C   0  0  0  0  0  0  0  0  0  0  0  0
    5.8776   14.4125    3.0374 C   0  0  0  0  0  0  0  0  0  0  0  0
    6.1100   13.9476    4.3362 C   0  0  0  0  0  0  0  0  0  0  0  0
    6.3690   14.8561    5.3589 O   0  0  0  0  0  0  0  0  0  0  0  0
    6.0842   12.5728    4.6002 C   0  0  0  0  0  0  0  0  0  0  0  0
   10.4238   10.0509    3.4137 C   0  0  0  0  0  0  0  0  0  0  0  0
   11.8790    9.7843    2.9967 C   0  0  0  0  0  0  0  0  0  0  0  0
   13.3792    6.3675    0.9251 H   0  0  0  0  0  0  0  0  0  0  0  0
   13.5736    8.0448    0.2655 H   0  0  0  0  0  0  0  0  0  0  0  0
   15.0005    7.1188    0.8658 H   0  0  0  0  0  0  0  0  0  0  0  0
   14.0115    7.0971    3.1302 H   0  0  0  0  0  0  0  0  0  0  0  0
   15.6234    8.7092    2.4930 H   0  0  0  0  0  0  0  0  0  0  0  0
   14.5979    9.3372    3.6676 H   0  0  0  0  0  0  0  0  0  0  0  0
   14.4336    9.8275    2.0307 H   0  0  0  0  0  0  0  0  0  0  0  0
   12.1629    7.9506    3.8811 H   0  0  0  0  0  0  0  0  0  0  0  0
   11.3811    6.3420    2.3598 H   0  0  0  0  0  0  0  0  0  0  0  0
   11.2480    7.5622    1.0509 H   0  0  0  0  0  0  0  0  0  0  0  0
    9.0518    7.2388    1.8032 H   0  0  0  0  0  0  0  0  0  0  0  0
    9.5317    7.2730    3.5310 H   0  0  0  0  0  0  0  0  0  0  0  0
    9.7032    9.5358    1.5855 H   0  0  0  0  0  0  0  0  0  0  0  0
    7.6851    9.5036    4.8534 H   0  0  0  0  0  0  0  0  0  0  0  0
    5.3598    9.9973    4.8591 H   0  0  0  0  0  0  0  0  0  0  0  0
    5.2687    9.6024    3.1218 H   0  0  0  0  0  0  0  0  0  0  0  0
    5.3778   11.4425    1.4617 H   0  0  0  0  0  0  0  0  0  0  0  0
    5.4362   13.8681    1.0014 H   0  0  0  0  0  0  0  0  0  0  0  0
    5.8995   15.4745    2.8286 H   0  0  0  0  0  0  0  0  0  0  0  0
    6.5423   14.5501    6.3093 H   0  0  0  0  0  0  0  0  0  0  0  0
    6.2787   12.2178    5.6051 H   0  0  0  0  0  0  0  0  0  0  0  0
   10.1917   11.1307    3.2792 H   0  0  0  0  0  0  0  0  0  0  0  0
   10.3070    9.8091    4.4923 H   0  0  0  0  0  0  0  0  0  0  0  0
   12.5374   10.2609    3.7534 H   0  0  0  0  0  0  0  0  0  0  0  0
   12.0585   10.2955    2.0260 H   0  0  0  0  0  0  0  0  0  0  0  0
  1  2  1  0
  2  3  1  0
  2  4  1  0
  4  5  1  0
  5  6  1  0
  6  7  1  0
  7  8  1  0
  8  9  2  0
  8 10  1  0
 10 11  1  0
 11 12  1  0
 12 13  2  0
 13 14  1  0
 14 15  2  0
 15 16  1  0
 16 17  1  0
 16 18  2  0
  7 19  1  0
 19 20  1  0
 20  4  1  0
 18 12  1  0
  1 21  1  0
  1 22  1  0
  1 23  1  0
  2 24  1  0
  3 25  1  0
  3 26  1  0
  3 27  1  0
  4 28  1  0
  5 29  1  0
  5 30  1  0
  6 31  1  0
  6 32  1  0
  7 33  1  0
 10 34  1  0
 11 35  1  0
 11 36  1  0
 13 37  1  0
 14 38  1  0
 15 39  1  0
 17 40  1  0
 18 41  1  0
 19 42  1  0
 19 43  1  0
 20 44  1  0
 20 45  1  0
M  CHG  1   3   1
M  END
>  <EmbedRMS>  (152) 
0.24874902131530774

$$$$

     RDKit          3D

 43 43  0  0  0  0  0  0  0  0999 V2000
    4.9734   11.6477    7.2569 C   0  0  0  0  0  0  0  0  0  0  0  0
    5.6431   11.5097    5.8975 C   0  0  0  0  0  0  0  0  0  0  0  0
    5.0750   10.3068    5.1371 C   0  0  0  0  0  0  0  0  0  0  0  0
    5.7669   10.1280    3.7867 C   0  0  0  0  0  0  0  0  0  0  0  0
    7.1455    9.6852    3.9681 N   0  0  0  0  0  0  0  0  0  0  0  0
    8.0141    9.4667    2.8560 C   0  0  0  0  0  0  0  0  0  0  0  0
    7.6100    9.6889    1.6803 O   0  0  0  0  0  0  0  0  0  0  0  0
    9.4184    8.9877    3.1010 C   0  0  0  0  0  0  0  0  0  0  0  0
    9.8028    7.9215    2.0789 C   0  0  0  0  0  0  0  0  0  0  0  0
   11.1603    7.3113    2.3953 C   0  0  0  0  0  0  0  0  0  0  0  0
   12.2770    8.3212    2.7731 C   0  0  0  0  0  0  0  0  0  0  0  0
   13.5817    8.3572    1.9534 C   0  0  0  0  0  0  0  0  0  0  0  0
   13.9848    7.0988    1.1850 C   0  0  0  0  0  0  0  0  0  0  0  0
   14.7123    8.8837    2.7302 N   0  0  0  0  0  4  0  0  0  0  0  0
   11.8329    9.7187    3.3042 C   0  0  0  0  0  0  0  0  0  0  0  0
   10.3990   10.1509    3.0046 C   0  0  0  0  0  0  0  0  0  0  0  0
    5.3911   12.5283    7.7890 H   0  0  0  0  0  0  0  0  0  0  0  0
    3.8787   11.7934    7.1363 H   0  0  0  0  0  0  0  0  0  0  0  0
    5.1580   10.7417    7.8729 H   0  0  0  0  0  0  0  0  0  0  0  0
    6.7368   11.3948    6.0535 H   0  0  0  0  0  0  0  0  0  0  0  0
    5.4685   12.4394    5.3132 H   0  0  0  0  0  0  0  0  0  0  0  0
    3.9892   10.4689    4.9589 H   0  0  0  0  0  0  0  0  0  0  0  0
    5.1884    9.3786    5.7399 H   0  0  0  0  0  0  0  0  0  0  0  0
    5.7488   11.0847    3.2200 H   0  0  0  0  0  0  0  0  0  0  0  0
    5.2153    9.3631    3.1983 H   0  0  0  0  0  0  0  0  0  0  0  0
    7.5089    9.4851    4.9278 H   0  0  0  0  0  0  0  0  0  0  0  0
    9.4779    8.5435    4.1204 H   0  0  0  0  0  0  0  0  0  0  0  0
    9.0390    7.1119    2.0723 H   0  0  0  0  0  0  0  0  0  0  0  0
    9.8362    8.3610    1.0564 H   0  0  0  0  0  0  0  0  0  0  0  0
   11.0033    6.5984    3.2384 H   0  0  0  0  0  0  0  0  0  0  0  0
   11.4453    6.6789    1.5345 H   0  0  0  0  0  0  0  0  0  0  0  0
   12.6595    7.8393    3.7041 H   0  0  0  0  0  0  0  0  0  0  0  0
   13.3816    9.1014    1.1484 H   0  0  0  0  0  0  0  0  0  0  0  0
   15.0012    7.2120    0.7514 H   0  0  0  0  0  0  0  0  0  0  0  0
   13.9879    6.2216    1.8659 H   0  0  0  0  0  0  0  0  0  0  0  0
   13.2937    6.9115    0.3366 H   0  0  0  0  0  0  0  0  0  0  0  0
   14.9957    8.1895    3.4596 H   0  0  0  0  0  0  0  0  0  0  0  0
   14.4934    9.7898    3.1976 H   0  0  0  0  0  0  0  0  0  0  0  0
   15.5299    9.0534    2.0998 H   0  0  0  0  0  0  0  0  0  0  0  0
   12.4787   10.5258    2.8999 H   0  0  0  0  0  0  0  0  0  0  0  0
   11.9643    9.7484    4.4103 H   0  0  0  0  0  0  0  0  0  0  0  0
   10.1045   10.9519    3.7189 H   0  0  0  0  0  0  0  0  0  0  0  0
   10.3593   10.5878    1.9809 H   0  0  0  0  0  0  0  0  0  0  0  0
  1  2  1  0
  2  3  1  0
  3  4  1  0
  4  5  1  0
  5  6  1  0
  6  7  2  0
  6  8  1  0
  8  9  1  0
  9 10  1  0
 10 11  1  0
 11 12  1  0
 12 13  1  0
 12 14  1  0
 11 15  1  0
 15 16  1  0
 16  8  1  0
  1 17  1  0
  1 18  1  0
  1 19  1  0
  2 20  1  0
  2 21  1  0
  3 22  1  0
  3 23  1  0
  4 24  1  0
  4 25  1  0
  5 26  1  0
  8 27  1  0
  9 28  1  0
  9 29  1  0
 10 30  1  0
 10 31  1  0
 11 32  1  0
 12 33  1  0
 13 34  1  0
 13 35  1  0
 13 36  1  0
 14 37  1  0
 14 38  1  0
 14 39  1  0
 15 40  1  0
 15 41  1  0
 16 42  1  0
 16 43  1  0
M  CHG  1  14   1
M  END
>  <EmbedRMS>  (153) 
0.21476017337867526

$$$$

     RDKit          3D

 44 44  0  0  0  0  0  0  0  0999 V2000
   14.0122    7.0504    1.2528 C   0  0  0  0  0  0  0  0  0  0  0  0
   13.6014    8.3242    1.9895 C   0  0  0  0  0  0  0  0  0  0  0  0
   14.7031    8.8917    2.7695 N   0  0  0  0  0  4  0  0  0  0  0  0
   12.2621    8.3269    2.7668 C   0  0  0  0  0  0  0  0  0  0  0  0
   11.1808    7.4388    2.1343 C   0  0  0  0  0  0  0  0  0  0  0  0
    9.7461    7.7259    2.5428 C   0  0  0  0  0  0  0  0  0  0  0  0
    9.4521    9.2015    2.6313 C   0  0  0  0  0  0  0  0  0  0  0  0
    7.9916    9.5235    2.7203 C   0  0  0  0  0  0  0  0  0  0  0  0
    7.4126    9.6688    1.6167 O   0  0  0  0  0  0  0  0  0  0  0  0
    7.2400    9.6875    3.9339 N   0  0  0  0  0  0  0  0  0  0  0  0
    5.8476   10.1523    3.8888 C   0  0  0  0  0  0  0  0  0  0  0  0
    5.7866   11.6348    3.4787 C   0  0  0  0  0  0  0  0  0  0  0  0
    4.3465   12.1386    3.3126 C   0  0  0  0  0  0  0  0  0  0  0  0
    3.6290   12.3298    4.6495 C   0  0  0  0  0  0  0  0  0  0  0  0
    4.2413   13.3567    5.3785 O   0  0  0  0  0  0  0  0  0  0  0  0
   10.3855   10.0198    3.4797 C   0  0  0  0  0  0  0  0  0  0  0  0
   11.8500    9.7805    3.1211 C   0  0  0  0  0  0  0  0  0  0  0  0
   13.2687    6.7646    0.4806 H   0  0  0  0  0  0  0  0  0  0  0  0
   14.1172    6.2175    1.9793 H   0  0  0  0  0  0  0  0  0  0  0  0
   14.9842    7.1925    0.7340 H   0  0  0  0  0  0  0  0  0  0  0  0
   13.4373    9.0283    1.1407 H   0  0  0  0  0  0  0  0  0  0  0  0
   14.8388    8.3412    3.6483 H   0  0  0  0  0  0  0  0  0  0  0  0
   15.5925    8.8677    2.2196 H   0  0  0  0  0  0  0  0  0  0  0  0
   14.5205    9.8921    3.0080 H   0  0  0  0  0  0  0  0  0  0  0  0
   12.4694    7.8404    3.7467 H   0  0  0  0  0  0  0  0  0  0  0  0
   11.4072    6.3663    2.3242 H   0  0  0  0  0  0  0  0  0  0  0  0
   11.2151    7.5901    1.0331 H   0  0  0  0  0  0  0  0  0  0  0  0
    9.0562    7.2342    1.8205 H   0  0  0  0  0  0  0  0  0  0  0  0
    9.5628    7.2727    3.5415 H   0  0  0  0  0  0  0  0  0  0  0  0
    9.7228    9.5602    1.6072 H   0  0  0  0  0  0  0  0  0  0  0  0
    7.6837    9.4625    4.8522 H   0  0  0  0  0  0  0  0  0  0  0  0
    5.2667    9.5248    3.1781 H   0  0  0  0  0  0  0  0  0  0  0  0
    5.4038   10.0240    4.8977 H   0  0  0  0  0  0  0  0  0  0  0  0
    6.3284   12.2520    4.2280 H   0  0  0  0  0  0  0  0  0  0  0  0
    6.3039   11.7726    2.5063 H   0  0  0  0  0  0  0  0  0  0  0  0
    3.7695   11.4279    2.6816 H   0  0  0  0  0  0  0  0  0  0  0  0
    4.3660   13.1138    2.7785 H   0  0  0  0  0  0  0  0  0  0  0  0
    3.6223   11.3875    5.2378 H   0  0  0  0  0  0  0  0  0  0  0  0
    2.5718   12.6091    4.4429 H   0  0  0  0  0  0  0  0  0  0  0  0
    3.7359   13.4294    6.2295 H   0  0  0  0  0  0  0  0  0  0  0  0
   10.1480   11.1029    3.3827 H   0  0  0  0  0  0  0  0  0  0  0  0
   10.2298    9.7354    4.5431 H   0  0  0  0  0  0  0  0  0  0  0  0
   12.4697   10.1514    3.9664 H   0  0  0  0  0  0  0  0  0  0  0  0
   12.0674   10.4408    2.2526 H   0  0  0  0  0  0  0  0  0  0  0  0
  1  2  1  0
  2  3  1  0
  2  4  1  0
  4  5  1  0
  5  6  1  0
  6  7  1  0
  7  8  1  0
  8  9  2  0
  8 10  1  0
 10 11  1  0
 11 12  1  0
 12 13  1  0
 13 14  1  0
 14 15  1  0
  7 16  1  0
 16 17  1  0
 17  4  1  0
  1 18  1  0
  1 19  1  0
  1 20  1  0
  2 21  1  0
  3 22  1  0
  3 23  1  0
  3 24  1  0
  4 25  1  0
  5 26  1  0
  5 27  1  0
  6 28  1  0
  6 29  1  0
  7 30  1  0
 10 31  1  0
 11 32  1  0
 11 33  1  0
 12 34  1  0
 12 35  1  0
 13 36  1  0
 13 37  1  0
 14 38  1  0
 14 39  1  0
 15 40  1  0
 16 41  1  0
 16 42  1  0
 17 43  1  0
 17 44  1  0
M  CHG  1   3   1
M  END
>  <EmbedRMS>  (154) 
0.3028787039700591

$$$$

     RDKit          3D

 47 47  0  0  0  0  0  0  0  0999 V2000
   14.0224    7.0434    1.2239 C   0  0  0  0  0  0  0  0  0  0  0  0
   13.6633    8.3382    1.9324 C   0  0  0  0  0  0  0  0  0  0  0  0
   14.6222    8.7714    2.9425 N   0  0  0  0  0  4  0  0  0  0  0  0
   12.1536    8.5822    2.2282 C   0  0  0  0  0  0  0  0  0  0  0  0
   11.2753    7.3587    2.5357 C   0  0  0  0  0  0  0  0  0  0  0  0
    9.7785    7.7063    2.4214 C   0  0  0  0  0  0  0  0  0  0  0  0
    9.4658    9.1893    2.6068 C   0  0  0  0  0  0  0  0  0  0  0  0
    8.0148    9.4949    2.7183 C   0  0  0  0  0  0  0  0  0  0  0  0
    7.4137    9.7547    1.6475 O   0  0  0  0  0  0  0  0  0  0  0  0
    7.2999    9.4579    3.9484 N   0  0  0  0  0  0  0  0  0  0  0  0
    5.9927   10.0510    4.0987 C   0  0  0  0  0  0  0  0  0  0  0  0
    4.8374    9.3006    3.4308 C   0  0  0  0  0  0  0  0  0  0  0  0
    4.9627    7.9208    2.7903 C   0  0  0  0  0  0  0  0  0  0  0  0
    3.5300    9.7427    4.0968 C   0  0  0  0  0  0  0  0  0  0  0  0
    3.1312    9.2121    5.4650 C   0  0  0  0  0  0  0  0  0  0  0  0
    2.5348    9.8870    3.1511 O   0  0  0  0  0  0  0  0  0  0  0  0
   10.4096   10.0750    3.4068 C   0  0  0  0  0  0  0  0  0  0  0  0
   11.8948    9.6828    3.2768 C   0  0  0  0  0  0  0  0  0  0  0  0
   15.0681    7.0774    0.8490 H   0  0  0  0  0  0  0  0  0  0  0  0
   13.9319    6.1916    1.9302 H   0  0  0  0  0  0  0  0  0  0  0  0
   13.3509    6.8733    0.3548 H   0  0  0  0  0  0  0  0  0  0  0  0
   13.8562    9.0644    1.1036 H   0  0  0  0  0  0  0  0  0  0  0  0
   14.4342    8.2638    3.8369 H   0  0  0  0  0  0  0  0  0  0  0  0
   14.5711    9.8025    3.1048 H   0  0  0  0  0  0  0  0  0  0  0  0
   15.5985    8.5515    2.6378 H   0  0  0  0  0  0  0  0  0  0  0  0
   11.7648    8.9715    1.2581 H   0  0  0  0  0  0  0  0  0  0  0  0
   11.5028    6.9981    3.5631 H   0  0  0  0  0  0  0  0  0  0  0  0
   11.4886    6.5244    1.8359 H   0  0  0  0  0  0  0  0  0  0  0  0
    9.2286    7.1232    3.1924 H   0  0  0  0  0  0  0  0  0  0  0  0
    9.3955    7.3671    1.4317 H   0  0  0  0  0  0  0  0  0  0  0  0
    9.6942    9.5744    1.5840 H   0  0  0  0  0  0  0  0  0  0  0  0
    7.7896    9.0973    4.7985 H   0  0  0  0  0  0  0  0  0  0  0  0
    5.8093   10.1222    5.1919 H   0  0  0  0  0  0  0  0  0  0  0  0
    6.0382   11.1083    3.7465 H   0  0  0  0  0  0  0  0  0  0  0  0
    4.7941    9.8784    2.4753 H   0  0  0  0  0  0  0  0  0  0  0  0
    5.8222    7.8567    2.0938 H   0  0  0  0  0  0  0  0  0  0  0  0
    5.1028    7.1648    3.5905 H   0  0  0  0  0  0  0  0  0  0  0  0
    4.0360    7.6703    2.2307 H   0  0  0  0  0  0  0  0  0  0  0  0
    3.7186   10.8119    4.3714 H   0  0  0  0  0  0  0  0  0  0  0  0
    2.2582    9.7715    5.8651 H   0  0  0  0  0  0  0  0  0  0  0  0
    3.9636    9.2925    6.1936 H   0  0  0  0  0  0  0  0  0  0  0  0
    2.8512    8.1423    5.3709 H   0  0  0  0  0  0  0  0  0  0  0  0
    1.7486   10.3053    3.5919 H   0  0  0  0  0  0  0  0  0  0  0  0
   10.2725   11.1383    3.1041 H   0  0  0  0  0  0  0  0  0  0  0  0
   10.1235   10.0120    4.4791 H   0  0  0  0  0  0  0  0  0  0  0  0
   12.4607   10.5975    2.9965 H   0  0  0  0  0  0  0  0  0  0  0  0
   12.2692    9.3432    4.2675 H   0  0  0  0  0  0  0  0  0  0  0  0
  1  2  1  0
  2  3  1  0
  2  4  1  0
  4  5  1  0
  5  6  1  0
  6  7  1  0
  7  8  1  0
  8  9  2  0
  8 10  1  0
 10 11  1  0
 11 12  1  0
 12 13  1  0
 12 14  1  0
 14 15  1  0
 14 16  1  0
  7 17  1  0
 17 18  1  0
 18  4  1  0
  1 19  1  0
  1 20  1  0
  1 21  1  0
  2 22  1  0
  3 23  1  0
  3 24  1  0
  3 25  1  0
  4 26  1  0
  5 27  1  0
  5 28  1  0
  6 29  1  0
  6 30  1  0
  7 31  1  0
 10 32  1  0
 11 33  1  0
 11 34  1  0
 12 35  1  0
 13 36  1  0
 13 37  1  0
 13 38  1  0
 14 39  1  0
 15 40  1  0
 15 41  1  0
 15 42  1  0
 16 43  1  0
 17 44  1  0
 17 45  1  0
 18 46  1  0
 18 47  1  0
M  CHG  1   3   1
M  END
>  <EmbedRMS>  (155) 
0.38250517418353436

$$$$

     RDKit          3D

 41 41  0  0  0  0  0  0  0  0999 V2000
   14.0280    7.2298    1.0859 C   0  0  0  0  0  0  0  0  0  0  0  0
   13.6460    7.9623    2.3850 C   0  0  0  0  0  0  0  0  0  0  0  0
   14.6274    9.0240    2.6473 N   0  0  0  0  0  4  0  0  0  0  0  0
   12.1822    8.5084    2.2951 C   0  0  0  0  0  0  0  0  0  0  0  0
   11.1974    7.3503    2.5396 C   0  0  0  0  0  0  0  0  0  0  0  0
    9.7343    7.7449    2.3712 C   0  0  0  0  0  0  0  0  0  0  0  0
    9.4514    9.2167    2.6303 C   0  0  0  0  0  0  0  0  0  0  0  0
    7.9896    9.5414    2.7188 C   0  0  0  0  0  0  0  0  0  0  0  0
    7.4087    9.6836    1.6159 O   0  0  0  0  0  0  0  0  0  0  0  0
    7.2362    9.6966    3.9328 N   0  0  0  0  0  0  0  0  0  0  0  0
    5.8494   10.1851    3.8996 C   0  0  0  0  0  0  0  0  0  0  0  0
    5.8029   11.7179    3.8926 C   0  0  0  0  0  0  0  0  0  0  0  0
    6.3441   12.2626    2.6455 N   0  0  0  0  0  0  0  0  0  0  0  0
    6.3507   13.6650    2.7550 N   0  0  0  0  0  0  0  0  0  0  0  0
   10.4184   10.0748    3.4243 C   0  0  0  0  0  0  0  0  0  0  0  0
   11.8961    9.6380    3.3170 C   0  0  0  0  0  0  0  0  0  0  0  0
   13.9586    7.9167    0.2154 H   0  0  0  0  0  0  0  0  0  0  0  0
   13.3804    6.3499    0.9041 H   0  0  0  0  0  0  0  0  0  0  0  0
   15.0712    6.8540    1.1524 H   0  0  0  0  0  0  0  0  0  0  0  0
   13.7139    7.2275    3.2200 H   0  0  0  0  0  0  0  0  0  0  0  0
   15.5990    8.6413    2.5854 H   0  0  0  0  0  0  0  0  0  0  0  0
   14.5145    9.3992    3.6161 H   0  0  0  0  0  0  0  0  0  0  0  0
   14.5269    9.7972    1.9495 H   0  0  0  0  0  0  0  0  0  0  0  0
   12.0124    8.9218    1.2752 H   0  0  0  0  0  0  0  0  0  0  0  0
   11.3424    6.9708    3.5764 H   0  0  0  0  0  0  0  0  0  0  0  0
   11.3978    6.4998    1.8571 H   0  0  0  0  0  0  0  0  0  0  0  0
    9.3949    7.4700    1.3455 H   0  0  0  0  0  0  0  0  0  0  0  0
    9.1277    7.1336    3.0756 H   0  0  0  0  0  0  0  0  0  0  0  0
    9.7090    9.6234    1.6204 H   0  0  0  0  0  0  0  0  0  0  0  0
    7.6867    9.4859    4.8512 H   0  0  0  0  0  0  0  0  0  0  0  0
    5.3016    9.7687    3.0264 H   0  0  0  0  0  0  0  0  0  0  0  0
    5.3265    9.8261    4.8121 H   0  0  0  0  0  0  0  0  0  0  0  0
    6.3914   12.0934    4.7595 H   0  0  0  0  0  0  0  0  0  0  0  0
    4.7467   12.0466    4.0221 H   0  0  0  0  0  0  0  0  0  0  0  0
    5.6753   12.0110    1.8787 H   0  0  0  0  0  0  0  0  0  0  0  0
    6.5095   14.0559    1.7976 H   0  0  0  0  0  0  0  0  0  0  0  0
    7.1991   13.9278    3.3076 H   0  0  0  0  0  0  0  0  0  0  0  0
   10.3172   11.1419    3.1192 H   0  0  0  0  0  0  0  0  0  0  0  0
   10.1185   10.0290    4.4936 H   0  0  0  0  0  0  0  0  0  0  0  0
   12.2333    9.3021    4.3232 H   0  0  0  0  0  0  0  0  0  0  0  0
   12.4959   10.5351    3.0511 H   0  0  0  0  0  0  0  0  0  0  0  0
  1  2  1  0
  2  3  1  0
  2  4  1  0
  4  5  1  0
  5  6  1  0
  6  7  1  0
  7  8  1  0
  8  9  2  0
  8 10  1  0
 10 11  1  0
 11 12  1  0
 12 13  1  0
 13 14  1  0
  7 15  1  0
 15 16  1  0
 16  4  1  0
  1 17  1  0
  1 18  1  0
  1 19  1  0
  2 20  1  0
  3 21  1  0
  3 22  1  0
  3 23  1  0
  4 24  1  0
  5 25  1  0
  5 26  1  0
  6 27  1  0
  6 28  1  0
  7 29  1  0
 10 30  1  0
 11 31  1  0
 11 32  1  0
 12 33  1  0
 12 34  1  0
 13 35  1  0
 14 36  1  0
 14 37  1  0
 15 38  1  0
 15 39  1  0
 16 40  1  0
 16 41  1  0
M  CHG  1   3   1
M  END
>  <EmbedRMS>  (156) 
0.18953983231979948

$$$$

     RDKit          3D

 48 48  0  0  0  0  0  0  0  0999 V2000
    4.8915   13.3074   -0.6287 C   0  0  0  0  0  0  0  0  0  0  0  0
    5.9776   13.0507    0.4086 C   0  0  0  0  0  0  0  0  0  0  0  0
    5.3579   12.5533    1.7080 C   0  0  0  0  0  0  0  0  0  0  0  0
    6.4036   12.3026    2.7032 N   0  0  0  0  0  0  0  0  0  0  0  0
    5.8116   11.7333    3.9200 C   0  0  0  0  0  0  0  0  0  0  0  0
    5.7860   10.2073    3.8470 C   0  0  0  0  0  0  0  0  0  0  0  0
    7.1366    9.6757    3.9898 N   0  0  0  0  0  0  0  0  0  0  0  0
    8.0105    9.4654    2.8768 C   0  0  0  0  0  0  0  0  0  0  0  0
    7.6077    9.6907    1.6997 O   0  0  0  0  0  0  0  0  0  0  0  0
    9.4201    8.9849    3.1181 C   0  0  0  0  0  0  0  0  0  0  0  0
    9.7831    7.9365    2.0731 C   0  0  0  0  0  0  0  0  0  0  0  0
   11.1462    7.3163    2.3190 C   0  0  0  0  0  0  0  0  0  0  0  0
   12.2321    8.2994    2.7953 C   0  0  0  0  0  0  0  0  0  0  0  0
   13.7095    7.9154    2.4297 C   0  0  0  0  0  0  0  0  0  0  0  0
   13.9324    7.3325    1.0260 C   0  0  0  0  0  0  0  0  0  0  0  0
   14.6477    9.0170    2.6729 N   0  0  0  0  0  4  0  0  0  0  0  0
   11.8844    9.7897    2.9954 C   0  0  0  0  0  0  0  0  0  0  0  0
   10.3919   10.1689    3.0610 C   0  0  0  0  0  0  0  0  0  0  0  0
    5.3569   13.6692   -1.5696 H   0  0  0  0  0  0  0  0  0  0  0  0
    4.3344   12.3715   -0.8479 H   0  0  0  0  0  0  0  0  0  0  0  0
    4.1823   14.0816   -0.2653 H   0  0  0  0  0  0  0  0  0  0  0  0
    6.5355   13.9946    0.5930 H   0  0  0  0  0  0  0  0  0  0  0  0
    6.6866   12.2888    0.0173 H   0  0  0  0  0  0  0  0  0  0  0  0
    4.6443   13.3210    2.0876 H   0  0  0  0  0  0  0  0  0  0  0  0
    4.7950   11.6173    1.4970 H   0  0  0  0  0  0  0  0  0  0  0  0
    6.8251   13.2269    2.9588 H   0  0  0  0  0  0  0  0  0  0  0  0
    6.4182   12.0330    4.8044 H   0  0  0  0  0  0  0  0  0  0  0  0
    4.7815   12.1178    4.1022 H   0  0  0  0  0  0  0  0  0  0  0  0
    5.3175    9.8464    2.9071 H   0  0  0  0  0  0  0  0  0  0  0  0
    5.1651    9.8266    4.6866 H   0  0  0  0  0  0  0  0  0  0  0  0
    7.4866    9.4806    4.9551 H   0  0  0  0  0  0  0  0  0  0  0  0
    9.4833    8.5141    4.1248 H   0  0  0  0  0  0  0  0  0  0  0  0
    9.0185    7.1275    2.0651 H   0  0  0  0  0  0  0  0  0  0  0  0
    9.7860    8.4054    1.0626 H   0  0  0  0  0  0  0  0  0  0  0  0
   11.0317    6.4812    3.0491 H   0  0  0  0  0  0  0  0  0  0  0  0
   11.4299    6.8353    1.3644 H   0  0  0  0  0  0  0  0  0  0  0  0
   12.2353    8.0293    3.8797 H   0  0  0  0  0  0  0  0  0  0  0  0
   14.0065    7.0857    3.1159 H   0  0  0  0  0  0  0  0  0  0  0  0
   13.5360    6.2979    0.9564 H   0  0  0  0  0  0  0  0  0  0  0  0
   13.4424    7.9752    0.2641 H   0  0  0  0  0  0  0  0  0  0  0  0
   15.0169    7.2742    0.7926 H   0  0  0  0  0  0  0  0  0  0  0  0
   14.5394    9.3818    3.6465 H   0  0  0  0  0  0  0  0  0  0  0  0
   15.6310    8.6705    2.5844 H   0  0  0  0  0  0  0  0  0  0  0  0
   14.5085    9.7867    1.9794 H   0  0  0  0  0  0  0  0  0  0  0  0
   12.3143   10.3484    2.1371 H   0  0  0  0  0  0  0  0  0  0  0  0
   12.3893   10.1921    3.9034 H   0  0  0  0  0  0  0  0  0  0  0  0
   10.1511   10.7893    2.1673 H   0  0  0  0  0  0  0  0  0  0  0  0
   10.2165   10.8170    3.9483 H   0  0  0  0  0  0  0  0  0  0  0  0
  1  2  1  0
  2  3  1  0
  3  4  1  0
  4  5  1  0
  5  6  1  0
  6  7  1  0
  7  8  1  0
  8  9  2  0
  8 10  1  0
 10 11  1  0
 11 12  1  0
 12 13  1  0
 13 14  1  0
 14 15  1  0
 14 16  1  0
 13 17  1  0
 17 18  1  0
 18 10  1  0
  1 19  1  0
  1 20  1  0
  1 21  1  0
  2 22  1  0
  2 23  1  0
  3 24  1  0
  3 25  1  0
  4 26  1  0
  5 27  1  0
  5 28  1  0
  6 29  1  0
  6 30  1  0
  7 31  1  0
 10 32  1  0
 11 33  1  0
 11 34  1  0
 12 35  1  0
 12 36  1  0
 13 37  1  0
 14 38  1  0
 15 39  1  0
 15 40  1  0
 15 41  1  0
 16 42  1  0
 16 43  1  0
 16 44  1  0
 17 45  1  0
 17 46  1  0
 18 47  1  0
 18 48  1  0
M  CHG  1  16   1
M  END
>  <EmbedRMS>  (157) 
0.16499967102600221

$$$$

     RDKit          3D

 41 41  0  0  0  0  0  0  0  0999 V2000
   14.0112    7.0502    1.2530 C   0  0  0  0  0  0  0  0  0  0  0  0
   13.6006    8.3242    1.9896 C   0  0  0  0  0  0  0  0  0  0  0  0
   14.7025    8.8915    2.7695 N   0  0  0  0  0  4  0  0  0  0  0  0
   12.2611    8.3275    2.7668 C   0  0  0  0  0  0  0  0  0  0  0  0
   11.1789    7.4405    2.1342 C   0  0  0  0  0  0  0  0  0  0  0  0
    9.7438    7.7286    2.5427 C   0  0  0  0  0  0  0  0  0  0  0  0
    9.4497    9.2048    2.6337 C   0  0  0  0  0  0  0  0  0  0  0  0
    7.9879    9.5295    2.7214 C   0  0  0  0  0  0  0  0  0  0  0  0
    7.4128    9.6770    1.6163 O   0  0  0  0  0  0  0  0  0  0  0  0
    7.2353    9.7042    3.9341 N   0  0  0  0  0  0  0  0  0  0  0  0
    5.8340   10.1508    3.8938 C   0  0  0  0  0  0  0  0  0  0  0  0
    5.7099   11.6592    4.1550 C   0  0  0  0  0  0  0  0  0  0  0  0
    6.2760   12.5224    3.0236 C   0  0  0  0  0  0  0  0  0  0  0  0
    7.6715   12.5833    3.1173 O   0  0  0  0  0  0  0  0  0  0  0  0
   10.3857   10.0213    3.4811 C   0  0  0  0  0  0  0  0  0  0  0  0
   11.8496    9.7812    3.1206 C   0  0  0  0  0  0  0  0  0  0  0  0
   14.1168    6.2176    1.9797 H   0  0  0  0  0  0  0  0  0  0  0  0
   13.2672    6.7640    0.4815 H   0  0  0  0  0  0  0  0  0  0  0  0
   14.9828    7.1924    0.7335 H   0  0  0  0  0  0  0  0  0  0  0  0
   13.4368    9.0282    1.1406 H   0  0  0  0  0  0  0  0  0  0  0  0
   14.8376    8.3417    3.6487 H   0  0  0  0  0  0  0  0  0  0  0  0
   14.5205    9.8923    3.0071 H   0  0  0  0  0  0  0  0  0  0  0  0
   15.5921    8.8665    2.2199 H   0  0  0  0  0  0  0  0  0  0  0  0
   12.4679    7.8409    3.7467 H   0  0  0  0  0  0  0  0  0  0  0  0
   11.2133    7.5919    1.0331 H   0  0  0  0  0  0  0  0  0  0  0  0
   11.4044    6.3677    2.3239 H   0  0  0  0  0  0  0  0  0  0  0  0
    9.5597    7.2741    3.5407 H   0  0  0  0  0  0  0  0  0  0  0  0
    9.0536    7.2385    1.8196 H   0  0  0  0  0  0  0  0  0  0  0  0
    9.7211    9.5640    1.6100 H   0  0  0  0  0  0  0  0  0  0  0  0
    7.7202    9.6263    4.8558 H   0  0  0  0  0  0  0  0  0  0  0  0
    5.2756    9.6127    4.6895 H   0  0  0  0  0  0  0  0  0  0  0  0
    5.3471    9.8825    2.9314 H   0  0  0  0  0  0  0  0  0  0  0  0
    6.2064   11.9192    5.1154 H   0  0  0  0  0  0  0  0  0  0  0  0
    4.6296   11.8978    4.2654 H   0  0  0  0  0  0  0  0  0  0  0  0
    5.8625   13.5509    3.1198 H   0  0  0  0  0  0  0  0  0  0  0  0
    5.9690   12.1143    2.0344 H   0  0  0  0  0  0  0  0  0  0  0  0
    7.9776   13.1131    2.3361 H   0  0  0  0  0  0  0  0  0  0  0  0
   10.2319    9.7363    4.5446 H   0  0  0  0  0  0  0  0  0  0  0  0
   10.1501   11.1047    3.3855 H   0  0  0  0  0  0  0  0  0  0  0  0
   12.0661   10.4408    2.2513 H   0  0  0  0  0  0  0  0  0  0  0  0
   12.4705   10.1525    3.9649 H   0  0  0  0  0  0  0  0  0  0  0  0
  1  2  1  0
  2  3  1  0
  2  4  1  0
  4  5  1  0
  5  6  1  0
  6  7  1  0
  7  8  1  0
  8  9  2  0
  8 10  1  0
 10 11  1  0
 11 12  1  0
 12 13  1  0
 13 14  1  0
  7 15  1  0
 15 16  1  0
 16  4  1  0
  1 17  1  0
  1 18  1  0
  1 19  1  0
  2 20  1  0
  3 21  1  0
  3 22  1  0
  3 23  1  0
  4 24  1  0
  5 25  1  0
  5 26  1  0
  6 27  1  0
  6 28  1  0
  7 29  1  0
 10 30  1  0
 11 31  1  0
 11 32  1  0
 12 33  1  0
 12 34  1  0
 13 35  1  0
 13 36  1  0
 14 37  1  0
 15 38  1  0
 15 39  1  0
 16 40  1  0
 16 41  1  0
M  CHG  1   3   1
M  END
>  <EmbedRMS>  (158) 
0.31188721664002633

$$$$

     RDKit          3D

 45 45  0  0  0  0  0  0  0  0999 V2000
   14.0290    7.2301    1.0859 C   0  0  0  0  0  0  0  0  0  0  0  0
   13.6469    7.9624    2.3850 C   0  0  0  0  0  0  0  0  0  0  0  0
   14.6278    9.0245    2.6471 N   0  0  0  0  0  4  0  0  0  0  0  0
   12.1831    8.5078    2.2953 C   0  0  0  0  0  0  0  0  0  0  0  0
   11.1995    7.3491    2.5405 C   0  0  0  0  0  0  0  0  0  0  0  0
    9.7368    7.7420    2.3706 C   0  0  0  0  0  0  0  0  0  0  0  0
    9.4529    9.2129    2.6303 C   0  0  0  0  0  0  0  0  0  0  0  0
    7.9911    9.5326    2.7175 C   0  0  0  0  0  0  0  0  0  0  0  0
    7.4108    9.6731    1.6137 O   0  0  0  0  0  0  0  0  0  0  0  0
    7.2350    9.6860    3.9301 N   0  0  0  0  0  0  0  0  0  0  0  0
    5.8442   10.1579    3.8804 C   0  0  0  0  0  0  0  0  0  0  0  0
    5.8006   11.6461    3.4828 C   0  0  0  0  0  0  0  0  0  0  0  0
    4.3711   12.2028    3.2723 C   0  0  0  0  0  0  0  0  0  0  0  0
    3.5565   12.1456    4.5723 C   0  0  0  0  0  0  0  0  0  0  0  0
    3.6983   11.4506    2.2938 O   0  0  0  0  0  0  0  0  0  0  0  0
    4.4498   13.5401    2.8375 O   0  0  0  0  0  0  0  0  0  0  0  0
   10.4180   10.0725    3.4249 C   0  0  0  0  0  0  0  0  0  0  0  0
   11.8964    9.6377    3.3169 C   0  0  0  0  0  0  0  0  0  0  0  0
   13.9589    7.9168    0.2154 H   0  0  0  0  0  0  0  0  0  0  0  0
   13.3820    6.3497    0.9042 H   0  0  0  0  0  0  0  0  0  0  0  0
   15.0723    6.8549    1.1521 H   0  0  0  0  0  0  0  0  0  0  0  0
   13.7154    7.2276    3.2201 H   0  0  0  0  0  0  0  0  0  0  0  0
   14.5148    9.3998    3.6159 H   0  0  0  0  0  0  0  0  0  0  0  0
   15.5997    8.6422    2.5852 H   0  0  0  0  0  0  0  0  0  0  0  0
   14.5270    9.7976    1.9493 H   0  0  0  0  0  0  0  0  0  0  0  0
   12.0129    8.9208    1.2753 H   0  0  0  0  0  0  0  0  0  0  0  0
   11.3441    6.9710    3.5778 H   0  0  0  0  0  0  0  0  0  0  0  0
   11.4010    6.4978    1.8593 H   0  0  0  0  0  0  0  0  0  0  0  0
    9.1301    7.1295    3.0738 H   0  0  0  0  0  0  0  0  0  0  0  0
    9.3990    7.4674    1.3442 H   0  0  0  0  0  0  0  0  0  0  0  0
    9.7103    9.6207    1.6208 H   0  0  0  0  0  0  0  0  0  0  0  0
    7.6734    9.4516    4.8486 H   0  0  0  0  0  0  0  0  0  0  0  0
    5.2650    9.5383    3.1623 H   0  0  0  0  0  0  0  0  0  0  0  0
    5.3933   10.0291    4.8868 H   0  0  0  0  0  0  0  0  0  0  0  0
    6.3710   11.8005    2.5427 H   0  0  0  0  0  0  0  0  0  0  0  0
    6.3182   12.2359    4.2714 H   0  0  0  0  0  0  0  0  0  0  0  0
    2.5932   12.6817    4.4351 H   0  0  0  0  0  0  0  0  0  0  0  0
    3.3219   11.0963    4.8487 H   0  0  0  0  0  0  0  0  0  0  0  0
    4.1098   12.6264    5.4074 H   0  0  0  0  0  0  0  0  0  0  0  0
    4.1730   11.5923    1.4329 H   0  0  0  0  0  0  0  0  0  0  0  0
    4.9118   14.0660    3.5427 H   0  0  0  0  0  0  0  0  0  0  0  0
   10.1178   10.0252    4.4942 H   0  0  0  0  0  0  0  0  0  0  0  0
   10.3152   11.1396    3.1205 H   0  0  0  0  0  0  0  0  0  0  0  0
   12.2345    9.3028    4.3231 H   0  0  0  0  0  0  0  0  0  0  0  0
   12.4948   10.5354    3.0502 H   0  0  0  0  0  0  0  0  0  0  0  0
  1  2  1  0
  2  3  1  0
  2  4  1  0
  4  5  1  0
  5  6  1  0
  6  7  1  0
  7  8  1  0
  8  9  2  0
  8 10  1  0
 10 11  1  0
 11 12  1  0
 12 13  1  0
 13 14  1  0
 13 15  1  0
 13 16  1  0
  7 17  1  0
 17 18  1  0
 18  4  1  0
  1 19  1  0
  1 20  1  0
  1 21  1  0
  2 22  1  0
  3 23  1  0
  3 24  1  0
  3 25  1  0
  4 26  1  0
  5 27  1  0
  5 28  1  0
  6 29  1  0
  6 30  1  0
  7 31  1  0
 10 32  1  0
 11 33  1  0
 11 34  1  0
 12 35  1  0
 12 36  1  0
 14 37  1  0
 14 38  1  0
 14 39  1  0
 15 40  1  0
 16 41  1  0
 17 42  1  0
 17 43  1  0
 18 44  1  0
 18 45  1  0
M  CHG  1   3   1
M  END
>  <EmbedRMS>  (159) 
0.17853379055345855

$$$$

     RDKit          3D

 47 48  0  0  0  0  0  0  0  0999 V2000
   14.0273    7.0396    1.2341 C   0  0  0  0  0  0  0  0  0  0  0  0
   13.6687    8.3363    1.9396 C   0  0  0  0  0  0  0  0  0  0  0  0
   14.6133    8.7685    2.9619 N   0  0  0  0  0  4  0  0  0  0  0  0
   12.1573    8.5898    2.2125 C   0  0  0  0  0  0  0  0  0  0  0  0
   11.2399    7.3774    2.4534 C   0  0  0  0  0  0  0  0  0  0  0  0
    9.7875    7.8248    2.2157 C   0  0  0  0  0  0  0  0  0  0  0  0
    9.4115    8.9848    3.1573 C   0  0  0  0  0  0  0  0  0  0  0  0
    8.0157    9.4673    2.8810 C   0  0  0  0  0  0  0  0  0  0  0  0
    7.6296    9.6767    1.6957 O   0  0  0  0  0  0  0  0  0  0  0  0
    7.1389    9.7194    3.9836 N   0  0  0  0  0  0  0  0  0  0  0  0
    5.7525   10.1231    3.8031 C   0  0  0  0  0  0  0  0  0  0  0  0
    4.9189    8.9328    3.3313 C   0  0  0  0  0  0  0  0  0  0  0  0
    3.4585    9.3437    3.1194 C   0  0  0  0  0  0  0  0  0  0  0  0
    2.5975    9.7798    4.3070 C   0  0  0  0  0  0  0  0  0  0  0  0
    3.1480   10.0021    1.7983 C   0  0  0  0  0  0  0  0  0  0  0  0
    2.7318    8.7347    1.9311 C   0  0  0  0  0  0  0  0  0  0  0  0
   10.4069   10.1589    3.0897 C   0  0  0  0  0  0  0  0  0  0  0  0
   11.8562    9.6807    3.2550 C   0  0  0  0  0  0  0  0  0  0  0  0
   13.9073    6.1866    1.9345 H   0  0  0  0  0  0  0  0  0  0  0  0
   15.0822    7.0603    0.8850 H   0  0  0  0  0  0  0  0  0  0  0  0
   13.3759    6.8820    0.3475 H   0  0  0  0  0  0  0  0  0  0  0  0
   13.8822    9.0580    1.1113 H   0  0  0  0  0  0  0  0  0  0  0  0
   15.5894    8.5013    2.6970 H   0  0  0  0  0  0  0  0  0  0  0  0
   14.3776    8.3025    3.8675 H   0  0  0  0  0  0  0  0  0  0  0  0
   14.5967    9.8059    3.0872 H   0  0  0  0  0  0  0  0  0  0  0  0
   11.8015    9.0088    1.2380 H   0  0  0  0  0  0  0  0  0  0  0  0
   11.3705    6.9867    3.4864 H   0  0  0  0  0  0  0  0  0  0  0  0
   11.4615    6.5572    1.7403 H   0  0  0  0  0  0  0  0  0  0  0  0
    9.6565    8.1237    1.1516 H   0  0  0  0  0  0  0  0  0  0  0  0
    9.1120    6.9624    2.4072 H   0  0  0  0  0  0  0  0  0  0  0  0
    9.4437    8.5810    4.1944 H   0  0  0  0  0  0  0  0  0  0  0  0
    7.5117    9.6586    4.9582 H   0  0  0  0  0  0  0  0  0  0  0  0
    5.3571   10.4914    4.7744 H   0  0  0  0  0  0  0  0  0  0  0  0
    5.6965   10.9571    3.0699 H   0  0  0  0  0  0  0  0  0  0  0  0
    5.3574    8.5147    2.3990 H   0  0  0  0  0  0  0  0  0  0  0  0
    4.9544    8.1328    4.1018 H   0  0  0  0  0  0  0  0  0  0  0  0
    1.5229    9.8689    4.0383 H   0  0  0  0  0  0  0  0  0  0  0  0
    2.6923    9.0359    5.1251 H   0  0  0  0  0  0  0  0  0  0  0  0
    2.9436   10.7668    4.6770 H   0  0  0  0  0  0  0  0  0  0  0  0
    2.3390   10.7650    1.8290 H   0  0  0  0  0  0  0  0  0  0  0  0
    4.0166   10.1381    1.1164 H   0  0  0  0  0  0  0  0  0  0  0  0
    3.3138    7.9869    1.3489 H   0  0  0  0  0  0  0  0  0  0  0  0
    1.6331    8.6134    2.0523 H   0  0  0  0  0  0  0  0  0  0  0  0
   10.3030   10.6865    2.1149 H   0  0  0  0  0  0  0  0  0  0  0  0
   10.1740   10.8896    3.8951 H   0  0  0  0  0  0  0  0  0  0  0  0
   12.5092   10.5640    3.0951 H   0  0  0  0  0  0  0  0  0  0  0  0
   12.0220    9.2947    4.2847 H   0  0  0  0  0  0  0  0  0  0  0  0
  1  2  1  0
  2  3  1  0
  2  4  1  0
  4  5  1  0
  5  6  1  0
  6  7  1  0
  7  8  1  0
  8  9  2  0
  8 10  1  0
 10 11  1  0
 11 12  1  0
 12 13  1  0
 13 14  1  0
 13 15  1  0
 15 16  1  0
  7 17  1  0
 17 18  1  0
 18  4  1  0
 16 13  1  0
  1 19  1  0
  1 20  1  0
  1 21  1  0
  2 22  1  0
  3 23  1  0
  3 24  1  0
  3 25  1  0
  4 26  1  0
  5 27  1  0
  5 28  1  0
  6 29  1  0
  6 30  1  0
  7 31  1  0
 10 32  1  0
 11 33  1  0
 11 34  1  0
 12 35  1  0
 12 36  1  0
 14 37  1  0
 14 38  1  0
 14 39  1  0
 15 40  1  0
 15 41  1  0
 16 42  1  0
 16 43  1  0
 17 44  1  0
 17 45  1  0
 18 46  1  0
 18 47  1  0
M  CHG  1   3   1
M  END
>  <EmbedRMS>  (160) 
0.5113108624362681

$$$$

     RDKit          3D

 41 41  0  0  0  0  0  0  0  0999 V2000
   14.0115    7.0506    1.2528 C   0  0  0  0  0  0  0  0  0  0  0  0
   13.6007    8.3244    1.9897 C   0  0  0  0  0  0  0  0  0  0  0  0
   14.7026    8.8917    2.7697 N   0  0  0  0  0  4  0  0  0  0  0  0
   12.2613    8.3272    2.7670 C   0  0  0  0  0  0  0  0  0  0  0  0
   11.1798    7.4395    2.1343 C   0  0  0  0  0  0  0  0  0  0  0  0
    9.7449    7.7260    2.5438 C   0  0  0  0  0  0  0  0  0  0  0  0
    9.4498    9.2016    2.6348 C   0  0  0  0  0  0  0  0  0  0  0  0
    7.9883    9.5247    2.7224 C   0  0  0  0  0  0  0  0  0  0  0  0
    7.4124    9.6708    1.6173 O   0  0  0  0  0  0  0  0  0  0  0  0
    7.2314    9.6900    3.9341 N   0  0  0  0  0  0  0  0  0  0  0  0
    5.8391   10.1600    3.8802 C   0  0  0  0  0  0  0  0  0  0  0  0
    5.7848   11.6424    3.4802 C   0  0  0  0  0  0  0  0  0  0  0  0
    4.4046   12.0986    3.3235 N   0  0  0  0  0  0  0  0  0  0  0  0
    4.0979   13.4521    2.9752 C   0  0  0  0  0  0  0  0  0  0  0  0
    5.0150   14.2987    2.8019 O   0  0  0  0  0  0  0  0  0  0  0  0
   10.3846   10.0200    3.4814 C   0  0  0  0  0  0  0  0  0  0  0  0
   11.8491    9.7807    3.1212 C   0  0  0  0  0  0  0  0  0  0  0  0
   14.9833    7.1928    0.7338 H   0  0  0  0  0  0  0  0  0  0  0  0
   14.1168    6.2176    1.9793 H   0  0  0  0  0  0  0  0  0  0  0  0
   13.2678    6.7648    0.4810 H   0  0  0  0  0  0  0  0  0  0  0  0
   13.4367    9.0286    1.1409 H   0  0  0  0  0  0  0  0  0  0  0  0
   15.5920    8.8676    2.2197 H   0  0  0  0  0  0  0  0  0  0  0  0
   14.5201    9.8921    3.0081 H   0  0  0  0  0  0  0  0  0  0  0  0
   14.8383    8.3412    3.6484 H   0  0  0  0  0  0  0  0  0  0  0  0
   12.4685    7.8405    3.7468 H   0  0  0  0  0  0  0  0  0  0  0  0
   11.4064    6.3669    2.3233 H   0  0  0  0  0  0  0  0  0  0  0  0
   11.2136    7.5916    1.0333 H   0  0  0  0  0  0  0  0  0  0  0  0
    9.5620    7.2714    3.5419 H   0  0  0  0  0  0  0  0  0  0  0  0
    9.0548    7.2351    1.8212 H   0  0  0  0  0  0  0  0  0  0  0  0
    9.7207    9.5606    1.6108 H   0  0  0  0  0  0  0  0  0  0  0  0
    7.6691    9.4627    4.8547 H   0  0  0  0  0  0  0  0  0  0  0  0
    5.2621    9.5419    3.1581 H   0  0  0  0  0  0  0  0  0  0  0  0
    5.3740   10.0392    4.8825 H   0  0  0  0  0  0  0  0  0  0  0  0
    6.3234   11.8023    2.5228 H   0  0  0  0  0  0  0  0  0  0  0  0
    6.2851   12.2470    4.2676 H   0  0  0  0  0  0  0  0  0  0  0  0
    3.6094   11.4357    3.4671 H   0  0  0  0  0  0  0  0  0  0  0  0
    3.0657   13.7552    2.8606 H   0  0  0  0  0  0  0  0  0  0  0  0
   10.1471   11.1031    3.3845 H   0  0  0  0  0  0  0  0  0  0  0  0
   10.2299    9.7359    4.5451 H   0  0  0  0  0  0  0  0  0  0  0  0
   12.4695   10.1520    3.9658 H   0  0  0  0  0  0  0  0  0  0  0  0
   12.0655   10.4407    2.2522 H   0  0  0  0  0  0  0  0  0  0  0  0
  1  2  1  0
  2  3  1  0
  2  4  1  0
  4  5  1  0
  5  6  1  0
  6  7  1  0
  7  8  1  0
  8  9  2  0
  8 10  1  0
 10 11  1  0
 11 12  1  0
 12 13  1  0
 13 14  1  0
 14 15  2  0
  7 16  1  0
 16 17  1  0
 17  4  1  0
  1 18  1  0
  1 19  1  0
  1 20  1  0
  2 21  1  0
  3 22  1  0
  3 23  1  0
  3 24  1  0
  4 25  1  0
  5 26  1  0
  5 27  1  0
  6 28  1  0
  6 29  1  0
  7 30  1  0
 10 31  1  0
 11 32  1  0
 11 33  1  0
 12 34  1  0
 12 35  1  0
 13 36  1  0
 14 37  1  0
 16 38  1  0
 16 39  1  0
 17 40  1  0
 17 41  1  0
M  CHG  1   3   1
M  END
>  <EmbedRMS>  (161) 
0.30207850723488733

$$$$

     RDKit          3D

 48 48  0  0  0  0  0  0  0  0999 V2000
    4.8915   13.3074   -0.6287 C   0  0  0  0  0  0  0  0  0  0  0  0
    5.9776   13.0507    0.4086 C   0  0  0  0  0  0  0  0  0  0  0  0
    5.3579   12.5533    1.7080 C   0  0  0  0  0  0  0  0  0  0  0  0
    6.4036   12.3026    2.7032 N   0  0  0  0  0  0  0  0  0  0  0  0
    5.8116   11.7333    3.9200 C   0  0  0  0  0  0  0  0  0  0  0  0
    5.7860   10.2073    3.8470 C   0  0  0  0  0  0  0  0  0  0  0  0
    7.1366    9.6757    3.9898 N   0  0  0  0  0  0  0  0  0  0  0  0
    8.0105    9.4654    2.8768 C   0  0  0  0  0  0  0  0  0  0  0  0
    7.6077    9.6907    1.6997 O   0  0  0  0  0  0  0  0  0  0  0  0
    9.4201    8.9849    3.1181 C   0  0  0  0  0  0  0  0  0  0  0  0
    9.7831    7.9365    2.0731 C   0  0  0  0  0  0  0  0  0  0  0  0
   11.1462    7.3163    2.3190 C   0  0  0  0  0  0  0  0  0  0  0  0
   12.2321    8.2994    2.7953 C   0  0  0  0  0  0  0  0  0  0  0  0
   13.7095    7.9154    2.4297 C   0  0  0  0  0  0  0  0  0  0  0  0
   13.9324    7.3325    1.0260 C   0  0  0  0  0  0  0  0  0  0  0  0
   14.6477    9.0170    2.6729 N   0  0  0  0  0  4  0  0  0  0  0  0
   11.8844    9.7897    2.9954 C   0  0  0  0  0  0  0  0  0  0  0  0
   10.3919   10.1689    3.0610 C   0  0  0  0  0  0  0  0  0  0  0  0
    5.3569   13.6692   -1.5696 H   0  0  0  0  0  0  0  0  0  0  0  0
    4.3344   12.3715   -0.8479 H   0  0  0  0  0  0  0  0  0  0  0  0
    4.1823   14.0816   -0.2653 H   0  0  0  0  0  0  0  0  0  0  0  0
    6.5355   13.9946    0.5930 H   0  0  0  0  0  0  0  0  0  0  0  0
    6.6866   12.2888    0.0173 H   0  0  0  0  0  0  0  0  0  0  0  0
    4.6443   13.3210    2.0876 H   0  0  0  0  0  0  0  0  0  0  0  0
    4.7950   11.6173    1.4970 H   0  0  0  0  0  0  0  0  0  0  0  0
    6.8251   13.2269    2.9588 H   0  0  0  0  0  0  0  0  0  0  0  0
    6.4182   12.0330    4.8044 H   0  0  0  0  0  0  0  0  0  0  0  0
    4.7815   12.1178    4.1022 H   0  0  0  0  0  0  0  0  0  0  0  0
    5.3175    9.8464    2.9071 H   0  0  0  0  0  0  0  0  0  0  0  0
    5.1651    9.8266    4.6866 H   0  0  0  0  0  0  0  0  0  0  0  0
    7.4866    9.4806    4.9551 H   0  0  0  0  0  0  0  0  0  0  0  0
    9.4833    8.5141    4.1248 H   0  0  0  0  0  0  0  0  0  0  0  0
    9.0185    7.1275    2.0651 H   0  0  0  0  0  0  0  0  0  0  0  0
    9.7860    8.4054    1.0626 H   0  0  0  0  0  0  0  0  0  0  0  0
   11.0317    6.4812    3.0491 H   0  0  0  0  0  0  0  0  0  0  0  0
   11.4299    6.8353    1.3644 H   0  0  0  0  0  0  0  0  0  0  0  0
   12.2353    8.0293    3.8797 H   0  0  0  0  0  0  0  0  0  0  0  0
   14.0065    7.0857    3.1159 H   0  0  0  0  0  0  0  0  0  0  0  0
   13.5360    6.2979    0.9564 H   0  0  0  0  0  0  0  0  0  0  0  0
   13.4424    7.9752    0.2641 H   0  0  0  0  0  0  0  0  0  0  0  0
   15.0169    7.2742    0.7926 H   0  0  0  0  0  0  0  0  0  0  0  0
   14.5394    9.3818    3.6465 H   0  0  0  0  0  0  0  0  0  0  0  0
   15.6310    8.6705    2.5844 H   0  0  0  0  0  0  0  0  0  0  0  0
   14.5085    9.7867    1.9794 H   0  0  0  0  0  0  0  0  0  0  0  0
   12.3143   10.3484    2.1371 H   0  0  0  0  0  0  0  0  0  0  0  0
   12.3893   10.1921    3.9034 H   0  0  0  0  0  0  0  0  0  0  0  0
   10.1511   10.7893    2.1673 H   0  0  0  0  0  0  0  0  0  0  0  0
   10.2165   10.8170    3.9483 H   0  0  0  0  0  0  0  0  0  0  0  0
  1  2  1  0
  2  3  1  0
  3  4  1  0
  4  5  1  0
  5  6  1  0
  6  7  1  0
  7  8  1  0
  8  9  2  0
  8 10  1  0
 10 11  1  0
 11 12  1  0
 12 13  1  0
 13 14  1  0
 14 15  1  0
 14 16  1  0
 13 17  1  0
 17 18  1  0
 18 10  1  0
  1 19  1  0
  1 20  1  0
  1 21  1  0
  2 22  1  0
  2 23  1  0
  3 24  1  0
  3 25  1  0
  4 26  1  0
  5 27  1  0
  5 28  1  0
  6 29  1  0
  6 30  1  0
  7 31  1  0
 10 32  1  0
 11 33  1  0
 11 34  1  0
 12 35  1  0
 12 36  1  0
 13 37  1  0
 14 38  1  0
 15 39  1  0
 15 40  1  0
 15 41  1  0
 16 42  1  0
 16 43  1  0
 16 44  1  0
 17 45  1  0
 17 46  1  0
 18 47  1  0
 18 48  1  0
M  CHG  1  16   1
M  END
>  <EmbedRMS>  (162) 
0.16499967102600221

$$$$

     RDKit          3D

 40 40  0  0  0  0  0  0  0  0999 V2000
    4.7996    8.8875    5.7514 C   0  0  0  0  0  0  0  0  0  0  0  0
    5.0467   10.2639    5.1374 C   0  0  0  0  0  0  0  0  0  0  0  0
    5.7665   10.1567    3.7915 C   0  0  0  0  0  0  0  0  0  0  0  0
    7.1428    9.7130    3.9787 N   0  0  0  0  0  0  0  0  0  0  0  0
    8.0146    9.4652    2.8756 C   0  0  0  0  0  0  0  0  0  0  0  0
    7.6236    9.6740    1.6923 O   0  0  0  0  0  0  0  0  0  0  0  0
    9.4117    8.9838    3.1514 C   0  0  0  0  0  0  0  0  0  0  0  0
    9.7887    7.8242    2.2110 C   0  0  0  0  0  0  0  0  0  0  0  0
   11.2406    7.3770    2.4518 C   0  0  0  0  0  0  0  0  0  0  0  0
   12.1580    8.5898    2.2119 C   0  0  0  0  0  0  0  0  0  0  0  0
   13.6694    8.3363    1.9396 C   0  0  0  0  0  0  0  0  0  0  0  0
   14.0282    7.0396    1.2342 C   0  0  0  0  0  0  0  0  0  0  0  0
   14.6135    8.7686    2.9623 N   0  0  0  0  0  4  0  0  0  0  0  0
   11.8558    9.6805    3.2543 C   0  0  0  0  0  0  0  0  0  0  0  0
   10.4065   10.1585    3.0871 C   0  0  0  0  0  0  0  0  0  0  0  0
    5.7572    8.3688    5.9654 H   0  0  0  0  0  0  0  0  0  0  0  0
    4.2454    9.0044    6.7064 H   0  0  0  0  0  0  0  0  0  0  0  0
    4.1898    8.2616    5.0655 H   0  0  0  0  0  0  0  0  0  0  0  0
    4.0659   10.7624    4.9797 H   0  0  0  0  0  0  0  0  0  0  0  0
    5.6383   10.8902    5.8402 H   0  0  0  0  0  0  0  0  0  0  0  0
    5.7713   11.1553    3.3036 H   0  0  0  0  0  0  0  0  0  0  0  0
    5.2272    9.4458    3.1277 H   0  0  0  0  0  0  0  0  0  0  0  0
    7.5227    9.5975    4.9460 H   0  0  0  0  0  0  0  0  0  0  0  0
    9.4460    8.5780    4.1877 H   0  0  0  0  0  0  0  0  0  0  0  0
    9.1131    6.9617    2.4015 H   0  0  0  0  0  0  0  0  0  0  0  0
    9.6593    8.1232    1.1467 H   0  0  0  0  0  0  0  0  0  0  0  0
   11.3694    6.9867    3.4850 H   0  0  0  0  0  0  0  0  0  0  0  0
   11.4634    6.5566    1.7393 H   0  0  0  0  0  0  0  0  0  0  0  0
   11.8029    9.0089    1.2373 H   0  0  0  0  0  0  0  0  0  0  0  0
   13.8833    9.0581    1.1114 H   0  0  0  0  0  0  0  0  0  0  0  0
   15.0833    7.0602    0.8857 H   0  0  0  0  0  0  0  0  0  0  0  0
   13.3773    6.8823    0.3472 H   0  0  0  0  0  0  0  0  0  0  0  0
   13.9078    6.1866    1.9345 H   0  0  0  0  0  0  0  0  0  0  0  0
   15.5897    8.5020    2.6974 H   0  0  0  0  0  0  0  0  0  0  0  0
   14.5964    9.8059    3.0880 H   0  0  0  0  0  0  0  0  0  0  0  0
   14.3778    8.3021    3.8677 H   0  0  0  0  0  0  0  0  0  0  0  0
   12.5089   10.5640    3.0952 H   0  0  0  0  0  0  0  0  0  0  0  0
   12.0205    9.2944    4.2841 H   0  0  0  0  0  0  0  0  0  0  0  0
   10.1719   10.8879    3.8931 H   0  0  0  0  0  0  0  0  0  0  0  0
   10.3038   10.6871    2.1128 H   0  0  0  0  0  0  0  0  0  0  0  0
  1  2  1  0
  2  3  1  0
  3  4  1  0
  4  5  1  0
  5  6  2  0
  5  7  1  0
  7  8  1  0
  8  9  1  0
  9 10  1  0
 10 11  1  0
 11 12  1  0
 11 13  1  0
 10 14  1  0
 14 15  1  0
 15  7  1  0
  1 16  1  0
  1 17  1  0
  1 18  1  0
  2 19  1  0
  2 20  1  0
  3 21  1  0
  3 22  1  0
  4 23  1  0
  7 24  1  0
  8 25  1  0
  8 26  1  0
  9 27  1  0
  9 28  1  0
 10 29  1  0
 11 30  1  0
 12 31  1  0
 12 32  1  0
 12 33  1  0
 13 34  1  0
 13 35  1  0
 13 36  1  0
 14 37  1  0
 14 38  1  0
 15 39  1  0
 15 40  1  0
M  CHG  1  13   1
M  END
>  <EmbedRMS>  (163) 
0.2000484947854372

$$$$

     RDKit          3D

 47 48  0  0  0  0  0  0  0  0999 V2000
   14.0494    7.2192    1.1048 C   0  0  0  0  0  0  0  0  0  0  0  0
   13.6507    7.9554    2.3990 C   0  0  0  0  0  0  0  0  0  0  0  0
   14.6299    9.0156    2.6710 N   0  0  0  0  0  4  0  0  0  0  0  0
   12.2014    8.5116    2.2741 C   0  0  0  0  0  0  0  0  0  0  0  0
   11.1823    7.3649    2.4364 C   0  0  0  0  0  0  0  0  0  0  0  0
    9.7738    7.8705    2.1601 C   0  0  0  0  0  0  0  0  0  0  0  0
    9.4133    8.9922    3.1398 C   0  0  0  0  0  0  0  0  0  0  0  0
    8.0195    9.4781    2.8777 C   0  0  0  0  0  0  0  0  0  0  0  0
    7.6397    9.6920    1.6939 O   0  0  0  0  0  0  0  0  0  0  0  0
    7.1337    9.6898    3.9864 N   0  0  0  0  0  0  0  0  0  0  0  0
    5.7549   10.1657    3.8718 C   0  0  0  0  0  0  0  0  0  0  0  0
    4.8855    9.1641    3.0829 C   0  0  0  0  0  0  0  0  0  0  0  0
    3.5612    9.8131    2.6829 C   0  0  0  0  0  0  0  0  0  0  0  0
    3.7646   11.0414    1.7722 C   0  0  0  0  0  0  0  0  0  0  0  0
    5.1529   11.6939    1.8949 C   0  0  0  0  0  0  0  0  0  0  0  0
    5.7058   11.6135    3.3223 C   0  0  0  0  0  0  0  0  0  0  0  0
   10.4257   10.1477    3.0686 C   0  0  0  0  0  0  0  0  0  0  0  0
   11.8607    9.6377    3.2819 C   0  0  0  0  0  0  0  0  0  0  0  0
   13.4185    6.3265    0.9274 H   0  0  0  0  0  0  0  0  0  0  0  0
   15.0968    6.8576    1.1805 H   0  0  0  0  0  0  0  0  0  0  0  0
   13.9786    7.8972    0.2274 H   0  0  0  0  0  0  0  0  0  0  0  0
   13.6926    7.2248    3.2391 H   0  0  0  0  0  0  0  0  0  0  0  0
   14.4976    9.3931    3.6368 H   0  0  0  0  0  0  0  0  0  0  0  0
   15.6014    8.6298    2.6298 H   0  0  0  0  0  0  0  0  0  0  0  0
   14.5442    9.7863    1.9684 H   0  0  0  0  0  0  0  0  0  0  0  0
   12.0886    8.9468    1.2541 H   0  0  0  0  0  0  0  0  0  0  0  0
   11.3831    6.5447    1.7191 H   0  0  0  0  0  0  0  0  0  0  0  0
   11.2379    6.9378    3.4627 H   0  0  0  0  0  0  0  0  0  0  0  0
    9.7106    8.2296    1.1083 H   0  0  0  0  0  0  0  0  0  0  0  0
    9.0585    7.0268    2.2801 H   0  0  0  0  0  0  0  0  0  0  0  0
    9.4516    8.5656    4.1677 H   0  0  0  0  0  0  0  0  0  0  0  0
    7.4926    9.5016    4.9499 H   0  0  0  0  0  0  0  0  0  0  0  0
    5.3322   10.2054    4.9021 H   0  0  0  0  0  0  0  0  0  0  0  0
    4.6833    8.2735    3.7169 H   0  0  0  0  0  0  0  0  0  0  0  0
    5.3946    8.8067    2.1647 H   0  0  0  0  0  0  0  0  0  0  0  0
    2.9249    9.0653    2.1618 H   0  0  0  0  0  0  0  0  0  0  0  0
    3.0209   10.1231    3.6049 H   0  0  0  0  0  0  0  0  0  0  0  0
    2.9843   11.7957    2.0149 H   0  0  0  0  0  0  0  0  0  0  0  0
    3.6091   10.7424    0.7126 H   0  0  0  0  0  0  0  0  0  0  0  0
    5.0814   12.7610    1.5920 H   0  0  0  0  0  0  0  0  0  0  0  0
    5.8477   11.2098    1.1824 H   0  0  0  0  0  0  0  0  0  0  0  0
    6.7149   12.0799    3.3499 H   0  0  0  0  0  0  0  0  0  0  0  0
    5.0521   12.2301    3.9787 H   0  0  0  0  0  0  0  0  0  0  0  0
   10.1878   10.9002    3.8521 H   0  0  0  0  0  0  0  0  0  0  0  0
   10.3582   10.6503    2.0779 H   0  0  0  0  0  0  0  0  0  0  0  0
   11.9775    9.2660    4.3239 H   0  0  0  0  0  0  0  0  0  0  0  0
   12.5392   10.5050    3.1410 H   0  0  0  0  0  0  0  0  0  0  0  0
  1  2  1  0
  2  3  1  0
  2  4  1  0
  4  5  1  0
  5  6  1  0
  6  7  1  0
  7  8  1  0
  8  9  2  0
  8 10  1  0
 10 11  1  0
 11 12  1  0
 12 13  1  0
 13 14  1  0
 14 15  1  0
 15 16  1  0
  7 17  1  0
 17 18  1  0
 18  4  1  0
 16 11  1  0
  1 19  1  0
  1 20  1  0
  1 21  1  0
  2 22  1  0
  3 23  1  0
  3 24  1  0
  3 25  1  0
  4 26  1  0
  5 27  1  0
  5 28  1  0
  6 29  1  0
  6 30  1  0
  7 31  1  0
 10 32  1  0
 11 33  1  0
 12 34  1  0
 12 35  1  0
 13 36  1  0
 13 37  1  0
 14 38  1  0
 14 39  1  0
 15 40  1  0
 15 41  1  0
 16 42  1  0
 16 43  1  0
 17 44  1  0
 17 45  1  0
 18 46  1  0
 18 47  1  0
M  CHG  1   3   1
M  END
>  <EmbedRMS>  (164) 
0.03225401817650533

$$$$

     RDKit          3D

 48 48  0  0  0  0  0  0  0  0999 V2000
    4.8915   13.3074   -0.6287 C   0  0  0  0  0  0  0  0  0  0  0  0
    5.9776   13.0507    0.4086 C   0  0  0  0  0  0  0  0  0  0  0  0
    5.3579   12.5533    1.7080 C   0  0  0  0  0  0  0  0  0  0  0  0
    6.4036   12.3026    2.7032 N   0  0  0  0  0  0  0  0  0  0  0  0
    5.8116   11.7333    3.9200 C   0  0  0  0  0  0  0  0  0  0  0  0
    5.7860   10.2073    3.8470 C   0  0  0  0  0  0  0  0  0  0  0  0
    7.1366    9.6757    3.9898 N   0  0  0  0  0  0  0  0  0  0  0  0
    8.0105    9.4654    2.8768 C   0  0  0  0  0  0  0  0  0  0  0  0
    7.6077    9.6907    1.6997 O   0  0  0  0  0  0  0  0  0  0  0  0
    9.4201    8.9849    3.1181 C   0  0  0  0  0  0  0  0  0  0  0  0
    9.7831    7.9365    2.0731 C   0  0  0  0  0  0  0  0  0  0  0  0
   11.1462    7.3163    2.3190 C   0  0  0  0  0  0  0  0  0  0  0  0
   12.2321    8.2994    2.7953 C   0  0  0  0  0  0  0  0  0  0  0  0
   13.7095    7.9154    2.4297 C   0  0  0  0  0  0  0  0  0  0  0  0
   13.9324    7.3325    1.0260 C   0  0  0  0  0  0  0  0  0  0  0  0
   14.6477    9.0170    2.6729 N   0  0  0  0  0  4  0  0  0  0  0  0
   11.8844    9.7897    2.9954 C   0  0  0  0  0  0  0  0  0  0  0  0
   10.3919   10.1689    3.0610 C   0  0  0  0  0  0  0  0  0  0  0  0
    5.3569   13.6692   -1.5696 H   0  0  0  0  0  0  0  0  0  0  0  0
    4.3344   12.3715   -0.8479 H   0  0  0  0  0  0  0  0  0  0  0  0
    4.1823   14.0816   -0.2653 H   0  0  0  0  0  0  0  0  0  0  0  0
    6.5355   13.9946    0.5930 H   0  0  0  0  0  0  0  0  0  0  0  0
    6.6866   12.2888    0.0173 H   0  0  0  0  0  0  0  0  0  0  0  0
    4.6443   13.3210    2.0876 H   0  0  0  0  0  0  0  0  0  0  0  0
    4.7950   11.6173    1.4970 H   0  0  0  0  0  0  0  0  0  0  0  0
    6.8251   13.2269    2.9588 H   0  0  0  0  0  0  0  0  0  0  0  0
    6.4182   12.0330    4.8044 H   0  0  0  0  0  0  0  0  0  0  0  0
    4.7815   12.1178    4.1022 H   0  0  0  0  0  0  0  0  0  0  0  0
    5.3175    9.8464    2.9071 H   0  0  0  0  0  0  0  0  0  0  0  0
    5.1651    9.8266    4.6866 H   0  0  0  0  0  0  0  0  0  0  0  0
    7.4866    9.4806    4.9551 H   0  0  0  0  0  0  0  0  0  0  0  0
    9.4833    8.5141    4.1248 H   0  0  0  0  0  0  0  0  0  0  0  0
    9.0185    7.1275    2.0651 H   0  0  0  0  0  0  0  0  0  0  0  0
    9.7860    8.4054    1.0626 H   0  0  0  0  0  0  0  0  0  0  0  0
   11.0317    6.4812    3.0491 H   0  0  0  0  0  0  0  0  0  0  0  0
   11.4299    6.8353    1.3644 H   0  0  0  0  0  0  0  0  0  0  0  0
   12.2353    8.0293    3.8797 H   0  0  0  0  0  0  0  0  0  0  0  0
   14.0065    7.0857    3.1159 H   0  0  0  0  0  0  0  0  0  0  0  0
   13.5360    6.2979    0.9564 H   0  0  0  0  0  0  0  0  0  0  0  0
   13.4424    7.9752    0.2641 H   0  0  0  0  0  0  0  0  0  0  0  0
   15.0169    7.2742    0.7926 H   0  0  0  0  0  0  0  0  0  0  0  0
   14.5394    9.3818    3.6465 H   0  0  0  0  0  0  0  0  0  0  0  0
   15.6310    8.6705    2.5844 H   0  0  0  0  0  0  0  0  0  0  0  0
   14.5085    9.7867    1.9794 H   0  0  0  0  0  0  0  0  0  0  0  0
   12.3143   10.3484    2.1371 H   0  0  0  0  0  0  0  0  0  0  0  0
   12.3893   10.1921    3.9034 H   0  0  0  0  0  0  0  0  0  0  0  0
   10.1511   10.7893    2.1673 H   0  0  0  0  0  0  0  0  0  0  0  0
   10.2165   10.8170    3.9483 H   0  0  0  0  0  0  0  0  0  0  0  0
  1  2  1  0
  2  3  1  0
  3  4  1  0
  4  5  1  0
  5  6  1  0
  6  7  1  0
  7  8  1  0
  8  9  2  0
  8 10  1  0
 10 11  1  0
 11 12  1  0
 12 13  1  0
 13 14  1  0
 14 15  1  0
 14 16  1  0
 13 17  1  0
 17 18  1  0
 18 10  1  0
  1 19  1  0
  1 20  1  0
  1 21  1  0
  2 22  1  0
  2 23  1  0
  3 24  1  0
  3 25  1  0
  4 26  1  0
  5 27  1  0
  5 28  1  0
  6 29  1  0
  6 30  1  0
  7 31  1  0
 10 32  1  0
 11 33  1  0
 11 34  1  0
 12 35  1  0
 12 36  1  0
 13 37  1  0
 14 38  1  0
 15 39  1  0
 15 40  1  0
 15 41  1  0
 16 42  1  0
 16 43  1  0
 16 44  1  0
 17 45  1  0
 17 46  1  0
 18 47  1  0
 18 48  1  0
M  CHG  1  16   1
M  END
>  <EmbedRMS>  (165) 
0.16499967102600221

$$$$

     RDKit          3D

 45 45  0  0  0  0  0  0  0  0999 V2000
    1.3162    8.6480    2.4764 C   0  0  0  0  0  0  0  0  0  0  0  0
    2.7690    8.2394    2.6571 C   0  0  0  0  0  0  0  0  0  0  0  0
    3.5588    9.3719    3.1531 N   0  0  0  0  0  0  0  0  0  0  0  0
    4.9457    8.9370    3.3408 C   0  0  0  0  0  0  0  0  0  0  0  0
    5.8111   10.0828    3.8756 C   0  0  0  0  0  0  0  0  0  0  0  0
    7.2212    9.6714    3.9388 N   0  0  0  0  0  0  0  0  0  0  0  0
    7.9871    9.5236    2.7309 C   0  0  0  0  0  0  0  0  0  0  0  0
    7.4226    9.7001    1.6228 O   0  0  0  0  0  0  0  0  0  0  0  0
    9.4479    9.1954    2.6571 C   0  0  0  0  0  0  0  0  0  0  0  0
    9.7662    7.7150    2.4336 C   0  0  0  0  0  0  0  0  0  0  0  0
   11.2648    7.3640    2.5399 C   0  0  0  0  0  0  0  0  0  0  0  0
   12.1448    8.5862    2.2323 C   0  0  0  0  0  0  0  0  0  0  0  0
   13.6556    8.3392    1.9331 C   0  0  0  0  0  0  0  0  0  0  0  0
   14.0143    7.0441    1.2245 C   0  0  0  0  0  0  0  0  0  0  0  0
   14.6184    8.7732    2.9398 N   0  0  0  0  0  4  0  0  0  0  0  0
   11.8922    9.6845    3.2853 C   0  0  0  0  0  0  0  0  0  0  0  0
   10.4083   10.0818    3.4329 C   0  0  0  0  0  0  0  0  0  0  0  0
    1.2358    9.4590    1.7217 H   0  0  0  0  0  0  0  0  0  0  0  0
    0.7229    7.7764    2.1277 H   0  0  0  0  0  0  0  0  0  0  0  0
    0.8974    9.0039    3.4416 H   0  0  0  0  0  0  0  0  0  0  0  0
    2.8047    7.3991    3.3860 H   0  0  0  0  0  0  0  0  0  0  0  0
    3.1635    7.8833    1.6781 H   0  0  0  0  0  0  0  0  0  0  0  0
    3.5555   10.1116    2.4109 H   0  0  0  0  0  0  0  0  0  0  0  0
    5.3566    8.5628    2.3778 H   0  0  0  0  0  0  0  0  0  0  0  0
    4.9851    8.1045    4.0788 H   0  0  0  0  0  0  0  0  0  0  0  0
    5.4617   10.3551    4.8951 H   0  0  0  0  0  0  0  0  0  0  0  0
    5.7127   10.9819    3.2288 H   0  0  0  0  0  0  0  0  0  0  0  0
    7.6863    9.5527    4.8663 H   0  0  0  0  0  0  0  0  0  0  0  0
    9.6891    9.5852    1.6385 H   0  0  0  0  0  0  0  0  0  0  0  0
    9.3835    7.3966    1.4368 H   0  0  0  0  0  0  0  0  0  0  0  0
    9.2157    7.1152    3.1908 H   0  0  0  0  0  0  0  0  0  0  0  0
   11.4737    6.5317    1.8364 H   0  0  0  0  0  0  0  0  0  0  0  0
   11.4958    6.9999    3.5652 H   0  0  0  0  0  0  0  0  0  0  0  0
   11.7524    8.9793    1.2652 H   0  0  0  0  0  0  0  0  0  0  0  0
   13.8459    9.0645    1.1030 H   0  0  0  0  0  0  0  0  0  0  0  0
   13.3413    6.8735    0.3567 H   0  0  0  0  0  0  0  0  0  0  0  0
   13.9244    6.1928    1.9314 H   0  0  0  0  0  0  0  0  0  0  0  0
   15.0594    7.0779    0.8479 H   0  0  0  0  0  0  0  0  0  0  0  0
   15.5937    8.5539    2.6315 H   0  0  0  0  0  0  0  0  0  0  0  0
   14.5676    9.8044    3.1018 H   0  0  0  0  0  0  0  0  0  0  0  0
   14.4339    8.2659    3.8350 H   0  0  0  0  0  0  0  0  0  0  0  0
   12.4575   10.5992    3.0035 H   0  0  0  0  0  0  0  0  0  0  0  0
   12.2747    9.3420    4.2719 H   0  0  0  0  0  0  0  0  0  0  0  0
   10.2702   11.1451    3.1293 H   0  0  0  0  0  0  0  0  0  0  0  0
   10.1366   10.0251    4.5091 H   0  0  0  0  0  0  0  0  0  0  0  0
  1  2  1  0
  2  3  1  0
  3  4  1  0
  4  5  1  0
  5  6  1  0
  6  7  1  0
  7  8  2  0
  7  9  1  0
  9 10  1  0
 10 11  1  0
 11 12  1  0
 12 13  1  0
 13 14  1  0
 13 15  1  0
 12 16  1  0
 16 17  1  0
 17  9  1  0
  1 18  1  0
  1 19  1  0
  1 20  1  0
  2 21  1  0
  2 22  1  0
  3 23  1  0
  4 24  1  0
  4 25  1  0
  5 26  1  0
  5 27  1  0
  6 28  1  0
  9 29  1  0
 10 30  1  0
 10 31  1  0
 11 32  1  0
 11 33  1  0
 12 34  1  0
 13 35  1  0
 14 36  1  0
 14 37  1  0
 14 38  1  0
 15 39  1  0
 15 40  1  0
 15 41  1  0
 16 42  1  0
 16 43  1  0
 17 44  1  0
 17 45  1  0
M  CHG  1  15   1
M  END
>  <EmbedRMS>  (166) 
0.25842907567579826

$$$$

     RDKit          3D

 38 38  0  0  0  0  0  0  0  0999 V2000
   14.0222    7.0423    1.2252 C   0  0  0  0  0  0  0  0  0  0  0  0
   13.6638    8.3372    1.9335 C   0  0  0  0  0  0  0  0  0  0  0  0
   14.6218    8.7703    2.9443 N   0  0  0  0  0  4  0  0  0  0  0  0
   12.1540    8.5823    2.2276 C   0  0  0  0  0  0  0  0  0  0  0  0
   11.2718    7.3610    2.5346 C   0  0  0  0  0  0  0  0  0  0  0  0
    9.7749    7.7128    2.4176 C   0  0  0  0  0  0  0  0  0  0  0  0
    9.4666    9.1993    2.5872 C   0  0  0  0  0  0  0  0  0  0  0  0
    8.0126    9.5186    2.6617 C   0  0  0  0  0  0  0  0  0  0  0  0
    7.4163    9.6947    1.5753 O   0  0  0  0  0  0  0  0  0  0  0  0
    7.3056    9.6235    3.8816 N   0  0  0  0  0  0  0  0  0  0  0  0
    5.9482   10.0693    3.9970 C   0  0  0  0  0  0  0  0  0  0  0  0
    5.2470   10.3681    2.9794 O   0  0  0  0  0  0  0  0  0  0  0  0
    5.4563   10.1434    5.4040 C   0  0  0  0  0  0  0  0  0  0  0  0
    5.2274   11.4331    5.8579 O   0  0  0  0  0  0  0  0  0  0  0  0
    4.5077    9.1893    5.7288 O   0  0  0  0  0  0  0  0  0  0  0  0
   10.4083   10.0808    3.3971 C   0  0  0  0  0  0  0  0  0  0  0  0
   11.8937    9.6852    3.2735 C   0  0  0  0  0  0  0  0  0  0  0  0
   13.3512    6.8729    0.3555 H   0  0  0  0  0  0  0  0  0  0  0  0
   13.9300    6.1906    1.9313 H   0  0  0  0  0  0  0  0  0  0  0  0
   15.0683    7.0752    0.8512 H   0  0  0  0  0  0  0  0  0  0  0  0
   13.8585    9.0631    1.1047 H   0  0  0  0  0  0  0  0  0  0  0  0
   14.5716    9.8016    3.1057 H   0  0  0  0  0  0  0  0  0  0  0  0
   14.4322    8.2638    3.8388 H   0  0  0  0  0  0  0  0  0  0  0  0
   15.5983    8.5492    2.6408 H   0  0  0  0  0  0  0  0  0  0  0  0
   11.7693    8.9697    1.2554 H   0  0  0  0  0  0  0  0  0  0  0  0
   11.4967    7.0006    3.5626 H   0  0  0  0  0  0  0  0  0  0  0  0
   11.4848    6.5259    1.8357 H   0  0  0  0  0  0  0  0  0  0  0  0
    9.2226    7.1408    3.1950 H   0  0  0  0  0  0  0  0  0  0  0  0
    9.3911    7.3652    1.4312 H   0  0  0  0  0  0  0  0  0  0  0  0
    9.7115    9.5784    1.5664 H   0  0  0  0  0  0  0  0  0  0  0  0
    7.8482    9.3452    4.7296 H   0  0  0  0  0  0  0  0  0  0  0  0
    6.3046    9.8263    6.0473 H   0  0  0  0  0  0  0  0  0  0  0  0
    4.8627   11.3578    6.7788 H   0  0  0  0  0  0  0  0  0  0  0  0
    3.6582    9.4999    5.3206 H   0  0  0  0  0  0  0  0  0  0  0  0
   10.2754   11.1451    3.0964 H   0  0  0  0  0  0  0  0  0  0  0  0
   10.1201   10.0163    4.4682 H   0  0  0  0  0  0  0  0  0  0  0  0
   12.2644    9.3467    4.2661 H   0  0  0  0  0  0  0  0  0  0  0  0
   12.4623   10.5983    2.9934 H   0  0  0  0  0  0  0  0  0  0  0  0
  1  2  1  0
  2  3  1  0
  2  4  1  0
  4  5  1  0
  5  6  1  0
  6  7  1  0
  7  8  1  0
  8  9  2  0
  8 10  1  0
 10 11  1  0
 11 12  2  0
 11 13  1  0
 13 14  1  0
 13 15  1  0
  7 16  1  0
 16 17  1  0
 17  4  1  0
  1 18  1  0
  1 19  1  0
  1 20  1  0
  2 21  1  0
  3 22  1  0
  3 23  1  0
  3 24  1  0
  4 25  1  0
  5 26  1  0
  5 27  1  0
  6 28  1  0
  6 29  1  0
  7 30  1  0
 10 31  1  0
 13 32  1  0
 14 33  1  0
 15 34  1  0
 16 35  1  0
 16 36  1  0
 17 37  1  0
 17 38  1  0
M  CHG  1   3   1
M  END
>  <EmbedRMS>  (167) 
0.34070605611656996

$$$$

     RDKit          3D

 44 45  0  0  0  0  0  0  0  0999 V2000
   14.0267    7.0401    1.2345 C   0  0  0  0  0  0  0  0  0  0  0  0
   13.6677    8.3369    1.9399 C   0  0  0  0  0  0  0  0  0  0  0  0
   14.6122    8.7693    2.9622 N   0  0  0  0  0  4  0  0  0  0  0  0
   12.1560    8.5905    2.2126 C   0  0  0  0  0  0  0  0  0  0  0  0
   11.2388    7.3779    2.4534 C   0  0  0  0  0  0  0  0  0  0  0  0
    9.7860    7.8251    2.2158 C   0  0  0  0  0  0  0  0  0  0  0  0
    9.4085    8.9843    3.1580 C   0  0  0  0  0  0  0  0  0  0  0  0
    8.0095    9.4641    2.8837 C   0  0  0  0  0  0  0  0  0  0  0  0
    7.6245    9.6785    1.6992 O   0  0  0  0  0  0  0  0  0  0  0  0
    7.1245    9.6921    3.9864 N   0  0  0  0  0  0  0  0  0  0  0  0
    5.7673   10.1932    3.8174 C   0  0  0  0  0  0  0  0  0  0  0  0
    5.7967   11.6680    3.5471 C   0  0  0  0  0  0  0  0  0  0  0  0
    5.5831   12.1556    2.2521 C   0  0  0  0  0  0  0  0  0  0  0  0
    5.6258   13.5309    2.0212 C   0  0  0  0  0  0  0  0  0  0  0  0
    5.8789   14.3904    3.0455 N   0  0  0  0  0  0  0  0  0  0  0  0
    6.1004   13.9407    4.3123 C   0  0  0  0  0  0  0  0  0  0  0  0
    6.3344   14.7600    5.2401 O   0  0  0  0  0  0  0  0  0  0  0  0
    6.0682   12.5700    4.5847 C   0  0  0  0  0  0  0  0  0  0  0  0
   10.4034   10.1590    3.0894 C   0  0  0  0  0  0  0  0  0  0  0  0
   11.8538    9.6817    3.2546 C   0  0  0  0  0  0  0  0  0  0  0  0
   15.0817    7.0610    0.8856 H   0  0  0  0  0  0  0  0  0  0  0  0
   13.9067    6.1872    1.9349 H   0  0  0  0  0  0  0  0  0  0  0  0
   13.3754    6.8825    0.3478 H   0  0  0  0  0  0  0  0  0  0  0  0
   13.8811    9.0586    1.1116 H   0  0  0  0  0  0  0  0  0  0  0  0
   15.5885    8.5037    2.6965 H   0  0  0  0  0  0  0  0  0  0  0  0
   14.5942    9.8065    3.0885 H   0  0  0  0  0  0  0  0  0  0  0  0
   14.3774    8.3022    3.8675 H   0  0  0  0  0  0  0  0  0  0  0  0
   11.8003    9.0091    1.2380 H   0  0  0  0  0  0  0  0  0  0  0  0
   11.4605    6.5579    1.7402 H   0  0  0  0  0  0  0  0  0  0  0  0
   11.3694    6.9871    3.4863 H   0  0  0  0  0  0  0  0  0  0  0  0
    9.1111    6.9620    2.4065 H   0  0  0  0  0  0  0  0  0  0  0  0
    9.6547    8.1248    1.1519 H   0  0  0  0  0  0  0  0  0  0  0  0
    9.4446    8.5805    4.1949 H   0  0  0  0  0  0  0  0  0  0  0  0
    7.4565    9.4989    4.9583 H   0  0  0  0  0  0  0  0  0  0  0  0
    5.2556    9.6370    3.0016 H   0  0  0  0  0  0  0  0  0  0  0  0
    5.1883   10.0070    4.7481 H   0  0  0  0  0  0  0  0  0  0  0  0
    5.3820   11.4808    1.4295 H   0  0  0  0  0  0  0  0  0  0  0  0
    5.4573   13.9139    1.0226 H   0  0  0  0  0  0  0  0  0  0  0  0
    5.9051   15.4166    2.8489 H   0  0  0  0  0  0  0  0  0  0  0  0
    6.2484   12.2107    5.5913 H   0  0  0  0  0  0  0  0  0  0  0  0
   10.2984   10.6859    2.1144 H   0  0  0  0  0  0  0  0  0  0  0  0
   10.1698   10.8901    3.8942 H   0  0  0  0  0  0  0  0  0  0  0  0
   12.5062   10.5654    3.0942 H   0  0  0  0  0  0  0  0  0  0  0  0
   12.0201    9.2964    4.2845 H   0  0  0  0  0  0  0  0  0  0  0  0
  1  2  1  0
  2  3  1  0
  2  4  1  0
  4  5  1  0
  5  6  1  0
  6  7  1  0
  7  8  1  0
  8  9  2  0
  8 10  1  0
 10 11  1  0
 11 12  1  0
 12 13  1  0
 13 14  2  0
 14 15  1  0
 15 16  1  0
 16 17  2  0
 16 18  1  0
  7 19  1  0
 19 20  1  0
 20  4  1  0
 18 12  2  0
  1 21  1  0
  1 22  1  0
  1 23  1  0
  2 24  1  0
  3 25  1  0
  3 26  1  0
  3 27  1  0
  4 28  1  0
  5 29  1  0
  5 30  1  0
  6 31  1  0
  6 32  1  0
  7 33  1  0
 10 34  1  0
 11 35  1  0
 11 36  1  0
 13 37  1  0
 14 38  1  0
 15 39  1  0
 18 40  1  0
 19 41  1  0
 19 42  1  0
 20 43  1  0
 20 44  1  0
M  CHG  1   3   1
M  END
>  <EmbedRMS>  (168) 
0.17308315428879256

$$$$

     RDKit          3D

 47 48  0  0  0  0  0  0  0  0999 V2000
    4.7298   11.2329    1.2004 C   0  0  0  0  0  0  0  0  0  0  0  0
    5.3138   12.1441    2.2473 C   0  0  0  0  0  0  0  0  0  0  0  0
    5.3511   13.5258    1.9941 C   0  0  0  0  0  0  0  0  0  0  0  0
    5.8452   14.4116    2.9519 C   0  0  0  0  0  0  0  0  0  0  0  0
    6.3088   13.9314    4.1756 C   0  0  0  0  0  0  0  0  0  0  0  0
    6.2820   12.5622    4.4445 C   0  0  0  0  0  0  0  0  0  0  0  0
    5.7871   11.6542    3.4906 C   0  0  0  0  0  0  0  0  0  0  0  0
    5.7789   10.1855    3.8378 C   0  0  0  0  0  0  0  0  0  0  0  0
    7.1442    9.6952    3.9866 N   0  0  0  0  0  0  0  0  0  0  0  0
    8.0145    9.4670    2.8714 C   0  0  0  0  0  0  0  0  0  0  0  0
    7.6166    9.6840    1.6942 O   0  0  0  0  0  0  0  0  0  0  0  0
    9.4183    8.9869    3.1124 C   0  0  0  0  0  0  0  0  0  0  0  0
    9.8000    7.9217    2.0865 C   0  0  0  0  0  0  0  0  0  0  0  0
   11.1597    7.3122    2.3949 C   0  0  0  0  0  0  0  0  0  0  0  0
   12.2765    8.3218    2.7732 C   0  0  0  0  0  0  0  0  0  0  0  0
   13.5815    8.3570    1.9537 C   0  0  0  0  0  0  0  0  0  0  0  0
   13.9847    7.0983    1.1858 C   0  0  0  0  0  0  0  0  0  0  0  0
   14.7119    8.8840    2.7305 N   0  0  0  0  0  4  0  0  0  0  0  0
   11.8334    9.7200    3.3034 C   0  0  0  0  0  0  0  0  0  0  0  0
   10.3978   10.1508    3.0099 C   0  0  0  0  0  0  0  0  0  0  0  0
    4.4124   11.7976    0.2980 H   0  0  0  0  0  0  0  0  0  0  0  0
    5.4669   10.4782    0.8713 H   0  0  0  0  0  0  0  0  0  0  0  0
    3.8312   10.7231    1.6067 H   0  0  0  0  0  0  0  0  0  0  0  0
    4.9903   13.9248    1.0540 H   0  0  0  0  0  0  0  0  0  0  0  0
    5.8669   15.4740    2.7457 H   0  0  0  0  0  0  0  0  0  0  0  0
    6.6911   14.6209    4.9172 H   0  0  0  0  0  0  0  0  0  0  0  0
    6.6471   12.2062    5.4002 H   0  0  0  0  0  0  0  0  0  0  0  0
    5.2408   10.0581    4.8023 H   0  0  0  0  0  0  0  0  0  0  0  0
    5.2411    9.5570    3.1005 H   0  0  0  0  0  0  0  0  0  0  0  0
    7.4942    9.5033    4.9525 H   0  0  0  0  0  0  0  0  0  0  0  0
    9.4800    8.5436    4.1320 H   0  0  0  0  0  0  0  0  0  0  0  0
    9.8282    8.3622    1.0643 H   0  0  0  0  0  0  0  0  0  0  0  0
    9.0370    7.1114    2.0823 H   0  0  0  0  0  0  0  0  0  0  0  0
   11.0073    6.5945    3.2346 H   0  0  0  0  0  0  0  0  0  0  0  0
   11.4423    6.6852    1.5293 H   0  0  0  0  0  0  0  0  0  0  0  0
   12.6582    7.8402    3.7046 H   0  0  0  0  0  0  0  0  0  0  0  0
   13.3817    9.1007    1.1482 H   0  0  0  0  0  0  0  0  0  0  0  0
   13.9865    6.2212    1.8669 H   0  0  0  0  0  0  0  0  0  0  0  0
   15.0016    7.2109    0.7533 H   0  0  0  0  0  0  0  0  0  0  0  0
   13.2944    6.9112    0.3366 H   0  0  0  0  0  0  0  0  0  0  0  0
   14.4926    9.7904    3.1970 H   0  0  0  0  0  0  0  0  0  0  0  0
   15.5297    9.0532    2.1003 H   0  0  0  0  0  0  0  0  0  0  0  0
   14.9949    8.1903    3.4606 H   0  0  0  0  0  0  0  0  0  0  0  0
   12.4767   10.5266    2.8940 H   0  0  0  0  0  0  0  0  0  0  0  0
   11.9705    9.7524    4.4087 H   0  0  0  0  0  0  0  0  0  0  0  0
   10.1059   10.9525    3.7245 H   0  0  0  0  0  0  0  0  0  0  0  0
   10.3530   10.5869    1.9861 H   0  0  0  0  0  0  0  0  0  0  0  0
  1  2  1  0
  2  3  2  0
  3  4  1  0
  4  5  2  0
  5  6  1  0
  6  7  2  0
  7  8  1  0
  8  9  1  0
  9 10  1  0
 10 11  2  0
 10 12  1  0
 12 13  1  0
 13 14  1  0
 14 15  1  0
 15 16  1  0
 16 17  1  0
 16 18  1  0
 15 19  1  0
 19 20  1  0
  7  2  1  0
 20 12  1  0
  1 21  1  0
  1 22  1  0
  1 23  1  0
  3 24  1  0
  4 25  1  0
  5 26  1  0
  6 27  1  0
  8 28  1  0
  8 29  1  0
  9 30  1  0
 12 31  1  0
 13 32  1  0
 13 33  1  0
 14 34  1  0
 14 35  1  0
 15 36  1  0
 16 37  1  0
 17 38  1  0
 17 39  1  0
 17 40  1  0
 18 41  1  0
 18 42  1  0
 18 43  1  0
 19 44  1  0
 19 45  1  0
 20 46  1  0
 20 47  1  0
M  CHG  1  18   1
M  END
>  <EmbedRMS>  (169) 
0.19204016474732244

$$$$

     RDKit          3D

 44 44  0  0  0  0  0  0  0  0999 V2000
    4.9254    9.2292    2.9373 C   0  0  0  0  0  0  0  0  0  0  0  0
    5.8171    9.6017    4.0950 C   0  0  0  0  0  0  0  0  0  0  0  0
    5.1715   10.4822    5.1684 C   0  0  0  0  0  0  0  0  0  0  0  0
    5.2387    9.6493    6.4505 C   0  0  0  0  0  0  0  0  0  0  0  0
    4.6831   10.3203    7.5255 O   0  0  0  0  0  0  0  0  0  0  0  0
    7.2094    9.9547    3.8836 N   0  0  0  0  0  0  0  0  0  0  0  0
    8.0117    9.4894    2.8120 C   0  0  0  0  0  0  0  0  0  0  0  0
    7.6039    9.6342    1.6293 O   0  0  0  0  0  0  0  0  0  0  0  0
    9.4097    8.9904    3.0935 C   0  0  0  0  0  0  0  0  0  0  0  0
    9.7897    7.9360    2.0613 C   0  0  0  0  0  0  0  0  0  0  0  0
   11.1451    7.3116    2.3337 C   0  0  0  0  0  0  0  0  0  0  0  0
   12.2327    8.2980    2.7991 C   0  0  0  0  0  0  0  0  0  0  0  0
   13.7092    7.9141    2.4297 C   0  0  0  0  0  0  0  0  0  0  0  0
   13.9296    7.3336    1.0247 C   0  0  0  0  0  0  0  0  0  0  0  0
   14.6480    9.0153    2.6733 N   0  0  0  0  0  4  0  0  0  0  0  0
   11.8847    9.7880    2.9885 C   0  0  0  0  0  0  0  0  0  0  0  0
   10.3933   10.1681    3.0642 C   0  0  0  0  0  0  0  0  0  0  0  0
    4.7544   10.1231    2.3017 H   0  0  0  0  0  0  0  0  0  0  0  0
    5.3846    8.4314    2.3137 H   0  0  0  0  0  0  0  0  0  0  0  0
    3.9423    8.8590    3.3021 H   0  0  0  0  0  0  0  0  0  0  0  0
    5.9259    8.5655    4.4991 H   0  0  0  0  0  0  0  0  0  0  0  0
    4.1089   10.7063    4.9289 H   0  0  0  0  0  0  0  0  0  0  0  0
    5.7154   11.4442    5.2927 H   0  0  0  0  0  0  0  0  0  0  0  0
    6.2933    9.3762    6.6922 H   0  0  0  0  0  0  0  0  0  0  0  0
    4.6591    8.7078    6.3235 H   0  0  0  0  0  0  0  0  0  0  0  0
    5.3218   11.0386    7.7752 H   0  0  0  0  0  0  0  0  0  0  0  0
    7.7362   10.2840    4.7253 H   0  0  0  0  0  0  0  0  0  0  0  0
    9.4310    8.5219    4.1032 H   0  0  0  0  0  0  0  0  0  0  0  0
    9.8152    8.4006    1.0491 H   0  0  0  0  0  0  0  0  0  0  0  0
    9.0219    7.1302    2.0419 H   0  0  0  0  0  0  0  0  0  0  0  0
   11.4349    6.8050    1.3945 H   0  0  0  0  0  0  0  0  0  0  0  0
   11.0156    6.4949    3.0818 H   0  0  0  0  0  0  0  0  0  0  0  0
   12.2416    8.0361    3.8856 H   0  0  0  0  0  0  0  0  0  0  0  0
   14.0070    7.0833    3.1142 H   0  0  0  0  0  0  0  0  0  0  0  0
   13.4326    7.9740    0.2655 H   0  0  0  0  0  0  0  0  0  0  0  0
   15.0134    7.2816    0.7864 H   0  0  0  0  0  0  0  0  0  0  0  0
   13.5390    6.2968    0.9555 H   0  0  0  0  0  0  0  0  0  0  0  0
   14.5070    9.7869    1.9822 H   0  0  0  0  0  0  0  0  0  0  0  0
   14.5423    9.3774    3.6481 H   0  0  0  0  0  0  0  0  0  0  0  0
   15.6311    8.6692    2.5814 H   0  0  0  0  0  0  0  0  0  0  0  0
   12.3063   10.3365    2.1194 H   0  0  0  0  0  0  0  0  0  0  0  0
   12.3990   10.2012    3.8863 H   0  0  0  0  0  0  0  0  0  0  0  0
   10.2226   10.7963    3.9664 H   0  0  0  0  0  0  0  0  0  0  0  0
   10.1567   10.8128    2.1866 H   0  0  0  0  0  0  0  0  0  0  0  0
  1  2  1  0
  2  3  1  0
  3  4  1  0
  4  5  1  0
  2  6  1  0
  6  7  1  0
  7  8  2  0
  7  9  1  0
  9 10  1  0
 10 11  1  0
 11 12  1  0
 12 13  1  0
 13 14  1  0
 13 15  1  0
 12 16  1  0
 16 17  1  0
 17  9  1  0
  1 18  1  0
  1 19  1  0
  1 20  1  0
  2 21  1  0
  3 22  1  0
  3 23  1  0
  4 24  1  0
  4 25  1  0
  5 26  1  0
  6 27  1  0
  9 28  1  0
 10 29  1  0
 10 30  1  0
 11 31  1  0
 11 32  1  0
 12 33  1  0
 13 34  1  0
 14 35  1  0
 14 36  1  0
 14 37  1  0
 15 38  1  0
 15 39  1  0
 15 40  1  0
 16 41  1  0
 16 42  1  0
 17 43  1  0
 17 44  1  0
M  CHG  1  15   1
M  END
>  <EmbedRMS>  (170) 
0.26860030186857947

$$$$

     RDKit          3D

 47 47  0  0  0  0  0  0  0  0999 V2000
    0.6358    8.4627    3.8545 C   0  0  0  0  0  0  0  0  0  0  0  0
    1.3997    8.6698    2.5444 C   0  0  0  0  0  0  0  0  0  0  0  0
    2.8071    8.2807    2.6696 N   0  0  0  0  0  0  0  0  0  0  0  0
    3.5343    9.3625    3.2077 N   0  0  0  0  0  0  0  0  0  0  0  0
    4.9349    8.9661    3.2952 C   0  0  0  0  0  0  0  0  0  0  0  0
    5.7631   10.1377    3.8036 C   0  0  0  0  0  0  0  0  0  0  0  0
    7.1459    9.7258    3.9835 N   0  0  0  0  0  0  0  0  0  0  0  0
    8.0194    9.4684    2.8804 C   0  0  0  0  0  0  0  0  0  0  0  0
    7.6330    9.6774    1.6951 O   0  0  0  0  0  0  0  0  0  0  0  0
    9.4136    8.9845    3.1567 C   0  0  0  0  0  0  0  0  0  0  0  0
    9.7887    7.8246    2.2151 C   0  0  0  0  0  0  0  0  0  0  0  0
   11.2409    7.3770    2.4530 C   0  0  0  0  0  0  0  0  0  0  0  0
   12.1582    8.5896    2.2123 C   0  0  0  0  0  0  0  0  0  0  0  0
   13.6695    8.3361    1.9394 C   0  0  0  0  0  0  0  0  0  0  0  0
   14.0279    7.0394    1.2341 C   0  0  0  0  0  0  0  0  0  0  0  0
   14.6140    8.7683    2.9619 N   0  0  0  0  0  4  0  0  0  0  0  0
   11.8575    9.6804    3.2550 C   0  0  0  0  0  0  0  0  0  0  0  0
   10.4085   10.1587    3.0896 C   0  0  0  0  0  0  0  0  0  0  0  0
   -0.4360    8.7046    3.6945 H   0  0  0  0  0  0  0  0  0  0  0  0
    1.0215    9.1279    4.6536 H   0  0  0  0  0  0  0  0  0  0  0  0
    0.7072    7.4052    4.1864 H   0  0  0  0  0  0  0  0  0  0  0  0
    0.9301    8.0372    1.7614 H   0  0  0  0  0  0  0  0  0  0  0  0
    1.3072    9.7284    2.2126 H   0  0  0  0  0  0  0  0  0  0  0  0
    2.8884    7.4464    3.3016 H   0  0  0  0  0  0  0  0  0  0  0  0
    3.2047    9.5325    4.1881 H   0  0  0  0  0  0  0  0  0  0  0  0
    5.2970    8.6608    2.2891 H   0  0  0  0  0  0  0  0  0  0  0  0
    5.0519    8.1063    3.9943 H   0  0  0  0  0  0  0  0  0  0  0  0
    5.3582   10.4812    4.7808 H   0  0  0  0  0  0  0  0  0  0  0  0
    5.7103   10.9888    3.0899 H   0  0  0  0  0  0  0  0  0  0  0  0
    7.5179    9.6597    4.9580 H   0  0  0  0  0  0  0  0  0  0  0  0
    9.4456    8.5804    4.1938 H   0  0  0  0  0  0  0  0  0  0  0  0
    9.6578    8.1235    1.1509 H   0  0  0  0  0  0  0  0  0  0  0  0
    9.1130    6.9623    2.4067 H   0  0  0  0  0  0  0  0  0  0  0  0
   11.3713    6.9862    3.4859 H   0  0  0  0  0  0  0  0  0  0  0  0
   11.4624    6.5570    1.7398 H   0  0  0  0  0  0  0  0  0  0  0  0
   11.8025    9.0087    1.2379 H   0  0  0  0  0  0  0  0  0  0  0  0
   13.8830    9.0578    1.1111 H   0  0  0  0  0  0  0  0  0  0  0  0
   13.3766    6.8819    0.3473 H   0  0  0  0  0  0  0  0  0  0  0  0
   13.9078    6.1864    1.9345 H   0  0  0  0  0  0  0  0  0  0  0  0
   15.0829    7.0598    0.8851 H   0  0  0  0  0  0  0  0  0  0  0  0
   14.3783    8.3023    3.8674 H   0  0  0  0  0  0  0  0  0  0  0  0
   14.5975    9.8057    3.0871 H   0  0  0  0  0  0  0  0  0  0  0  0
   15.5900    8.5012    2.6969 H   0  0  0  0  0  0  0  0  0  0  0  0
   12.0232    9.2942    4.2846 H   0  0  0  0  0  0  0  0  0  0  0  0
   12.5105   10.5637    3.0952 H   0  0  0  0  0  0  0  0  0  0  0  0
   10.3049   10.6866    2.1149 H   0  0  0  0  0  0  0  0  0  0  0  0
   10.1756   10.8891    3.8952 H   0  0  0  0  0  0  0  0  0  0  0  0
  1  2  1  0
  2  3  1  0
  3  4  1  0
  4  5  1  0
  5  6  1  0
  6  7  1  0
  7  8  1  0
  8  9  2  0
  8 10  1  0
 10 11  1  0
 11 12  1  0
 12 13  1  0
 13 14  1  0
 14 15  1  0
 14 16  1  0
 13 17  1  0
 17 18  1  0
 18 10  1  0
  1 19  1  0
  1 20  1  0
  1 21  1  0
  2 22  1  0
  2 23  1  0
  3 24  1  0
  4 25  1  0
  5 26  1  0
  5 27  1  0
  6 28  1  0
  6 29  1  0
  7 30  1  0
 10 31  1  0
 11 32  1  0
 11 33  1  0
 12 34  1  0
 12 35  1  0
 13 36  1  0
 14 37  1  0
 15 38  1  0
 15 39  1  0
 15 40  1  0
 16 41  1  0
 16 42  1  0
 16 43  1  0
 17 44  1  0
 17 45  1  0
 18 46  1  0
 18 47  1  0
M  CHG  1  16   1
M  END
>  <EmbedRMS>  (171) 
0.18414756709132454

$$$$

     RDKit          3D

 41 41  0  0  0  0  0  0  0  0999 V2000
    4.6460   11.6759    7.1724 C   0  0  0  0  0  0  0  0  0  0  0  0
    5.2633   11.4940    5.8659 N   0  0  0  0  0  0  0  0  0  0  0  0
    5.1493   10.2629    5.1439 C   0  0  0  0  0  0  0  0  0  0  0  0
    4.5014    9.2956    5.6277 O   0  0  0  0  0  0  0  0  0  0  0  0
    5.8086   10.1135    3.8127 C   0  0  0  0  0  0  0  0  0  0  0  0
    7.2095    9.6833    3.9371 N   0  0  0  0  0  0  0  0  0  0  0  0
    7.9808    9.5180    2.7350 C   0  0  0  0  0  0  0  0  0  0  0  0
    7.4142    9.6752    1.6244 O   0  0  0  0  0  0  0  0  0  0  0  0
    9.4440    9.1935    2.6630 C   0  0  0  0  0  0  0  0  0  0  0  0
    9.7658    7.7143    2.4337 C   0  0  0  0  0  0  0  0  0  0  0  0
   11.2644    7.3644    2.5408 C   0  0  0  0  0  0  0  0  0  0  0  0
   12.1433    8.5869    2.2329 C   0  0  0  0  0  0  0  0  0  0  0  0
   13.6544    8.3400    1.9332 C   0  0  0  0  0  0  0  0  0  0  0  0
   14.0135    7.0449    1.2245 C   0  0  0  0  0  0  0  0  0  0  0  0
   14.6174    8.7741    2.9396 N   0  0  0  0  0  4  0  0  0  0  0  0
   11.8904    9.6848    3.2864 C   0  0  0  0  0  0  0  0  0  0  0  0
   10.4058   10.0816    3.4356 C   0  0  0  0  0  0  0  0  0  0  0  0
    3.5459   11.5501    7.0899 H   0  0  0  0  0  0  0  0  0  0  0  0
    4.8632   12.6960    7.5536 H   0  0  0  0  0  0  0  0  0  0  0  0
    5.0530   10.9310    7.8883 H   0  0  0  0  0  0  0  0  0  0  0  0
    5.8124   12.2820    5.4541 H   0  0  0  0  0  0  0  0  0  0  0  0
    5.2457    9.3665    3.2110 H   0  0  0  0  0  0  0  0  0  0  0  0
    5.7655   11.0860    3.2759 H   0  0  0  0  0  0  0  0  0  0  0  0
    7.6527    9.5270    4.8705 H   0  0  0  0  0  0  0  0  0  0  0  0
    9.6833    9.5857    1.6449 H   0  0  0  0  0  0  0  0  0  0  0  0
    9.2152    7.1104    3.1876 H   0  0  0  0  0  0  0  0  0  0  0  0
    9.3851    7.3989    1.4351 H   0  0  0  0  0  0  0  0  0  0  0  0
   11.4740    6.5318    1.8378 H   0  0  0  0  0  0  0  0  0  0  0  0
   11.4952    7.0010    3.5664 H   0  0  0  0  0  0  0  0  0  0  0  0
   11.7498    8.9804    1.2663 H   0  0  0  0  0  0  0  0  0  0  0  0
   13.8441    9.0654    1.1031 H   0  0  0  0  0  0  0  0  0  0  0  0
   15.0584    7.0793    0.8474 H   0  0  0  0  0  0  0  0  0  0  0  0
   13.3402    6.8740    0.3569 H   0  0  0  0  0  0  0  0  0  0  0  0
   13.9243    6.1936    1.9314 H   0  0  0  0  0  0  0  0  0  0  0  0
   15.5927    8.5554    2.6308 H   0  0  0  0  0  0  0  0  0  0  0  0
   14.5660    9.8051    3.1020 H   0  0  0  0  0  0  0  0  0  0  0  0
   14.4336    8.2664    3.8348 H   0  0  0  0  0  0  0  0  0  0  0  0
   12.2736    9.3421    4.2727 H   0  0  0  0  0  0  0  0  0  0  0  0
   12.4550   10.5998    3.0047 H   0  0  0  0  0  0  0  0  0  0  0  0
   10.1351   10.0261    4.5122 H   0  0  0  0  0  0  0  0  0  0  0  0
   10.2667   11.1445    3.1312 H   0  0  0  0  0  0  0  0  0  0  0  0
  1  2  1  0
  2  3  1  0
  3  4  2  0
  3  5  1  0
  5  6  1  0
  6  7  1  0
  7  8  2  0
  7  9  1  0
  9 10  1  0
 10 11  1  0
 11 12  1  0
 12 13  1  0
 13 14  1  0
 13 15  1  0
 12 16  1  0
 16 17  1  0
 17  9  1  0
  1 18  1  0
  1 19  1  0
  1 20  1  0
  2 21  1  0
  5 22  1  0
  5 23  1  0
  6 24  1  0
  9 25  1  0
 10 26  1  0
 10 27  1  0
 11 28  1  0
 11 29  1  0
 12 30  1  0
 13 31  1  0
 14 32  1  0
 14 33  1  0
 14 34  1  0
 15 35  1  0
 15 36  1  0
 15 37  1  0
 16 38  1  0
 16 39  1  0
 17 40  1  0
 17 41  1  0
M  CHG  1  15   1
M  END
>  <EmbedRMS>  (172) 
0.2569057114362328

$$$$

     RDKit          3D

 49 49  0  0  0  0  0  0  0  0999 V2000
    1.0265    9.5447    1.1743 C   0  0  0  0  0  0  0  0  0  0  0  0
    1.1817    8.6790    2.4226 C   0  0  0  0  0  0  0  0  0  0  0  0
    2.6336    8.2498    2.6474 C   0  0  0  0  0  0  0  0  0  0  0  0
    3.5005    9.4095    3.1475 C   0  0  0  0  0  0  0  0  0  0  0  0
    4.9406    8.9448    3.3508 C   0  0  0  0  0  0  0  0  0  0  0  0
    5.8199   10.0840    3.8805 C   0  0  0  0  0  0  0  0  0  0  0  0
    7.2256    9.6636    3.9393 N   0  0  0  0  0  0  0  0  0  0  0  0
    7.9886    9.5208    2.7300 C   0  0  0  0  0  0  0  0  0  0  0  0
    7.4216    9.6984    1.6234 O   0  0  0  0  0  0  0  0  0  0  0  0
    9.4489    9.1946    2.6546 C   0  0  0  0  0  0  0  0  0  0  0  0
    9.7671    7.7142    2.4330 C   0  0  0  0  0  0  0  0  0  0  0  0
   11.2657    7.3636    2.5398 C   0  0  0  0  0  0  0  0  0  0  0  0
   12.1454    8.5859    2.2321 C   0  0  0  0  0  0  0  0  0  0  0  0
   13.6561    8.3392    1.9331 C   0  0  0  0  0  0  0  0  0  0  0  0
   14.0149    7.0441    1.2244 C   0  0  0  0  0  0  0  0  0  0  0  0
   14.6186    8.7731    2.9400 N   0  0  0  0  0  4  0  0  0  0  0  0
   11.8924    9.6845    3.2848 C   0  0  0  0  0  0  0  0  0  0  0  0
   10.4083   10.0813    3.4316 C   0  0  0  0  0  0  0  0  0  0  0  0
   -0.0531    9.7159    0.9794 H   0  0  0  0  0  0  0  0  0  0  0  0
    1.4656    9.0385    0.2883 H   0  0  0  0  0  0  0  0  0  0  0  0
    1.5079   10.5343    1.3134 H   0  0  0  0  0  0  0  0  0  0  0  0
    0.5615    7.7657    2.2915 H   0  0  0  0  0  0  0  0  0  0  0  0
    0.7946    9.2247    3.3106 H   0  0  0  0  0  0  0  0  0  0  0  0
    2.6424    7.4407    3.4105 H   0  0  0  0  0  0  0  0  0  0  0  0
    3.0541    7.8306    1.7065 H   0  0  0  0  0  0  0  0  0  0  0  0
    3.4972   10.2364    2.4063 H   0  0  0  0  0  0  0  0  0  0  0  0
    3.0930    9.7901    4.1100 H   0  0  0  0  0  0  0  0  0  0  0  0
    4.9647    8.1066    4.0817 H   0  0  0  0  0  0  0  0  0  0  0  0
    5.3346    8.5678    2.3839 H   0  0  0  0  0  0  0  0  0  0  0  0
    5.4799   10.3611    4.9022 H   0  0  0  0  0  0  0  0  0  0  0  0
    5.7274   10.9849    3.2347 H   0  0  0  0  0  0  0  0  0  0  0  0
    7.6923    9.5397    4.8654 H   0  0  0  0  0  0  0  0  0  0  0  0
    9.6893    9.5843    1.6358 H   0  0  0  0  0  0  0  0  0  0  0  0
    9.2168    7.1151    3.1909 H   0  0  0  0  0  0  0  0  0  0  0  0
    9.3846    7.3946    1.4365 H   0  0  0  0  0  0  0  0  0  0  0  0
   11.4749    6.5311    1.8366 H   0  0  0  0  0  0  0  0  0  0  0  0
   11.4965    6.9998    3.5653 H   0  0  0  0  0  0  0  0  0  0  0  0
   11.7530    8.9787    1.2648 H   0  0  0  0  0  0  0  0  0  0  0  0
   13.8465    9.0646    1.1030 H   0  0  0  0  0  0  0  0  0  0  0  0
   13.3418    6.8736    0.3566 H   0  0  0  0  0  0  0  0  0  0  0  0
   15.0600    7.0780    0.8479 H   0  0  0  0  0  0  0  0  0  0  0  0
   13.9250    6.1928    1.9313 H   0  0  0  0  0  0  0  0  0  0  0  0
   14.4341    8.2657    3.8350 H   0  0  0  0  0  0  0  0  0  0  0  0
   15.5940    8.5539    2.6318 H   0  0  0  0  0  0  0  0  0  0  0  0
   14.5677    9.8042    3.1021 H   0  0  0  0  0  0  0  0  0  0  0  0
   12.4575   10.5992    3.0030 H   0  0  0  0  0  0  0  0  0  0  0  0
   12.2745    9.3422    4.2716 H   0  0  0  0  0  0  0  0  0  0  0  0
   10.2701   11.1445    3.1279 H   0  0  0  0  0  0  0  0  0  0  0  0
   10.1360   10.0242    4.5076 H   0  0  0  0  0  0  0  0  0  0  0  0
  1  2  1  0
  2  3  1  0
  3  4  1  0
  4  5  1  0
  5  6  1  0
  6  7  1  0
  7  8  1  0
  8  9  2  0
  8 10  1  0
 10 11  1  0
 11 12  1  0
 12 13  1  0
 13 14  1  0
 14 15  1  0
 14 16  1  0
 13 17  1  0
 17 18  1  0
 18 10  1  0
  1 19  1  0
  1 20  1  0
  1 21  1  0
  2 22  1  0
  2 23  1  0
  3 24  1  0
  3 25  1  0
  4 26  1  0
  4 27  1  0
  5 28  1  0
  5 29  1  0
  6 30  1  0
  6 31  1  0
  7 32  1  0
 10 33  1  0
 11 34  1  0
 11 35  1  0
 12 36  1  0
 12 37  1  0
 13 38  1  0
 14 39  1  0
 15 40  1  0
 15 41  1  0
 15 42  1  0
 16 43  1  0
 16 44  1  0
 16 45  1  0
 17 46  1  0
 17 47  1  0
 18 48  1  0
 18 49  1  0
M  CHG  1  16   1
M  END
>  <EmbedRMS>  (173) 
0.2517353053793523

$$$$

     RDKit          3D

 42 42  0  0  0  0  0  0  0  0999 V2000
   13.9316    7.3322    1.0259 C   0  0  0  0  0  0  0  0  0  0  0  0
   13.7093    7.9147    2.4298 C   0  0  0  0  0  0  0  0  0  0  0  0
   14.6479    9.0161    2.6730 N   0  0  0  0  0  4  0  0  0  0  0  0
   12.2320    8.2990    2.7960 C   0  0  0  0  0  0  0  0  0  0  0  0
   11.1450    7.3165    2.3207 C   0  0  0  0  0  0  0  0  0  0  0  0
    9.7815    7.9372    2.0761 C   0  0  0  0  0  0  0  0  0  0  0  0
    9.4190    8.9877    3.1201 C   0  0  0  0  0  0  0  0  0  0  0  0
    8.0125    9.4755    2.8753 C   0  0  0  0  0  0  0  0  0  0  0  0
    7.6076    9.6822    1.6957 O   0  0  0  0  0  0  0  0  0  0  0  0
    7.1527    9.7447    3.9868 N   0  0  0  0  0  0  0  0  0  0  0  0
    5.7490   10.1153    3.8268 C   0  0  0  0  0  0  0  0  0  0  0  0
    4.8759    8.8561    3.7235 C   0  0  0  0  0  0  0  0  0  0  0  0
    4.9629    7.9037    4.9245 C   0  0  0  0  0  0  0  0  0  0  0  0
    3.6623    9.0989    3.4327 O   0  0  0  0  0  0  0  0  0  0  0  0
    4.9569    8.2985    2.5703 O   0  0  0  0  0  0  0  0  0  0  0  0
   10.3938   10.1694    3.0636 C   0  0  0  0  0  0  0  0  0  0  0  0
   11.8855    9.7891    2.9956 C   0  0  0  0  0  0  0  0  0  0  0  0
   13.5338    6.2982    0.9559 H   0  0  0  0  0  0  0  0  0  0  0  0
   15.0160    7.2727    0.7924 H   0  0  0  0  0  0  0  0  0  0  0  0
   13.4422    7.9757    0.2644 H   0  0  0  0  0  0  0  0  0  0  0  0
   14.0063    7.0847    3.1156 H   0  0  0  0  0  0  0  0  0  0  0  0
   14.5403    9.3803    3.6468 H   0  0  0  0  0  0  0  0  0  0  0  0
   14.5087    9.7861    1.9798 H   0  0  0  0  0  0  0  0  0  0  0  0
   15.6311    8.6693    2.5837 H   0  0  0  0  0  0  0  0  0  0  0  0
   12.2356    8.0292    3.8806 H   0  0  0  0  0  0  0  0  0  0  0  0
   11.0308    6.4814    3.0508 H   0  0  0  0  0  0  0  0  0  0  0  0
   11.4279    6.8354    1.3659 H   0  0  0  0  0  0  0  0  0  0  0  0
    9.7839    8.4044    1.0649 H   0  0  0  0  0  0  0  0  0  0  0  0
    9.0161    7.1289    2.0701 H   0  0  0  0  0  0  0  0  0  0  0  0
    9.4752    8.5178    4.1276 H   0  0  0  0  0  0  0  0  0  0  0  0
    7.5412    9.6871    4.9554 H   0  0  0  0  0  0  0  0  0  0  0  0
    5.4307   10.7041    4.7148 H   0  0  0  0  0  0  0  0  0  0  0  0
    5.6185   10.7690    2.9358 H   0  0  0  0  0  0  0  0  0  0  0  0
    5.9943    7.5046    5.0256 H   0  0  0  0  0  0  0  0  0  0  0  0
    4.2688    7.0448    4.7952 H   0  0  0  0  0  0  0  0  0  0  0  0
    4.6959    8.4405    5.8598 H   0  0  0  0  0  0  0  0  0  0  0  0
    3.2695    9.6498    4.1633 H   0  0  0  0  0  0  0  0  0  0  0  0
    5.7989    7.7703    2.5430 H   0  0  0  0  0  0  0  0  0  0  0  0
   10.1537   10.7918    2.1710 H   0  0  0  0  0  0  0  0  0  0  0  0
   10.2211   10.8165    3.9521 H   0  0  0  0  0  0  0  0  0  0  0  0
   12.3143   10.3466    2.1358 H   0  0  0  0  0  0  0  0  0  0  0  0
   12.3923   10.1922    3.9023 H   0  0  0  0  0  0  0  0  0  0  0  0
  1  2  1  0
  2  3  1  0
  2  4  1  0
  4  5  1  0
  5  6  1  0
  6  7  1  0
  7  8  1  0
  8  9  2  0
  8 10  1  0
 10 11  1  0
 11 12  1  0
 12 13  1  0
 12 14  1  0
 12 15  1  0
  7 16  1  0
 16 17  1  0
 17  4  1  0
  1 18  1  0
  1 19  1  0
  1 20  1  0
  2 21  1  0
  3 22  1  0
  3 23  1  0
  3 24  1  0
  4 25  1  0
  5 26  1  0
  5 27  1  0
  6 28  1  0
  6 29  1  0
  7 30  1  0
 10 31  1  0
 11 32  1  0
 11 33  1  0
 13 34  1  0
 13 35  1  0
 13 36  1  0
 14 37  1  0
 15 38  1  0
 16 39  1  0
 16 40  1  0
 17 41  1  0
 17 42  1  0
M  CHG  1   3   1
M  END
>  <EmbedRMS>  (174) 
0.7100198817626026

$$$$

     RDKit          3D

 46 46  0  0  0  0  0  0  0  0999 V2000
    2.3051    7.2496    3.7607 C   0  0  0  0  0  0  0  0  0  0  0  0
    2.5835    8.2584    2.6485 C   0  0  0  0  0  0  0  0  0  0  0  0
    3.4692    9.4106    3.1274 C   0  0  0  0  0  0  0  0  0  0  0  0
    4.9193    8.9668    3.3261 C   0  0  0  0  0  0  0  0  0  0  0  0
    5.7682   10.1363    3.8153 C   0  0  0  0  0  0  0  0  0  0  0  0
    7.1508    9.7119    3.9893 N   0  0  0  0  0  0  0  0  0  0  0  0
    8.0171    9.4692    2.8772 C   0  0  0  0  0  0  0  0  0  0  0  0
    7.6145    9.6885    1.6987 O   0  0  0  0  0  0  0  0  0  0  0  0
    9.4233    8.9852    3.1202 C   0  0  0  0  0  0  0  0  0  0  0  0
    9.7845    7.9361    2.0751 C   0  0  0  0  0  0  0  0  0  0  0  0
   11.1474    7.3156    2.3199 C   0  0  0  0  0  0  0  0  0  0  0  0
   12.2336    8.2986    2.7958 C   0  0  0  0  0  0  0  0  0  0  0  0
   13.7106    7.9146    2.4296 C   0  0  0  0  0  0  0  0  0  0  0  0
   13.9328    7.3323    1.0256 C   0  0  0  0  0  0  0  0  0  0  0  0
   14.6490    9.0162    2.6728 N   0  0  0  0  0  4  0  0  0  0  0  0
   11.8870    9.7889    2.9953 C   0  0  0  0  0  0  0  0  0  0  0  0
   10.3955   10.1685    3.0627 C   0  0  0  0  0  0  0  0  0  0  0  0
    1.9037    7.7594    4.6623 H   0  0  0  0  0  0  0  0  0  0  0  0
    3.2235    6.6882    4.0285 H   0  0  0  0  0  0  0  0  0  0  0  0
    1.5493    6.5163    3.4086 H   0  0  0  0  0  0  0  0  0  0  0  0
    3.0488    7.7435    1.7799 H   0  0  0  0  0  0  0  0  0  0  0  0
    1.6120    8.6795    2.3098 H   0  0  0  0  0  0  0  0  0  0  0  0
    3.0615    9.8339    4.0721 H   0  0  0  0  0  0  0  0  0  0  0  0
    3.4418   10.2134    2.3580 H   0  0  0  0  0  0  0  0  0  0  0  0
    4.9759    8.1564    4.0830 H   0  0  0  0  0  0  0  0  0  0  0  0
    5.3205    8.5813    2.3642 H   0  0  0  0  0  0  0  0  0  0  0  0
    5.3733   10.4943    4.7916 H   0  0  0  0  0  0  0  0  0  0  0  0
    5.7239   10.9832    3.0957 H   0  0  0  0  0  0  0  0  0  0  0  0
    7.5294    9.6311    4.9600 H   0  0  0  0  0  0  0  0  0  0  0  0
    9.4828    8.5150    4.1274 H   0  0  0  0  0  0  0  0  0  0  0  0
    9.7871    8.4043    1.0643 H   0  0  0  0  0  0  0  0  0  0  0  0
    9.0193    7.1276    2.0682 H   0  0  0  0  0  0  0  0  0  0  0  0
   11.0331    6.4805    3.0501 H   0  0  0  0  0  0  0  0  0  0  0  0
   11.4304    6.8346    1.3652 H   0  0  0  0  0  0  0  0  0  0  0  0
   12.2371    8.0287    3.8803 H   0  0  0  0  0  0  0  0  0  0  0  0
   14.0078    7.0847    3.1154 H   0  0  0  0  0  0  0  0  0  0  0  0
   13.5363    6.2977    0.9558 H   0  0  0  0  0  0  0  0  0  0  0  0
   13.4425    7.9753    0.2642 H   0  0  0  0  0  0  0  0  0  0  0  0
   15.0171    7.2740    0.7917 H   0  0  0  0  0  0  0  0  0  0  0  0
   14.5098    9.7861    1.9795 H   0  0  0  0  0  0  0  0  0  0  0  0
   15.6322    8.6695    2.5837 H   0  0  0  0  0  0  0  0  0  0  0  0
   14.5414    9.3805    3.6466 H   0  0  0  0  0  0  0  0  0  0  0  0
   12.3161   10.3468    2.1360 H   0  0  0  0  0  0  0  0  0  0  0  0
   12.3933   10.1917    3.9024 H   0  0  0  0  0  0  0  0  0  0  0  0
   10.1549   10.7898    2.1695 H   0  0  0  0  0  0  0  0  0  0  0  0
   10.2218   10.8161    3.9507 H   0  0  0  0  0  0  0  0  0  0  0  0
  1  2  1  0
  2  3  1  0
  3  4  1  0
  4  5  1  0
  5  6  1  0
  6  7  1  0
  7  8  2  0
  7  9  1  0
  9 10  1  0
 10 11  1  0
 11 12  1  0
 12 13  1  0
 13 14  1  0
 13 15  1  0
 12 16  1  0
 16 17  1  0
 17  9  1  0
  1 18  1  0
  1 19  1  0
  1 20  1  0
  2 21  1  0
  2 22  1  0
  3 23  1  0
  3 24  1  0
  4 25  1  0
  4 26  1  0
  5 27  1  0
  5 28  1  0
  6 29  1  0
  9 30  1  0
 10 31  1  0
 10 32  1  0
 11 33  1  0
 11 34  1  0
 12 35  1  0
 13 36  1  0
 14 37  1  0
 14 38  1  0
 14 39  1  0
 15 40  1  0
 15 41  1  0
 15 42  1  0
 16 43  1  0
 16 44  1  0
 17 45  1  0
 17 46  1  0
M  CHG  1  15   1
M  END
>  <EmbedRMS>  (175) 
0.16933320433084326

$$$$

     RDKit          3D

 47 48  0  0  0  0  0  0  0  0999 V2000
    3.3550    7.5261    0.2387 C   0  0  0  0  0  0  0  0  0  0  0  0
    3.7591    7.6796    1.6740 C   0  0  0  0  0  0  0  0  0  0  0  0
    3.4093    6.6971    2.6112 C   0  0  0  0  0  0  0  0  0  0  0  0
    3.8066    6.8249    3.9436 C   0  0  0  0  0  0  0  0  0  0  0  0
    4.5708    7.9221    4.3466 C   0  0  0  0  0  0  0  0  0  0  0  0
    4.9400    8.9082    3.4207 C   0  0  0  0  0  0  0  0  0  0  0  0
    5.8031   10.0620    3.8692 C   0  0  0  0  0  0  0  0  0  0  0  0
    7.2179    9.6630    3.9265 N   0  0  0  0  0  0  0  0  0  0  0  0
    7.9878    9.5377    2.7183 C   0  0  0  0  0  0  0  0  0  0  0  0
    7.4195    9.7037    1.6128 O   0  0  0  0  0  0  0  0  0  0  0  0
    9.4506    9.2137    2.6347 C   0  0  0  0  0  0  0  0  0  0  0  0
    9.7340    7.7427    2.3734 C   0  0  0  0  0  0  0  0  0  0  0  0
   11.1976    7.3493    2.5402 C   0  0  0  0  0  0  0  0  0  0  0  0
   12.1819    8.5080    2.2955 C   0  0  0  0  0  0  0  0  0  0  0  0
   13.6459    7.9624    2.3850 C   0  0  0  0  0  0  0  0  0  0  0  0
   14.0279    7.2300    1.0859 C   0  0  0  0  0  0  0  0  0  0  0  0
   14.6271    9.0243    2.6471 N   0  0  0  0  0  4  0  0  0  0  0  0
   11.8957    9.6374    3.3177 C   0  0  0  0  0  0  0  0  0  0  0  0
   10.4177   10.0733    3.4266 C   0  0  0  0  0  0  0  0  0  0  0  0
    4.5324    8.7801    2.0799 C   0  0  0  0  0  0  0  0  0  0  0  0
    3.2257    8.5199   -0.2406 H   0  0  0  0  0  0  0  0  0  0  0  0
    4.1392    6.9607   -0.3066 H   0  0  0  0  0  0  0  0  0  0  0  0
    2.3914    6.9791    0.1583 H   0  0  0  0  0  0  0  0  0  0  0  0
    2.8281    5.8337    2.3113 H   0  0  0  0  0  0  0  0  0  0  0  0
    3.5310    6.0656    4.6641 H   0  0  0  0  0  0  0  0  0  0  0  0
    4.8834    7.9981    5.3809 H   0  0  0  0  0  0  0  0  0  0  0  0
    5.4772   10.3905    4.8801 H   0  0  0  0  0  0  0  0  0  0  0  0
    5.6805   10.9383    3.1956 H   0  0  0  0  0  0  0  0  0  0  0  0
    7.6767    9.5107    4.8522 H   0  0  0  0  0  0  0  0  0  0  0  0
    9.7114    9.6194    1.6251 H   0  0  0  0  0  0  0  0  0  0  0  0
    9.1282    7.1304    3.0776 H   0  0  0  0  0  0  0  0  0  0  0  0
    9.3937    7.4684    1.3478 H   0  0  0  0  0  0  0  0  0  0  0  0
   11.3436    6.9693    3.5766 H   0  0  0  0  0  0  0  0  0  0  0  0
   11.3979    6.4993    1.8571 H   0  0  0  0  0  0  0  0  0  0  0  0
   12.0116    8.9214    1.2757 H   0  0  0  0  0  0  0  0  0  0  0  0
   13.7142    7.2275    3.2200 H   0  0  0  0  0  0  0  0  0  0  0  0
   13.9578    7.9167    0.2154 H   0  0  0  0  0  0  0  0  0  0  0  0
   13.3807    6.3497    0.9044 H   0  0  0  0  0  0  0  0  0  0  0  0
   15.0712    6.8547    1.1520 H   0  0  0  0  0  0  0  0  0  0  0  0
   14.5143    9.3994    3.6160 H   0  0  0  0  0  0  0  0  0  0  0  0
   14.5262    9.7975    1.9495 H   0  0  0  0  0  0  0  0  0  0  0  0
   15.5988    8.6418    2.5850 H   0  0  0  0  0  0  0  0  0  0  0  0
   12.2339    9.3016    4.3236 H   0  0  0  0  0  0  0  0  0  0  0  0
   12.4948   10.5349    3.0515 H   0  0  0  0  0  0  0  0  0  0  0  0
   10.1188   10.0277    4.4963 H   0  0  0  0  0  0  0  0  0  0  0  0
   10.3156   11.1402    3.1210 H   0  0  0  0  0  0  0  0  0  0  0  0
    4.8107    9.5360    1.3560 H   0  0  0  0  0  0  0  0  0  0  0  0
  1  2  1  0
  2  3  2  0
  3  4  1  0
  4  5  2  0
  5  6  1  0
  6  7  1  0
  7  8  1  0
  8  9  1  0
  9 10  2  0
  9 11  1  0
 11 12  1  0
 12 13  1  0
 13 14  1  0
 14 15  1  0
 15 16  1  0
 15 17  1  0
 14 18  1  0
 18 19  1  0
  6 20  2  0
 20  2  1  0
 19 11  1  0
  1 21  1  0
  1 22  1  0
  1 23  1  0
  3 24  1  0
  4 25  1  0
  5 26  1  0
  7 27  1  0
  7 28  1  0
  8 29  1  0
 11 30  1  0
 12 31  1  0
 12 32  1  0
 13 33  1  0
 13 34  1  0
 14 35  1  0
 15 36  1  0
 16 37  1  0
 16 38  1  0
 16 39  1  0
 17 40  1  0
 17 41  1  0
 17 42  1  0
 18 43  1  0
 18 44  1  0
 19 45  1  0
 19 46  1  0
 20 47  1  0
M  CHG  1  17   1
M  END
>  <EmbedRMS>  (176) 
0.16810927383701896

$$$$

     RDKit          3D

 45 45  0  0  0  0  0  0  0  0999 V2000
    1.3162    8.6480    2.4764 C   0  0  0  0  0  0  0  0  0  0  0  0
    2.7690    8.2394    2.6571 C   0  0  0  0  0  0  0  0  0  0  0  0
    3.5588    9.3719    3.1531 N   0  0  0  0  0  0  0  0  0  0  0  0
    4.9457    8.9370    3.3408 C   0  0  0  0  0  0  0  0  0  0  0  0
    5.8111   10.0828    3.8756 C   0  0  0  0  0  0  0  0  0  0  0  0
    7.2212    9.6714    3.9388 N   0  0  0  0  0  0  0  0  0  0  0  0
    7.9871    9.5236    2.7309 C   0  0  0  0  0  0  0  0  0  0  0  0
    7.4226    9.7001    1.6228 O   0  0  0  0  0  0  0  0  0  0  0  0
    9.4479    9.1954    2.6571 C   0  0  0  0  0  0  0  0  0  0  0  0
    9.7662    7.7150    2.4336 C   0  0  0  0  0  0  0  0  0  0  0  0
   11.2648    7.3640    2.5399 C   0  0  0  0  0  0  0  0  0  0  0  0
   12.1448    8.5862    2.2323 C   0  0  0  0  0  0  0  0  0  0  0  0
   13.6556    8.3392    1.9331 C   0  0  0  0  0  0  0  0  0  0  0  0
   14.0143    7.0441    1.2245 C   0  0  0  0  0  0  0  0  0  0  0  0
   14.6184    8.7732    2.9398 N   0  0  0  0  0  4  0  0  0  0  0  0
   11.8922    9.6845    3.2853 C   0  0  0  0  0  0  0  0  0  0  0  0
   10.4083   10.0818    3.4329 C   0  0  0  0  0  0  0  0  0  0  0  0
    1.2358    9.4590    1.7217 H   0  0  0  0  0  0  0  0  0  0  0  0
    0.7229    7.7764    2.1277 H   0  0  0  0  0  0  0  0  0  0  0  0
    0.8974    9.0039    3.4416 H   0  0  0  0  0  0  0  0  0  0  0  0
    2.8047    7.3991    3.3860 H   0  0  0  0  0  0  0  0  0  0  0  0
    3.1635    7.8833    1.6781 H   0  0  0  0  0  0  0  0  0  0  0  0
    3.5555   10.1116    2.4109 H   0  0  0  0  0  0  0  0  0  0  0  0
    5.3566    8.5628    2.3778 H   0  0  0  0  0  0  0  0  0  0  0  0
    4.9851    8.1045    4.0788 H   0  0  0  0  0  0  0  0  0  0  0  0
    5.4617   10.3551    4.8951 H   0  0  0  0  0  0  0  0  0  0  0  0
    5.7127   10.9819    3.2288 H   0  0  0  0  0  0  0  0  0  0  0  0
    7.6863    9.5527    4.8663 H   0  0  0  0  0  0  0  0  0  0  0  0
    9.6891    9.5852    1.6385 H   0  0  0  0  0  0  0  0  0  0  0  0
    9.3835    7.3966    1.4368 H   0  0  0  0  0  0  0  0  0  0  0  0
    9.2157    7.1152    3.1908 H   0  0  0  0  0  0  0  0  0  0  0  0
   11.4737    6.5317    1.8364 H   0  0  0  0  0  0  0  0  0  0  0  0
   11.4958    6.9999    3.5652 H   0  0  0  0  0  0  0  0  0  0  0  0
   11.7524    8.9793    1.2652 H   0  0  0  0  0  0  0  0  0  0  0  0
   13.8459    9.0645    1.1030 H   0  0  0  0  0  0  0  0  0  0  0  0
   13.3413    6.8735    0.3567 H   0  0  0  0  0  0  0  0  0  0  0  0
   13.9244    6.1928    1.9314 H   0  0  0  0  0  0  0  0  0  0  0  0
   15.0594    7.0779    0.8479 H   0  0  0  0  0  0  0  0  0  0  0  0
   15.5937    8.5539    2.6315 H   0  0  0  0  0  0  0  0  0  0  0  0
   14.5676    9.8044    3.1018 H   0  0  0  0  0  0  0  0  0  0  0  0
   14.4339    8.2659    3.8350 H   0  0  0  0  0  0  0  0  0  0  0  0
   12.4575   10.5992    3.0035 H   0  0  0  0  0  0  0  0  0  0  0  0
   12.2747    9.3420    4.2719 H   0  0  0  0  0  0  0  0  0  0  0  0
   10.2702   11.1451    3.1293 H   0  0  0  0  0  0  0  0  0  0  0  0
   10.1366   10.0251    4.5091 H   0  0  0  0  0  0  0  0  0  0  0  0
  1  2  1  0
  2  3  1  0
  3  4  1  0
  4  5  1  0
  5  6  1  0
  6  7  1  0
  7  8  2  0
  7  9  1  0
  9 10  1  0
 10 11  1  0
 11 12  1  0
 12 13  1  0
 13 14  1  0
 13 15  1  0
 12 16  1  0
 16 17  1  0
 17  9  1  0
  1 18  1  0
  1 19  1  0
  1 20  1  0
  2 21  1  0
  2 22  1  0
  3 23  1  0
  4 24  1  0
  4 25  1  0
  5 26  1  0
  5 27  1  0
  6 28  1  0
  9 29  1  0
 10 30  1  0
 10 31  1  0
 11 32  1  0
 11 33  1  0
 12 34  1  0
 13 35  1  0
 14 36  1  0
 14 37  1  0
 14 38  1  0
 15 39  1  0
 15 40  1  0
 15 41  1  0
 16 42  1  0
 16 43  1  0
 17 44  1  0
 17 45  1  0
M  CHG  1  15   1
M  END
>  <EmbedRMS>  (177) 
0.25842907567579826

$$$$

     RDKit          3D

 37 37  0  0  0  0  0  0  0  0999 V2000
    4.9010    8.9493    3.3214 C   0  0  0  0  0  0  0  0  0  0  0  0
    5.7477   10.1185    3.8091 C   0  0  0  0  0  0  0  0  0  0  0  0
    7.1378    9.7075    3.9757 N   0  0  0  0  0  0  0  0  0  0  0  0
    8.0091    9.4709    2.8632 C   0  0  0  0  0  0  0  0  0  0  0  0
    7.6090    9.6877    1.6849 O   0  0  0  0  0  0  0  0  0  0  0  0
    9.4140    8.9898    3.1084 C   0  0  0  0  0  0  0  0  0  0  0  0
    9.7981    7.9225    2.0853 C   0  0  0  0  0  0  0  0  0  0  0  0
   11.1578    7.3127    2.3960 C   0  0  0  0  0  0  0  0  0  0  0  0
   12.2752    8.3218    2.7734 C   0  0  0  0  0  0  0  0  0  0  0  0
   13.5805    8.3571    1.9538 C   0  0  0  0  0  0  0  0  0  0  0  0
   13.9836    7.0985    1.1857 C   0  0  0  0  0  0  0  0  0  0  0  0
   14.7111    8.8839    2.7305 N   0  0  0  0  0  4  0  0  0  0  0  0
   11.8317    9.7194    3.3044 C   0  0  0  0  0  0  0  0  0  0  0  0
   10.3968   10.1516    3.0079 C   0  0  0  0  0  0  0  0  0  0  0  0
    4.9738    8.1023    4.0363 H   0  0  0  0  0  0  0  0  0  0  0  0
    5.2401    8.6114    2.3200 H   0  0  0  0  0  0  0  0  0  0  0  0
    3.8390    9.2647    3.2475 H   0  0  0  0  0  0  0  0  0  0  0  0
    5.6836   10.9644    3.0910 H   0  0  0  0  0  0  0  0  0  0  0  0
    5.3476   10.4660    4.7862 H   0  0  0  0  0  0  0  0  0  0  0  0
    7.5181    9.6307    4.9461 H   0  0  0  0  0  0  0  0  0  0  0  0
    9.4709    8.5475    4.1287 H   0  0  0  0  0  0  0  0  0  0  0  0
    9.8276    8.3613    1.0624 H   0  0  0  0  0  0  0  0  0  0  0  0
    9.0349    7.1124    2.0811 H   0  0  0  0  0  0  0  0  0  0  0  0
   11.0040    6.5968    3.2371 H   0  0  0  0  0  0  0  0  0  0  0  0
   11.4410    6.6836    1.5321 H   0  0  0  0  0  0  0  0  0  0  0  0
   12.6575    7.8399    3.7045 H   0  0  0  0  0  0  0  0  0  0  0  0
   13.3805    9.1010    1.1485 H   0  0  0  0  0  0  0  0  0  0  0  0
   15.0000    7.2116    0.7521 H   0  0  0  0  0  0  0  0  0  0  0  0
   13.2924    6.9108    0.3375 H   0  0  0  0  0  0  0  0  0  0  0  0
   13.9867    6.2216    1.8670 H   0  0  0  0  0  0  0  0  0  0  0  0
   14.9942    8.1900    3.4603 H   0  0  0  0  0  0  0  0  0  0  0  0
   14.4920    9.7901    3.1973 H   0  0  0  0  0  0  0  0  0  0  0  0
   15.5287    9.0531    2.1001 H   0  0  0  0  0  0  0  0  0  0  0  0
   12.4766   10.5261    2.8979 H   0  0  0  0  0  0  0  0  0  0  0  0
   11.9658    9.7500    4.4102 H   0  0  0  0  0  0  0  0  0  0  0  0
   10.3549   10.5873    1.9838 H   0  0  0  0  0  0  0  0  0  0  0  0
   10.1049   10.9541    3.7216 H   0  0  0  0  0  0  0  0  0  0  0  0
  1  2  1  0
  2  3  1  0
  3  4  1  0
  4  5  2  0
  4  6  1  0
  6  7  1  0
  7  8  1  0
  8  9  1  0
  9 10  1  0
 10 11  1  0
 10 12  1  0
  9 13  1  0
 13 14  1  0
 14  6  1  0
  1 15  1  0
  1 16  1  0
  1 17  1  0
  2 18  1  0
  2 19  1  0
  3 20  1  0
  6 21  1  0
  7 22  1  0
  7 23  1  0
  8 24  1  0
  8 25  1  0
  9 26  1  0
 10 27  1  0
 11 28  1  0
 11 29  1  0
 11 30  1  0
 12 31  1  0
 12 32  1  0
 12 33  1  0
 13 34  1  0
 13 35  1  0
 14 36  1  0
 14 37  1  0
M  CHG  1  12   1
M  END
>  <EmbedRMS>  (178) 
0.22880006867790334

$$$$

     RDKit          3D

 44 44  0  0  0  0  0  0  0  0999 V2000
   13.9344    7.3325    1.0251 C   0  0  0  0  0  0  0  0  0  0  0  0
   13.7124    7.9143    2.4293 C   0  0  0  0  0  0  0  0  0  0  0  0
   14.6504    9.0161    2.6726 N   0  0  0  0  0  4  0  0  0  0  0  0
   12.2357    8.2978    2.7953 C   0  0  0  0  0  0  0  0  0  0  0  0
   11.1506    7.3136    2.3192 C   0  0  0  0  0  0  0  0  0  0  0  0
    9.7889    7.9336    2.0719 C   0  0  0  0  0  0  0  0  0  0  0  0
    9.4291    8.9809    3.1175 C   0  0  0  0  0  0  0  0  0  0  0  0
    8.0244    9.4610    2.8767 C   0  0  0  0  0  0  0  0  0  0  0  0
    7.6190    9.6840    1.6996 O   0  0  0  0  0  0  0  0  0  0  0  0
    7.1616    9.6889    3.9915 N   0  0  0  0  0  0  0  0  0  0  0  0
    5.7855   10.1247    3.8210 C   0  0  0  0  0  0  0  0  0  0  0  0
    4.7423    8.9630    3.8122 C   0  0  0  0  0  0  0  0  0  0  0  0
    4.1166    8.8214    5.1831 C   0  0  0  0  0  0  0  0  0  0  0  0
    4.2843    8.6567    2.4010 C   0  0  0  0  0  0  0  0  0  0  0  0
    5.0987    7.7653    3.9177 O   0  0  0  0  0  0  0  0  0  0  0  0
   10.3977   10.1666    3.0612 C   0  0  0  0  0  0  0  0  0  0  0  0
   11.8890    9.7883    2.9936 C   0  0  0  0  0  0  0  0  0  0  0  0
   13.5401    6.2970    0.9555 H   0  0  0  0  0  0  0  0  0  0  0  0
   15.0186    7.2763    0.7900 H   0  0  0  0  0  0  0  0  0  0  0  0
   13.4422    7.9745    0.2641 H   0  0  0  0  0  0  0  0  0  0  0  0
   14.0100    7.0843    3.1149 H   0  0  0  0  0  0  0  0  0  0  0  0
   14.5109    9.7861    1.9796 H   0  0  0  0  0  0  0  0  0  0  0  0
   15.6337    8.6698    2.5833 H   0  0  0  0  0  0  0  0  0  0  0  0
   14.5428    9.3801    3.6466 H   0  0  0  0  0  0  0  0  0  0  0  0
   12.2392    8.0286    3.8800 H   0  0  0  0  0  0  0  0  0  0  0  0
   11.0353    6.4797    3.0507 H   0  0  0  0  0  0  0  0  0  0  0  0
   11.4346    6.8309    1.3657 H   0  0  0  0  0  0  0  0  0  0  0  0
    9.7931    8.4028    1.0615 H   0  0  0  0  0  0  0  0  0  0  0  0
    9.0236    7.1252    2.0640 H   0  0  0  0  0  0  0  0  0  0  0  0
    9.4921    8.5093    4.1239 H   0  0  0  0  0  0  0  0  0  0  0  0
    7.5013    9.4861    4.9588 H   0  0  0  0  0  0  0  0  0  0  0  0
    5.5537   10.8434    4.6375 H   0  0  0  0  0  0  0  0  0  0  0  0
    5.6953   10.7432    2.9009 H   0  0  0  0  0  0  0  0  0  0  0  0
    4.8622    8.6933    6.0088 H   0  0  0  0  0  0  0  0  0  0  0  0
    3.3169    8.0378    5.2516 H   0  0  0  0  0  0  0  0  0  0  0  0
    3.5776    9.7669    5.4063 H   0  0  0  0  0  0  0  0  0  0  0  0
    3.4915    7.8674    2.3375 H   0  0  0  0  0  0  0  0  0  0  0  0
    5.1205    8.4243    1.6954 H   0  0  0  0  0  0  0  0  0  0  0  0
    3.7922    9.5686    2.0007 H   0  0  0  0  0  0  0  0  0  0  0  0
    6.0784    7.6314    3.8034 H   0  0  0  0  0  0  0  0  0  0  0  0
   10.1562   10.7885    2.1686 H   0  0  0  0  0  0  0  0  0  0  0  0
   10.2230   10.8125    3.9502 H   0  0  0  0  0  0  0  0  0  0  0  0
   12.3172   10.3454    2.1334 H   0  0  0  0  0  0  0  0  0  0  0  0
   12.3955   10.1922    3.9001 H   0  0  0  0  0  0  0  0  0  0  0  0
  1  2  1  0
  2  3  1  0
  2  4  1  0
  4  5  1  0
  5  6  1  0
  6  7  1  0
  7  8  1  0
  8  9  2  0
  8 10  1  0
 10 11  1  0
 11 12  1  0
 12 13  1  0
 12 14  1  0
 12 15  1  0
  7 16  1  0
 16 17  1  0
 17  4  1  0
  1 18  1  0
  1 19  1  0
  1 20  1  0
  2 21  1  0
  3 22  1  0
  3 23  1  0
  3 24  1  0
  4 25  1  0
  5 26  1  0
  5 27  1  0
  6 28  1  0
  6 29  1  0
  7 30  1  0
 10 31  1  0
 11 32  1  0
 11 33  1  0
 13 34  1  0
 13 35  1  0
 13 36  1  0
 14 37  1  0
 14 38  1  0
 14 39  1  0
 15 40  1  0
 16 41  1  0
 16 42  1  0
 17 43  1  0
 17 44  1  0
M  CHG  1   3   1
M  END
>  <EmbedRMS>  (179) 
0.6861464654853324

$$$$

     RDKit          3D

 40 40  0  0  0  0  0  0  0  0999 V2000
   13.9329    7.3325    1.0256 C   0  0  0  0  0  0  0  0  0  0  0  0
   13.7105    7.9149    2.4295 C   0  0  0  0  0  0  0  0  0  0  0  0
   14.6487    9.0165    2.6728 N   0  0  0  0  0  4  0  0  0  0  0  0
   12.2334    8.2987    2.7955 C   0  0  0  0  0  0  0  0  0  0  0  0
   11.1474    7.3153    2.3198 C   0  0  0  0  0  0  0  0  0  0  0  0
    9.7855    7.9363    2.0713 C   0  0  0  0  0  0  0  0  0  0  0  0
    9.4223    8.9847    3.1156 C   0  0  0  0  0  0  0  0  0  0  0  0
    8.0144    9.4669    2.8721 C   0  0  0  0  0  0  0  0  0  0  0  0
    7.6087    9.6862    1.6951 O   0  0  0  0  0  0  0  0  0  0  0  0
    7.1483    9.6996    3.9827 N   0  0  0  0  0  0  0  0  0  0  0  0
    5.7687   10.1321    3.7956 C   0  0  0  0  0  0  0  0  0  0  0  0
    5.1029   10.2810    5.1238 C   0  0  0  0  0  0  0  0  0  0  0  0
    4.4834    9.3035    5.6225 O   0  0  0  0  0  0  0  0  0  0  0  0
    5.2360   11.5013    5.8573 N   0  0  0  0  0  0  0  0  0  0  0  0
    4.6516   11.6423    7.1252 N   0  0  0  0  0  0  0  0  0  0  0  0
   10.3943   10.1684    3.0613 C   0  0  0  0  0  0  0  0  0  0  0  0
   11.8862    9.7890    2.9949 C   0  0  0  0  0  0  0  0  0  0  0  0
   13.5375    6.2975    0.9560 H   0  0  0  0  0  0  0  0  0  0  0  0
   15.0173    7.2752    0.7914 H   0  0  0  0  0  0  0  0  0  0  0  0
   13.4419    7.9749    0.2642 H   0  0  0  0  0  0  0  0  0  0  0  0
   14.0077    7.0850    3.1154 H   0  0  0  0  0  0  0  0  0  0  0  0
   14.5407    9.3810    3.6465 H   0  0  0  0  0  0  0  0  0  0  0  0
   15.6320    8.6700    2.5840 H   0  0  0  0  0  0  0  0  0  0  0  0
   14.5096    9.7863    1.9794 H   0  0  0  0  0  0  0  0  0  0  0  0
   12.2370    8.0291    3.8801 H   0  0  0  0  0  0  0  0  0  0  0  0
   11.0312    6.4819    3.0515 H   0  0  0  0  0  0  0  0  0  0  0  0
   11.4317    6.8319    1.3667 H   0  0  0  0  0  0  0  0  0  0  0  0
    9.7908    8.4052    1.0608 H   0  0  0  0  0  0  0  0  0  0  0  0
    9.0203    7.1279    2.0620 H   0  0  0  0  0  0  0  0  0  0  0  0
    9.4828    8.5130    4.1221 H   0  0  0  0  0  0  0  0  0  0  0  0
    7.5230    9.5520    4.9484 H   0  0  0  0  0  0  0  0  0  0  0  0
    5.7508   11.1040    3.2571 H   0  0  0  0  0  0  0  0  0  0  0  0
    5.2220    9.3807    3.1854 H   0  0  0  0  0  0  0  0  0  0  0  0
    5.8097   12.2803    5.4597 H   0  0  0  0  0  0  0  0  0  0  0  0
    4.9264   12.5791    7.4995 H   0  0  0  0  0  0  0  0  0  0  0  0
    3.6158   11.6688    6.9865 H   0  0  0  0  0  0  0  0  0  0  0  0
   10.2194   10.8143    3.9503 H   0  0  0  0  0  0  0  0  0  0  0  0
   10.1542   10.7911    2.1690 H   0  0  0  0  0  0  0  0  0  0  0  0
   12.3156   10.3469    2.1358 H   0  0  0  0  0  0  0  0  0  0  0  0
   12.3920   10.1921    3.9022 H   0  0  0  0  0  0  0  0  0  0  0  0
  1  2  1  0
  2  3  1  0
  2  4  1  0
  4  5  1  0
  5  6  1  0
  6  7  1  0
  7  8  1  0
  8  9  2  0
  8 10  1  0
 10 11  1  0
 11 12  1  0
 12 13  2  0
 12 14  1  0
 14 15  1  0
  7 16  1  0
 16 17  1  0
 17  4  1  0
  1 18  1  0
  1 19  1  0
  1 20  1  0
  2 21  1  0
  3 22  1  0
  3 23  1  0
  3 24  1  0
  4 25  1  0
  5 26  1  0
  5 27  1  0
  6 28  1  0
  6 29  1  0
  7 30  1  0
 10 31  1  0
 11 32  1  0
 11 33  1  0
 14 34  1  0
 15 35  1  0
 15 36  1  0
 16 37  1  0
 16 38  1  0
 17 39  1  0
 17 40  1  0
M  CHG  1   3   1
M  END
>  <EmbedRMS>  (180) 
0.16865104847114704

$$$$

     RDKit          3D

 45 45  0  0  0  0  0  0  0  0999 V2000
    5.8188   13.5044    1.8774 C   0  0  0  0  0  0  0  0  0  0  0  0
    5.7734   12.2201    2.2389 C   0  0  0  0  0  0  0  0  0  0  0  0
    5.8027   11.7111    3.6376 C   0  0  0  0  0  0  0  0  0  0  0  0
    5.9017   12.5551    4.6930 C   0  0  0  0  0  0  0  0  0  0  0  0
    5.9511   12.1986    6.1232 C   0  0  0  0  0  0  0  0  0  0  0  0
    5.8853   11.0084    6.5246 O   0  0  0  0  0  0  0  0  0  0  0  0
    6.0703   13.2239    7.0549 O   0  0  0  0  0  0  0  0  0  0  0  0
    5.7655   10.2080    3.7916 C   0  0  0  0  0  0  0  0  0  0  0  0
    7.1157    9.6904    3.9803 N   0  0  0  0  0  0  0  0  0  0  0  0
    8.0102    9.4640    2.8836 C   0  0  0  0  0  0  0  0  0  0  0  0
    7.6321    9.6754    1.6966 O   0  0  0  0  0  0  0  0  0  0  0  0
    9.4081    8.9842    3.1620 C   0  0  0  0  0  0  0  0  0  0  0  0
    9.7860    7.8245    2.2194 C   0  0  0  0  0  0  0  0  0  0  0  0
   11.2390    7.3778    2.4553 C   0  0  0  0  0  0  0  0  0  0  0  0
   12.1557    8.5905    2.2133 C   0  0  0  0  0  0  0  0  0  0  0  0
   13.6674    8.3370    1.9400 C   0  0  0  0  0  0  0  0  0  0  0  0
   14.0263    7.0403    1.2344 C   0  0  0  0  0  0  0  0  0  0  0  0
   14.6122    8.7694    2.9621 N   0  0  0  0  0  4  0  0  0  0  0  0
   11.8539    9.6818    3.2554 C   0  0  0  0  0  0  0  0  0  0  0  0
   10.4033   10.1588    3.0914 C   0  0  0  0  0  0  0  0  0  0  0  0
    5.7855   13.7554    0.8249 H   0  0  0  0  0  0  0  0  0  0  0  0
    5.8874   14.3296    2.5664 H   0  0  0  0  0  0  0  0  0  0  0  0
    5.6980   11.4964    1.4365 H   0  0  0  0  0  0  0  0  0  0  0  0
    5.9486   13.6185    4.5328 H   0  0  0  0  0  0  0  0  0  0  0  0
    6.1067   13.0239    8.0474 H   0  0  0  0  0  0  0  0  0  0  0  0
    5.3077    9.7295    2.8983 H   0  0  0  0  0  0  0  0  0  0  0  0
    5.1060    9.8959    4.6247 H   0  0  0  0  0  0  0  0  0  0  0  0
    7.4368    9.4890    4.9537 H   0  0  0  0  0  0  0  0  0  0  0  0
    9.4422    8.5820    4.1995 H   0  0  0  0  0  0  0  0  0  0  0  0
    9.6540    8.1234    1.1554 H   0  0  0  0  0  0  0  0  0  0  0  0
    9.1117    6.9612    2.4109 H   0  0  0  0  0  0  0  0  0  0  0  0
   11.4602    6.5578    1.7419 H   0  0  0  0  0  0  0  0  0  0  0  0
   11.3709    6.9873    3.4881 H   0  0  0  0  0  0  0  0  0  0  0  0
   11.7993    9.0087    1.2388 H   0  0  0  0  0  0  0  0  0  0  0  0
   13.8803    9.0589    1.1118 H   0  0  0  0  0  0  0  0  0  0  0  0
   13.3746    6.8826    0.3480 H   0  0  0  0  0  0  0  0  0  0  0  0
   15.0812    7.0614    0.8851 H   0  0  0  0  0  0  0  0  0  0  0  0
   13.9067    6.1873    1.9349 H   0  0  0  0  0  0  0  0  0  0  0  0
   14.5939    9.8065    3.0887 H   0  0  0  0  0  0  0  0  0  0  0  0
   14.3779    8.3019    3.8673 H   0  0  0  0  0  0  0  0  0  0  0  0
   15.5884    8.5041    2.6959 H   0  0  0  0  0  0  0  0  0  0  0  0
   12.0212    9.2967    4.2852 H   0  0  0  0  0  0  0  0  0  0  0  0
   12.5059   10.5656    3.0943 H   0  0  0  0  0  0  0  0  0  0  0  0
   10.2975   10.6852    2.1162 H   0  0  0  0  0  0  0  0  0  0  0  0
   10.1704   10.8904    3.8961 H   0  0  0  0  0  0  0  0  0  0  0  0
  1  2  2  3
  2  3  1  0
  3  4  2  3
  4  5  1  0
  5  6  2  0
  5  7  1  0
  3  8  1  0
  8  9  1  0
  9 10  1  0
 10 11  2  0
 10 12  1  0
 12 13  1  0
 13 14  1  0
 14 15  1  0
 15 16  1  0
 16 17  1  0
 16 18  1  0
 15 19  1  0
 19 20  1  0
 20 12  1  0
  1 21  1  0
  1 22  1  0
  2 23  1  0
  4 24  1  0
  7 25  1  0
  8 26  1  0
  8 27  1  0
  9 28  1  0
 12 29  1  0
 13 30  1  0
 13 31  1  0
 14 32  1  0
 14 33  1  0
 15 34  1  0
 16 35  1  0
 17 36  1  0
 17 37  1  0
 17 38  1  0
 18 39  1  0
 18 40  1  0
 18 41  1  0
 19 42  1  0
 19 43  1  0
 20 44  1  0
 20 45  1  0
M  CHG  1  18   1
M  END
>  <EmbedRMS>  (181) 
0.17442689725655267

$$$$

     RDKit          3D

 46 46  0  0  0  0  0  0  0  0999 V2000
    2.3051    7.2496    3.7607 C   0  0  0  0  0  0  0  0  0  0  0  0
    2.5835    8.2584    2.6485 C   0  0  0  0  0  0  0  0  0  0  0  0
    3.4692    9.4106    3.1274 C   0  0  0  0  0  0  0  0  0  0  0  0
    4.9193    8.9668    3.3261 C   0  0  0  0  0  0  0  0  0  0  0  0
    5.7682   10.1363    3.8153 C   0  0  0  0  0  0  0  0  0  0  0  0
    7.1508    9.7119    3.9893 N   0  0  0  0  0  0  0  0  0  0  0  0
    8.0171    9.4692    2.8772 C   0  0  0  0  0  0  0  0  0  0  0  0
    7.6145    9.6885    1.6987 O   0  0  0  0  0  0  0  0  0  0  0  0
    9.4233    8.9852    3.1202 C   0  0  0  0  0  0  0  0  0  0  0  0
    9.7845    7.9361    2.0751 C   0  0  0  0  0  0  0  0  0  0  0  0
   11.1474    7.3156    2.3199 C   0  0  0  0  0  0  0  0  0  0  0  0
   12.2336    8.2986    2.7958 C   0  0  0  0  0  0  0  0  0  0  0  0
   13.7106    7.9146    2.4296 C   0  0  0  0  0  0  0  0  0  0  0  0
   13.9328    7.3323    1.0256 C   0  0  0  0  0  0  0  0  0  0  0  0
   14.6490    9.0162    2.6728 N   0  0  0  0  0  4  0  0  0  0  0  0
   11.8870    9.7889    2.9953 C   0  0  0  0  0  0  0  0  0  0  0  0
   10.3955   10.1685    3.0627 C   0  0  0  0  0  0  0  0  0  0  0  0
    1.9037    7.7594    4.6623 H   0  0  0  0  0  0  0  0  0  0  0  0
    3.2235    6.6882    4.0285 H   0  0  0  0  0  0  0  0  0  0  0  0
    1.5493    6.5163    3.4086 H   0  0  0  0  0  0  0  0  0  0  0  0
    3.0488    7.7435    1.7799 H   0  0  0  0  0  0  0  0  0  0  0  0
    1.6120    8.6795    2.3098 H   0  0  0  0  0  0  0  0  0  0  0  0
    3.0615    9.8339    4.0721 H   0  0  0  0  0  0  0  0  0  0  0  0
    3.4418   10.2134    2.3580 H   0  0  0  0  0  0  0  0  0  0  0  0
    4.9759    8.1564    4.0830 H   0  0  0  0  0  0  0  0  0  0  0  0
    5.3205    8.5813    2.3642 H   0  0  0  0  0  0  0  0  0  0  0  0
    5.3733   10.4943    4.7916 H   0  0  0  0  0  0  0  0  0  0  0  0
    5.7239   10.9832    3.0957 H   0  0  0  0  0  0  0  0  0  0  0  0
    7.5294    9.6311    4.9600 H   0  0  0  0  0  0  0  0  0  0  0  0
    9.4828    8.5150    4.1274 H   0  0  0  0  0  0  0  0  0  0  0  0
    9.7871    8.4043    1.0643 H   0  0  0  0  0  0  0  0  0  0  0  0
    9.0193    7.1276    2.0682 H   0  0  0  0  0  0  0  0  0  0  0  0
   11.0331    6.4805    3.0501 H   0  0  0  0  0  0  0  0  0  0  0  0
   11.4304    6.8346    1.3652 H   0  0  0  0  0  0  0  0  0  0  0  0
   12.2371    8.0287    3.8803 H   0  0  0  0  0  0  0  0  0  0  0  0
   14.0078    7.0847    3.1154 H   0  0  0  0  0  0  0  0  0  0  0  0
   13.5363    6.2977    0.9558 H   0  0  0  0  0  0  0  0  0  0  0  0
   13.4425    7.9753    0.2642 H   0  0  0  0  0  0  0  0  0  0  0  0
   15.0171    7.2740    0.7917 H   0  0  0  0  0  0  0  0  0  0  0  0
   14.5098    9.7861    1.9795 H   0  0  0  0  0  0  0  0  0  0  0  0
   15.6322    8.6695    2.5837 H   0  0  0  0  0  0  0  0  0  0  0  0
   14.5414    9.3805    3.6466 H   0  0  0  0  0  0  0  0  0  0  0  0
   12.3161   10.3468    2.1360 H   0  0  0  0  0  0  0  0  0  0  0  0
   12.3933   10.1917    3.9024 H   0  0  0  0  0  0  0  0  0  0  0  0
   10.1549   10.7898    2.1695 H   0  0  0  0  0  0  0  0  0  0  0  0
   10.2218   10.8161    3.9507 H   0  0  0  0  0  0  0  0  0  0  0  0
  1  2  1  0
  2  3  1  0
  3  4  1  0
  4  5  1  0
  5  6  1  0
  6  7  1  0
  7  8  2  0
  7  9  1  0
  9 10  1  0
 10 11  1  0
 11 12  1  0
 12 13  1  0
 13 14  1  0
 13 15  1  0
 12 16  1  0
 16 17  1  0
 17  9  1  0
  1 18  1  0
  1 19  1  0
  1 20  1  0
  2 21  1  0
  2 22  1  0
  3 23  1  0
  3 24  1  0
  4 25  1  0
  4 26  1  0
  5 27  1  0
  5 28  1  0
  6 29  1  0
  9 30  1  0
 10 31  1  0
 10 32  1  0
 11 33  1  0
 11 34  1  0
 12 35  1  0
 13 36  1  0
 14 37  1  0
 14 38  1  0
 14 39  1  0
 15 40  1  0
 15 41  1  0
 15 42  1  0
 16 43  1  0
 16 44  1  0
 17 45  1  0
 17 46  1  0
M  CHG  1  15   1
M  END
>  <EmbedRMS>  (182) 
0.16933320433084326

$$$$

     RDKit          3D

 44 44  0  0  0  0  0  0  0  0999 V2000
    2.2726   12.2730    1.9197 C   0  0  0  0  0  0  0  0  0  0  0  0
    3.6716   11.7753    2.0767 C   0  0  0  0  0  0  0  0  0  0  0  0
    4.1993   11.0975    1.1535 O   0  0  0  0  0  0  0  0  0  0  0  0
    4.4123   12.0913    3.2636 N   0  0  0  0  0  0  0  0  0  0  0  0
    5.7882   11.6467    3.4755 C   0  0  0  0  0  0  0  0  0  0  0  0
    5.8325   10.1636    3.8751 C   0  0  0  0  0  0  0  0  0  0  0  0
    7.2226    9.6885    3.9384 N   0  0  0  0  0  0  0  0  0  0  0  0
    7.9822    9.5147    2.7306 C   0  0  0  0  0  0  0  0  0  0  0  0
    7.4090    9.6628    1.6229 O   0  0  0  0  0  0  0  0  0  0  0  0
    9.4448    9.1929    2.6561 C   0  0  0  0  0  0  0  0  0  0  0  0
    9.7666    7.7134    2.4316 C   0  0  0  0  0  0  0  0  0  0  0  0
   11.2651    7.3640    2.5402 C   0  0  0  0  0  0  0  0  0  0  0  0
   12.1439    8.5866    2.2323 C   0  0  0  0  0  0  0  0  0  0  0  0
   13.6549    8.3400    1.9333 C   0  0  0  0  0  0  0  0  0  0  0  0
   14.0142    7.0450    1.2245 C   0  0  0  0  0  0  0  0  0  0  0  0
   14.6174    8.7740    2.9401 N   0  0  0  0  0  4  0  0  0  0  0  0
   11.8897    9.6849    3.2851 C   0  0  0  0  0  0  0  0  0  0  0  0
   10.4047   10.0809    3.4318 C   0  0  0  0  0  0  0  0  0  0  0  0
    1.7850   11.7977    1.0420 H   0  0  0  0  0  0  0  0  0  0  0  0
    2.2858   13.3733    1.7753 H   0  0  0  0  0  0  0  0  0  0  0  0
    1.6851   12.0305    2.8298 H   0  0  0  0  0  0  0  0  0  0  0  0
    3.9764   12.7171    3.9782 H   0  0  0  0  0  0  0  0  0  0  0  0
    6.3806   11.8354    2.5554 H   0  0  0  0  0  0  0  0  0  0  0  0
    6.2447   12.2471    4.2922 H   0  0  0  0  0  0  0  0  0  0  0  0
    5.2582    9.5431    3.1538 H   0  0  0  0  0  0  0  0  0  0  0  0
    5.3593   10.0461    4.8739 H   0  0  0  0  0  0  0  0  0  0  0  0
    7.6549    9.4618    4.8617 H   0  0  0  0  0  0  0  0  0  0  0  0
    9.6827    9.5850    1.6377 H   0  0  0  0  0  0  0  0  0  0  0  0
    9.3865    7.3953    1.4337 H   0  0  0  0  0  0  0  0  0  0  0  0
    9.2159    7.1115    3.1869 H   0  0  0  0  0  0  0  0  0  0  0  0
   11.4755    6.5310    1.8379 H   0  0  0  0  0  0  0  0  0  0  0  0
   11.4952    7.0012    3.5662 H   0  0  0  0  0  0  0  0  0  0  0  0
   11.7508    8.9795    1.2653 H   0  0  0  0  0  0  0  0  0  0  0  0
   13.8449    9.0656    1.1033 H   0  0  0  0  0  0  0  0  0  0  0  0
   15.0592    7.0794    0.8478 H   0  0  0  0  0  0  0  0  0  0  0  0
   13.9249    6.1936    1.9314 H   0  0  0  0  0  0  0  0  0  0  0  0
   13.3412    6.8742    0.3568 H   0  0  0  0  0  0  0  0  0  0  0  0
   14.5656    9.8050    3.1029 H   0  0  0  0  0  0  0  0  0  0  0  0
   14.4333    8.2660    3.8350 H   0  0  0  0  0  0  0  0  0  0  0  0
   15.5929    8.5557    2.6317 H   0  0  0  0  0  0  0  0  0  0  0  0
   12.4544   10.6000    3.0036 H   0  0  0  0  0  0  0  0  0  0  0  0
   12.2718    9.3427    4.2720 H   0  0  0  0  0  0  0  0  0  0  0  0
   10.2656   11.1439    3.1275 H   0  0  0  0  0  0  0  0  0  0  0  0
   10.1319   10.0247    4.5078 H   0  0  0  0  0  0  0  0  0  0  0  0
  1  2  1  0
  2  3  2  0
  2  4  1  0
  4  5  1  0
  5  6  1  0
  6  7  1  0
  7  8  1  0
  8  9  2  0
  8 10  1  0
 10 11  1  0
 11 12  1  0
 12 13  1  0
 13 14  1  0
 14 15  1  0
 14 16  1  0
 13 17  1  0
 17 18  1  0
 18 10  1  0
  1 19  1  0
  1 20  1  0
  1 21  1  0
  4 22  1  0
  5 23  1  0
  5 24  1  0
  6 25  1  0
  6 26  1  0
  7 27  1  0
 10 28  1  0
 11 29  1  0
 11 30  1  0
 12 31  1  0
 12 32  1  0
 13 33  1  0
 14 34  1  0
 15 35  1  0
 15 36  1  0
 15 37  1  0
 16 38  1  0
 16 39  1  0
 16 40  1  0
 17 41  1  0
 17 42  1  0
 18 43  1  0
 18 44  1  0
M  CHG  1  16   1
M  END
>  <EmbedRMS>  (183) 
0.2509587523478319

$$$$

     RDKit          3D

 44 44  0  0  0  0  0  0  0  0999 V2000
   13.9344    7.3325    1.0251 C   0  0  0  0  0  0  0  0  0  0  0  0
   13.7124    7.9143    2.4293 C   0  0  0  0  0  0  0  0  0  0  0  0
   14.6504    9.0161    2.6726 N   0  0  0  0  0  4  0  0  0  0  0  0
   12.2357    8.2978    2.7953 C   0  0  0  0  0  0  0  0  0  0  0  0
   11.1506    7.3136    2.3192 C   0  0  0  0  0  0  0  0  0  0  0  0
    9.7889    7.9336    2.0719 C   0  0  0  0  0  0  0  0  0  0  0  0
    9.4291    8.9809    3.1175 C   0  0  0  0  0  0  0  0  0  0  0  0
    8.0244    9.4610    2.8767 C   0  0  0  0  0  0  0  0  0  0  0  0
    7.6190    9.6840    1.6996 O   0  0  0  0  0  0  0  0  0  0  0  0
    7.1616    9.6889    3.9915 N   0  0  0  0  0  0  0  0  0  0  0  0
    5.7855   10.1247    3.8210 C   0  0  0  0  0  0  0  0  0  0  0  0
    4.7423    8.9630    3.8122 C   0  0  0  0  0  0  0  0  0  0  0  0
    4.1166    8.8214    5.1831 C   0  0  0  0  0  0  0  0  0  0  0  0
    4.2843    8.6567    2.4010 C   0  0  0  0  0  0  0  0  0  0  0  0
    5.0987    7.7653    3.9177 O   0  0  0  0  0  0  0  0  0  0  0  0
   10.3977   10.1666    3.0612 C   0  0  0  0  0  0  0  0  0  0  0  0
   11.8890    9.7883    2.9936 C   0  0  0  0  0  0  0  0  0  0  0  0
   13.5401    6.2970    0.9555 H   0  0  0  0  0  0  0  0  0  0  0  0
   15.0186    7.2763    0.7900 H   0  0  0  0  0  0  0  0  0  0  0  0
   13.4422    7.9745    0.2641 H   0  0  0  0  0  0  0  0  0  0  0  0
   14.0100    7.0843    3.1149 H   0  0  0  0  0  0  0  0  0  0  0  0
   14.5109    9.7861    1.9796 H   0  0  0  0  0  0  0  0  0  0  0  0
   15.6337    8.6698    2.5833 H   0  0  0  0  0  0  0  0  0  0  0  0
   14.5428    9.3801    3.6466 H   0  0  0  0  0  0  0  0  0  0  0  0
   12.2392    8.0286    3.8800 H   0  0  0  0  0  0  0  0  0  0  0  0
   11.0353    6.4797    3.0507 H   0  0  0  0  0  0  0  0  0  0  0  0
   11.4346    6.8309    1.3657 H   0  0  0  0  0  0  0  0  0  0  0  0
    9.7931    8.4028    1.0615 H   0  0  0  0  0  0  0  0  0  0  0  0
    9.0236    7.1252    2.0640 H   0  0  0  0  0  0  0  0  0  0  0  0
    9.4921    8.5093    4.1239 H   0  0  0  0  0  0  0  0  0  0  0  0
    7.5013    9.4861    4.9588 H   0  0  0  0  0  0  0  0  0  0  0  0
    5.5537   10.8434    4.6375 H   0  0  0  0  0  0  0  0  0  0  0  0
    5.6953   10.7432    2.9009 H   0  0  0  0  0  0  0  0  0  0  0  0
    4.8622    8.6933    6.0088 H   0  0  0  0  0  0  0  0  0  0  0  0
    3.3169    8.0378    5.2516 H   0  0  0  0  0  0  0  0  0  0  0  0
    3.5776    9.7669    5.4063 H   0  0  0  0  0  0  0  0  0  0  0  0
    3.4915    7.8674    2.3375 H   0  0  0  0  0  0  0  0  0  0  0  0
    5.1205    8.4243    1.6954 H   0  0  0  0  0  0  0  0  0  0  0  0
    3.7922    9.5686    2.0007 H   0  0  0  0  0  0  0  0  0  0  0  0
    6.0784    7.6314    3.8034 H   0  0  0  0  0  0  0  0  0  0  0  0
   10.1562   10.7885    2.1686 H   0  0  0  0  0  0  0  0  0  0  0  0
   10.2230   10.8125    3.9502 H   0  0  0  0  0  0  0  0  0  0  0  0
   12.3172   10.3454    2.1334 H   0  0  0  0  0  0  0  0  0  0  0  0
   12.3955   10.1922    3.9001 H   0  0  0  0  0  0  0  0  0  0  0  0
  1  2  1  0
  2  3  1  0
  2  4  1  0
  4  5  1  0
  5  6  1  0
  6  7  1  0
  7  8  1  0
  8  9  2  0
  8 10  1  0
 10 11  1  0
 11 12  1  0
 12 13  1  0
 12 14  1  0
 12 15  1  0
  7 16  1  0
 16 17  1  0
 17  4  1  0
  1 18  1  0
  1 19  1  0
  1 20  1  0
  2 21  1  0
  3 22  1  0
  3 23  1  0
  3 24  1  0
  4 25  1  0
  5 26  1  0
  5 27  1  0
  6 28  1  0
  6 29  1  0
  7 30  1  0
 10 31  1  0
 11 32  1  0
 11 33  1  0
 13 34  1  0
 13 35  1  0
 13 36  1  0
 14 37  1  0
 14 38  1  0
 14 39  1  0
 15 40  1  0
 16 41  1  0
 16 42  1  0
 17 43  1  0
 17 44  1  0
M  CHG  1   3   1
M  END
>  <EmbedRMS>  (184) 
0.6861464654853324

$$$$

     RDKit          3D

 39 39  0  0  0  0  0  0  0  0999 V2000
   14.0279    7.0398    1.2343 C   0  0  0  0  0  0  0  0  0  0  0  0
   13.6691    8.3365    1.9397 C   0  0  0  0  0  0  0  0  0  0  0  0
   14.6132    8.7687    2.9623 N   0  0  0  0  0  4  0  0  0  0  0  0
   12.1576    8.5899    2.2120 C   0  0  0  0  0  0  0  0  0  0  0  0
   11.2403    7.3773    2.4521 C   0  0  0  0  0  0  0  0  0  0  0  0
    9.7882    7.8244    2.2120 C   0  0  0  0  0  0  0  0  0  0  0  0
    9.4110    8.9839    3.1528 C   0  0  0  0  0  0  0  0  0  0  0  0
    8.0130    9.4644    2.8776 C   0  0  0  0  0  0  0  0  0  0  0  0
    7.6231    9.6752    1.6942 O   0  0  0  0  0  0  0  0  0  0  0  0
    7.1378    9.7062    3.9804 N   0  0  0  0  0  0  0  0  0  0  0  0
    5.7556   10.1301    3.7908 C   0  0  0  0  0  0  0  0  0  0  0  0
    5.0620   10.3118    5.1402 C   0  0  0  0  0  0  0  0  0  0  0  0
    5.6764   11.4079    5.8833 N   0  0  0  0  0  0  0  0  0  0  0  0
   10.4058   10.1587    3.0875 C   0  0  0  0  0  0  0  0  0  0  0  0
   11.8554    9.6809    3.2543 C   0  0  0  0  0  0  0  0  0  0  0  0
   13.9076    6.1867    1.9346 H   0  0  0  0  0  0  0  0  0  0  0  0
   13.3769    6.8823    0.3473 H   0  0  0  0  0  0  0  0  0  0  0  0
   15.0830    7.0604    0.8857 H   0  0  0  0  0  0  0  0  0  0  0  0
   13.8829    9.0582    1.1115 H   0  0  0  0  0  0  0  0  0  0  0  0
   14.5959    9.8060    3.0882 H   0  0  0  0  0  0  0  0  0  0  0  0
   14.3777    8.3021    3.8676 H   0  0  0  0  0  0  0  0  0  0  0  0
   15.5895    8.5025    2.6972 H   0  0  0  0  0  0  0  0  0  0  0  0
   11.8024    9.0089    1.2374 H   0  0  0  0  0  0  0  0  0  0  0  0
   11.4628    6.5569    1.7395 H   0  0  0  0  0  0  0  0  0  0  0  0
   11.3695    6.9868    3.4853 H   0  0  0  0  0  0  0  0  0  0  0  0
    9.1127    6.9617    2.4025 H   0  0  0  0  0  0  0  0  0  0  0  0
    9.6583    8.1236    1.1478 H   0  0  0  0  0  0  0  0  0  0  0  0
    9.4462    8.5786    4.1892 H   0  0  0  0  0  0  0  0  0  0  0  0
    7.5068    9.5681    4.9493 H   0  0  0  0  0  0  0  0  0  0  0  0
    5.7299   11.0850    3.2219 H   0  0  0  0  0  0  0  0  0  0  0  0
    5.2125    9.3559    3.2070 H   0  0  0  0  0  0  0  0  0  0  0  0
    3.9835   10.5293    4.9729 H   0  0  0  0  0  0  0  0  0  0  0  0
    5.1375    9.3708    5.7286 H   0  0  0  0  0  0  0  0  0  0  0  0
    5.4346   12.3055    5.4034 H   0  0  0  0  0  0  0  0  0  0  0  0
    5.2252   11.4448    6.8258 H   0  0  0  0  0  0  0  0  0  0  0  0
   10.1714   10.8885    3.8932 H   0  0  0  0  0  0  0  0  0  0  0  0
   10.3026   10.6868    2.1130 H   0  0  0  0  0  0  0  0  0  0  0  0
   12.5083   10.5644    3.0948 H   0  0  0  0  0  0  0  0  0  0  0  0
   12.0204    9.2950    4.2841 H   0  0  0  0  0  0  0  0  0  0  0  0
  1  2  1  0
  2  3  1  0
  2  4  1  0
  4  5  1  0
  5  6  1  0
  6  7  1  0
  7  8  1  0
  8  9  2  0
  8 10  1  0
 10 11  1  0
 11 12  1  0
 12 13  1  0
  7 14  1  0
 14 15  1  0
 15  4  1  0
  1 16  1  0
  1 17  1  0
  1 18  1  0
  2 19  1  0
  3 20  1  0
  3 21  1  0
  3 22  1  0
  4 23  1  0
  5 24  1  0
  5 25  1  0
  6 26  1  0
  6 27  1  0
  7 28  1  0
 10 29  1  0
 11 30  1  0
 11 31  1  0
 12 32  1  0
 12 33  1  0
 13 34  1  0
 13 35  1  0
 14 36  1  0
 14 37  1  0
 15 38  1  0
 15 39  1  0
M  CHG  1   3   1
M  END
>  <EmbedRMS>  (185) 
0.19998376465474313

$$$$

     RDKit          3D

 46 46  0  0  0  0  0  0  0  0999 V2000
    3.5586    9.4531    2.7375 C   0  0  0  0  0  0  0  0  0  0  0  0
    4.9133    8.9680    3.2474 C   0  0  0  0  0  0  0  0  0  0  0  0
    5.7590   10.1264    3.8198 C   0  0  0  0  0  0  0  0  0  0  0  0
    5.2192   10.6643    5.1620 C   0  0  0  0  0  0  0  0  0  0  0  0
    5.1901    9.6219    6.2870 C   0  0  0  0  0  0  0  0  0  0  0  0
    7.1543    9.7158    3.9751 N   0  0  0  0  0  0  0  0  0  0  0  0
    8.0196    9.4626    2.8683 C   0  0  0  0  0  0  0  0  0  0  0  0
    7.6301    9.6757    1.6856 O   0  0  0  0  0  0  0  0  0  0  0  0
    9.4148    8.9820    3.1460 C   0  0  0  0  0  0  0  0  0  0  0  0
    9.7916    7.8226    2.2070 C   0  0  0  0  0  0  0  0  0  0  0  0
   11.2427    7.3761    2.4505 C   0  0  0  0  0  0  0  0  0  0  0  0
   12.1596    8.5893    2.2113 C   0  0  0  0  0  0  0  0  0  0  0  0
   13.6708    8.3362    1.9394 C   0  0  0  0  0  0  0  0  0  0  0  0
   14.0295    7.0396    1.2340 C   0  0  0  0  0  0  0  0  0  0  0  0
   14.6144    8.7683    2.9625 N   0  0  0  0  0  4  0  0  0  0  0  0
   11.8571    9.6799    3.2538 C   0  0  0  0  0  0  0  0  0  0  0  0
   10.4083   10.1577    3.0852 C   0  0  0  0  0  0  0  0  0  0  0  0
    2.9221    9.7991    3.5776 H   0  0  0  0  0  0  0  0  0  0  0  0
    3.6869   10.2769    2.0035 H   0  0  0  0  0  0  0  0  0  0  0  0
    3.0335    8.6142    2.2338 H   0  0  0  0  0  0  0  0  0  0  0  0
    4.7732    8.1584    3.9925 H   0  0  0  0  0  0  0  0  0  0  0  0
    5.4429    8.5122    2.3847 H   0  0  0  0  0  0  0  0  0  0  0  0
    5.7346   10.9736    3.0978 H   0  0  0  0  0  0  0  0  0  0  0  0
    5.8671   11.5080    5.4862 H   0  0  0  0  0  0  0  0  0  0  0  0
    4.2005   11.0845    5.0275 H   0  0  0  0  0  0  0  0  0  0  0  0
    4.9741   10.1352    7.2476 H   0  0  0  0  0  0  0  0  0  0  0  0
    6.1473    9.0776    6.4023 H   0  0  0  0  0  0  0  0  0  0  0  0
    4.3747    8.8895    6.1156 H   0  0  0  0  0  0  0  0  0  0  0  0
    7.6014    9.7403    4.9184 H   0  0  0  0  0  0  0  0  0  0  0  0
    9.4470    8.5748    4.1820 H   0  0  0  0  0  0  0  0  0  0  0  0
    9.6636    8.1211    1.1424 H   0  0  0  0  0  0  0  0  0  0  0  0
    9.1155    6.9603    2.3972 H   0  0  0  0  0  0  0  0  0  0  0  0
   11.4666    6.5554    1.7388 H   0  0  0  0  0  0  0  0  0  0  0  0
   11.3700    6.9863    3.4842 H   0  0  0  0  0  0  0  0  0  0  0  0
   11.8050    9.0087    1.2366 H   0  0  0  0  0  0  0  0  0  0  0  0
   13.8851    9.0581    1.1114 H   0  0  0  0  0  0  0  0  0  0  0  0
   13.9091    6.1864    1.9342 H   0  0  0  0  0  0  0  0  0  0  0  0
   13.3789    6.8823    0.3468 H   0  0  0  0  0  0  0  0  0  0  0  0
   15.0848    7.0601    0.8858 H   0  0  0  0  0  0  0  0  0  0  0  0
   14.5976    9.8056    3.0880 H   0  0  0  0  0  0  0  0  0  0  0  0
   15.5907    8.5014    2.6982 H   0  0  0  0  0  0  0  0  0  0  0  0
   14.3781    8.3020    3.8678 H   0  0  0  0  0  0  0  0  0  0  0  0
   12.5103   10.5634    3.0955 H   0  0  0  0  0  0  0  0  0  0  0  0
   12.0208    9.2935    4.2836 H   0  0  0  0  0  0  0  0  0  0  0  0
   10.3069   10.6878    2.1116 H   0  0  0  0  0  0  0  0  0  0  0  0
   10.1720   10.8857    3.8921 H   0  0  0  0  0  0  0  0  0  0  0  0
  1  2  1  0
  2  3  1  0
  3  4  1  0
  4  5  1  0
  3  6  1  0
  6  7  1  0
  7  8  2  0
  7  9  1  0
  9 10  1  0
 10 11  1  0
 11 12  1  0
 12 13  1  0
 13 14  1  0
 13 15  1  0
 12 16  1  0
 16 17  1  0
 17  9  1  0
  1 18  1  0
  1 19  1  0
  1 20  1  0
  2 21  1  0
  2 22  1  0
  3 23  1  0
  4 24  1  0
  4 25  1  0
  5 26  1  0
  5 27  1  0
  5 28  1  0
  6 29  1  0
  9 30  1  0
 10 31  1  0
 10 32  1  0
 11 33  1  0
 11 34  1  0
 12 35  1  0
 13 36  1  0
 14 37  1  0
 14 38  1  0
 14 39  1  0
 15 40  1  0
 15 41  1  0
 15 42  1  0
 16 43  1  0
 16 44  1  0
 17 45  1  0
 17 46  1  0
M  CHG  1  15   1
M  END
>  <EmbedRMS>  (186) 
0.18933276762833356

$$$$

     RDKit          3D

 45 45  0  0  0  0  0  0  0  0999 V2000
   13.9331    7.3326    1.0255 C   0  0  0  0  0  0  0  0  0  0  0  0
   13.7107    7.9149    2.4295 C   0  0  0  0  0  0  0  0  0  0  0  0
   14.6488    9.0167    2.6728 N   0  0  0  0  0  4  0  0  0  0  0  0
   12.2336    8.2986    2.7956 C   0  0  0  0  0  0  0  0  0  0  0  0
   11.1479    7.3149    2.3200 C   0  0  0  0  0  0  0  0  0  0  0  0
    9.7862    7.9355    2.0709 C   0  0  0  0  0  0  0  0  0  0  0  0
    9.4226    8.9836    3.1152 C   0  0  0  0  0  0  0  0  0  0  0  0
    8.0148    9.4645    2.8707 C   0  0  0  0  0  0  0  0  0  0  0  0
    7.6111    9.6884    1.6939 O   0  0  0  0  0  0  0  0  0  0  0  0
    7.1447    9.6870    3.9796 N   0  0  0  0  0  0  0  0  0  0  0  0
    5.7754   10.1544    3.7907 C   0  0  0  0  0  0  0  0  0  0  0  0
    5.0779   10.3101    5.1377 C   0  0  0  0  0  0  0  0  0  0  0  0
    4.8732    8.9858    5.7602 N   0  0  0  0  0  0  0  0  0  0  0  0
    3.5334    8.4754    5.4313 C   0  0  0  0  0  0  0  0  0  0  0  0
    5.0031    9.0916    7.2195 C   0  0  0  0  0  0  0  0  0  0  0  0
   10.3941   10.1678    3.0611 C   0  0  0  0  0  0  0  0  0  0  0  0
   11.8861    9.7889    2.9950 C   0  0  0  0  0  0  0  0  0  0  0  0
   13.5382    6.2974    0.9560 H   0  0  0  0  0  0  0  0  0  0  0  0
   15.0174    7.2758    0.7911 H   0  0  0  0  0  0  0  0  0  0  0  0
   13.4416    7.9747    0.2642 H   0  0  0  0  0  0  0  0  0  0  0  0
   14.0081    7.0850    3.1153 H   0  0  0  0  0  0  0  0  0  0  0  0
   15.6321    8.6702    2.5841 H   0  0  0  0  0  0  0  0  0  0  0  0
   14.5096    9.7864    1.9793 H   0  0  0  0  0  0  0  0  0  0  0  0
   14.5407    9.3812    3.6464 H   0  0  0  0  0  0  0  0  0  0  0  0
   12.2374    8.0289    3.8802 H   0  0  0  0  0  0  0  0  0  0  0  0
   11.0315    6.4817    3.0520 H   0  0  0  0  0  0  0  0  0  0  0  0
   11.4324    6.8311    1.3672 H   0  0  0  0  0  0  0  0  0  0  0  0
    9.7918    8.4045    1.0604 H   0  0  0  0  0  0  0  0  0  0  0  0
    9.0211    7.1270    2.0614 H   0  0  0  0  0  0  0  0  0  0  0  0
    9.4835    8.5120    4.1217 H   0  0  0  0  0  0  0  0  0  0  0  0
    7.5095    9.5112    4.9440 H   0  0  0  0  0  0  0  0  0  0  0  0
    5.7952   11.1414    3.2797 H   0  0  0  0  0  0  0  0  0  0  0  0
    5.2191    9.4385    3.1486 H   0  0  0  0  0  0  0  0  0  0  0  0
    5.7143   10.9731    5.7693 H   0  0  0  0  0  0  0  0  0  0  0  0
    4.1169   10.8562    4.9938 H   0  0  0  0  0  0  0  0  0  0  0  0
    2.7323    9.1242    5.8524 H   0  0  0  0  0  0  0  0  0  0  0  0
    3.4024    8.4107    4.3301 H   0  0  0  0  0  0  0  0  0  0  0  0
    3.4101    7.4468    5.8336 H   0  0  0  0  0  0  0  0  0  0  0  0
    4.8205    8.1040    7.6961 H   0  0  0  0  0  0  0  0  0  0  0  0
    6.0391    9.3921    7.4875 H   0  0  0  0  0  0  0  0  0  0  0  0
    4.2878    9.8353    7.6379 H   0  0  0  0  0  0  0  0  0  0  0  0
   10.2188   10.8136    3.9500 H   0  0  0  0  0  0  0  0  0  0  0  0
   10.1540   10.7903    2.1687 H   0  0  0  0  0  0  0  0  0  0  0  0
   12.3157   10.3469    2.1360 H   0  0  0  0  0  0  0  0  0  0  0  0
   12.3916   10.1919    3.9024 H   0  0  0  0  0  0  0  0  0  0  0  0
  1  2  1  0
  2  3  1  0
  2  4  1  0
  4  5  1  0
  5  6  1  0
  6  7  1  0
  7  8  1  0
  8  9  2  0
  8 10  1  0
 10 11  1  0
 11 12  1  0
 12 13  1  0
 13 14  1  0
 13 15  1  0
  7 16  1  0
 16 17  1  0
 17  4  1  0
  1 18  1  0
  1 19  1  0
  1 20  1  0
  2 21  1  0
  3 22  1  0
  3 23  1  0
  3 24  1  0
  4 25  1  0
  5 26  1  0
  5 27  1  0
  6 28  1  0
  6 29  1  0
  7 30  1  0
 10 31  1  0
 11 32  1  0
 11 33  1  0
 12 34  1  0
 12 35  1  0
 14 36  1  0
 14 37  1  0
 14 38  1  0
 15 39  1  0
 15 40  1  0
 15 41  1  0
 16 42  1  0
 16 43  1  0
 17 44  1  0
 17 45  1  0
M  CHG  1   3   1
M  END
>  <EmbedRMS>  (187) 
0.1707968305671159

$$$$

     RDKit          3D

 40 40  0  0  0  0  0  0  0  0999 V2000
   13.9329    7.3325    1.0256 C   0  0  0  0  0  0  0  0  0  0  0  0
   13.7105    7.9149    2.4295 C   0  0  0  0  0  0  0  0  0  0  0  0
   14.6487    9.0165    2.6728 N   0  0  0  0  0  4  0  0  0  0  0  0
   12.2334    8.2987    2.7955 C   0  0  0  0  0  0  0  0  0  0  0  0
   11.1474    7.3153    2.3198 C   0  0  0  0  0  0  0  0  0  0  0  0
    9.7855    7.9363    2.0713 C   0  0  0  0  0  0  0  0  0  0  0  0
    9.4223    8.9847    3.1156 C   0  0  0  0  0  0  0  0  0  0  0  0
    8.0144    9.4669    2.8721 C   0  0  0  0  0  0  0  0  0  0  0  0
    7.6087    9.6862    1.6951 O   0  0  0  0  0  0  0  0  0  0  0  0
    7.1483    9.6996    3.9827 N   0  0  0  0  0  0  0  0  0  0  0  0
    5.7687   10.1321    3.7956 C   0  0  0  0  0  0  0  0  0  0  0  0
    5.1029   10.2810    5.1238 C   0  0  0  0  0  0  0  0  0  0  0  0
    4.4834    9.3035    5.6225 O   0  0  0  0  0  0  0  0  0  0  0  0
    5.2360   11.5013    5.8573 N   0  0  0  0  0  0  0  0  0  0  0  0
    4.6516   11.6423    7.1252 N   0  0  0  0  0  0  0  0  0  0  0  0
   10.3943   10.1684    3.0613 C   0  0  0  0  0  0  0  0  0  0  0  0
   11.8862    9.7890    2.9949 C   0  0  0  0  0  0  0  0  0  0  0  0
   13.5375    6.2975    0.9560 H   0  0  0  0  0  0  0  0  0  0  0  0
   15.0173    7.2752    0.7914 H   0  0  0  0  0  0  0  0  0  0  0  0
   13.4419    7.9749    0.2642 H   0  0  0  0  0  0  0  0  0  0  0  0
   14.0077    7.0850    3.1154 H   0  0  0  0  0  0  0  0  0  0  0  0
   14.5407    9.3810    3.6465 H   0  0  0  0  0  0  0  0  0  0  0  0
   15.6320    8.6700    2.5840 H   0  0  0  0  0  0  0  0  0  0  0  0
   14.5096    9.7863    1.9794 H   0  0  0  0  0  0  0  0  0  0  0  0
   12.2370    8.0291    3.8801 H   0  0  0  0  0  0  0  0  0  0  0  0
   11.0312    6.4819    3.0515 H   0  0  0  0  0  0  0  0  0  0  0  0
   11.4317    6.8319    1.3667 H   0  0  0  0  0  0  0  0  0  0  0  0
    9.7908    8.4052    1.0608 H   0  0  0  0  0  0  0  0  0  0  0  0
    9.0203    7.1279    2.0620 H   0  0  0  0  0  0  0  0  0  0  0  0
    9.4828    8.5130    4.1221 H   0  0  0  0  0  0  0  0  0  0  0  0
    7.5230    9.5520    4.9484 H   0  0  0  0  0  0  0  0  0  0  0  0
    5.7508   11.1040    3.2571 H   0  0  0  0  0  0  0  0  0  0  0  0
    5.2220    9.3807    3.1854 H   0  0  0  0  0  0  0  0  0  0  0  0
    5.8097   12.2803    5.4597 H   0  0  0  0  0  0  0  0  0  0  0  0
    4.9264   12.5791    7.4995 H   0  0  0  0  0  0  0  0  0  0  0  0
    3.6158   11.6688    6.9865 H   0  0  0  0  0  0  0  0  0  0  0  0
   10.2194   10.8143    3.9503 H   0  0  0  0  0  0  0  0  0  0  0  0
   10.1542   10.7911    2.1690 H   0  0  0  0  0  0  0  0  0  0  0  0
   12.3156   10.3469    2.1358 H   0  0  0  0  0  0  0  0  0  0  0  0
   12.3920   10.1921    3.9022 H   0  0  0  0  0  0  0  0  0  0  0  0
  1  2  1  0
  2  3  1  0
  2  4  1  0
  4  5  1  0
  5  6  1  0
  6  7  1  0
  7  8  1  0
  8  9  2  0
  8 10  1  0
 10 11  1  0
 11 12  1  0
 12 13  2  0
 12 14  1  0
 14 15  1  0
  7 16  1  0
 16 17  1  0
 17  4  1  0
  1 18  1  0
  1 19  1  0
  1 20  1  0
  2 21  1  0
  3 22  1  0
  3 23  1  0
  3 24  1  0
  4 25  1  0
  5 26  1  0
  5 27  1  0
  6 28  1  0
  6 29  1  0
  7 30  1  0
 10 31  1  0
 11 32  1  0
 11 33  1  0
 14 34  1  0
 15 35  1  0
 15 36  1  0
 16 37  1  0
 16 38  1  0
 17 39  1  0
 17 40  1  0
M  CHG  1   3   1
M  END
>  <EmbedRMS>  (188) 
0.16865104847114704

$$$$

     RDKit          3D

 44 44  0  0  0  0  0  0  0  0999 V2000
   14.0122    7.0504    1.2528 C   0  0  0  0  0  0  0  0  0  0  0  0
   13.6014    8.3242    1.9895 C   0  0  0  0  0  0  0  0  0  0  0  0
   14.7031    8.8917    2.7695 N   0  0  0  0  0  4  0  0  0  0  0  0
   12.2621    8.3269    2.7668 C   0  0  0  0  0  0  0  0  0  0  0  0
   11.1808    7.4388    2.1343 C   0  0  0  0  0  0  0  0  0  0  0  0
    9.7461    7.7259    2.5428 C   0  0  0  0  0  0  0  0  0  0  0  0
    9.4521    9.2015    2.6313 C   0  0  0  0  0  0  0  0  0  0  0  0
    7.9916    9.5235    2.7203 C   0  0  0  0  0  0  0  0  0  0  0  0
    7.4126    9.6688    1.6167 O   0  0  0  0  0  0  0  0  0  0  0  0
    7.2400    9.6875    3.9339 N   0  0  0  0  0  0  0  0  0  0  0  0
    5.8476   10.1523    3.8888 C   0  0  0  0  0  0  0  0  0  0  0  0
    5.7866   11.6348    3.4787 C   0  0  0  0  0  0  0  0  0  0  0  0
    4.3465   12.1386    3.3126 C   0  0  0  0  0  0  0  0  0  0  0  0
    3.6290   12.3298    4.6495 C   0  0  0  0  0  0  0  0  0  0  0  0
    4.2413   13.3567    5.3785 O   0  0  0  0  0  0  0  0  0  0  0  0
   10.3855   10.0198    3.4797 C   0  0  0  0  0  0  0  0  0  0  0  0
   11.8500    9.7805    3.1211 C   0  0  0  0  0  0  0  0  0  0  0  0
   13.2687    6.7646    0.4806 H   0  0  0  0  0  0  0  0  0  0  0  0
   14.1172    6.2175    1.9793 H   0  0  0  0  0  0  0  0  0  0  0  0
   14.9842    7.1925    0.7340 H   0  0  0  0  0  0  0  0  0  0  0  0
   13.4373    9.0283    1.1407 H   0  0  0  0  0  0  0  0  0  0  0  0
   14.8388    8.3412    3.6483 H   0  0  0  0  0  0  0  0  0  0  0  0
   15.5925    8.8677    2.2196 H   0  0  0  0  0  0  0  0  0  0  0  0
   14.5205    9.8921    3.0080 H   0  0  0  0  0  0  0  0  0  0  0  0
   12.4694    7.8404    3.7467 H   0  0  0  0  0  0  0  0  0  0  0  0
   11.4072    6.3663    2.3242 H   0  0  0  0  0  0  0  0  0  0  0  0
   11.2151    7.5901    1.0331 H   0  0  0  0  0  0  0  0  0  0  0  0
    9.0562    7.2342    1.8205 H   0  0  0  0  0  0  0  0  0  0  0  0
    9.5628    7.2727    3.5415 H   0  0  0  0  0  0  0  0  0  0  0  0
    9.7228    9.5602    1.6072 H   0  0  0  0  0  0  0  0  0  0  0  0
    7.6837    9.4625    4.8522 H   0  0  0  0  0  0  0  0  0  0  0  0
    5.2667    9.5248    3.1781 H   0  0  0  0  0  0  0  0  0  0  0  0
    5.4038   10.0240    4.8977 H   0  0  0  0  0  0  0  0  0  0  0  0
    6.3284   12.2520    4.2280 H   0  0  0  0  0  0  0  0  0  0  0  0
    6.3039   11.7726    2.5063 H   0  0  0  0  0  0  0  0  0  0  0  0
    3.7695   11.4279    2.6816 H   0  0  0  0  0  0  0  0  0  0  0  0
    4.3660   13.1138    2.7785 H   0  0  0  0  0  0  0  0  0  0  0  0
    3.6223   11.3875    5.2378 H   0  0  0  0  0  0  0  0  0  0  0  0
    2.5718   12.6091    4.4429 H   0  0  0  0  0  0  0  0  0  0  0  0
    3.7359   13.4294    6.2295 H   0  0  0  0  0  0  0  0  0  0  0  0
   10.1480   11.1029    3.3827 H   0  0  0  0  0  0  0  0  0  0  0  0
   10.2298    9.7354    4.5431 H   0  0  0  0  0  0  0  0  0  0  0  0
   12.4697   10.1514    3.9664 H   0  0  0  0  0  0  0  0  0  0  0  0
   12.0674   10.4408    2.2526 H   0  0  0  0  0  0  0  0  0  0  0  0
  1  2  1  0
  2  3  1  0
  2  4  1  0
  4  5  1  0
  5  6  1  0
  6  7  1  0
  7  8  1  0
  8  9  2  0
  8 10  1  0
 10 11  1  0
 11 12  1  0
 12 13  1  0
 13 14  1  0
 14 15  1  0
  7 16  1  0
 16 17  1  0
 17  4  1  0
  1 18  1  0
  1 19  1  0
  1 20  1  0
  2 21  1  0
  3 22  1  0
  3 23  1  0
  3 24  1  0
  4 25  1  0
  5 26  1  0
  5 27  1  0
  6 28  1  0
  6 29  1  0
  7 30  1  0
 10 31  1  0
 11 32  1  0
 11 33  1  0
 12 34  1  0
 12 35  1  0
 13 36  1  0
 13 37  1  0
 14 38  1  0
 14 39  1  0
 15 40  1  0
 16 41  1  0
 16 42  1  0
 17 43  1  0
 17 44  1  0
M  CHG  1   3   1
M  END
>  <EmbedRMS>  (189) 
0.3028787039700591

$$$$

     RDKit          3D

 44 44  0  0  0  0  0  0  0  0999 V2000
   14.0122    7.0504    1.2528 C   0  0  0  0  0  0  0  0  0  0  0  0
   13.6014    8.3242    1.9895 C   0  0  0  0  0  0  0  0  0  0  0  0
   14.7031    8.8917    2.7695 N   0  0  0  0  0  4  0  0  0  0  0  0
   12.2621    8.3269    2.7668 C   0  0  0  0  0  0  0  0  0  0  0  0
   11.1808    7.4388    2.1343 C   0  0  0  0  0  0  0  0  0  0  0  0
    9.7461    7.7259    2.5428 C   0  0  0  0  0  0  0  0  0  0  0  0
    9.4521    9.2015    2.6313 C   0  0  0  0  0  0  0  0  0  0  0  0
    7.9916    9.5235    2.7203 C   0  0  0  0  0  0  0  0  0  0  0  0
    7.4126    9.6688    1.6167 O   0  0  0  0  0  0  0  0  0  0  0  0
    7.2400    9.6875    3.9339 N   0  0  0  0  0  0  0  0  0  0  0  0
    5.8476   10.1523    3.8888 C   0  0  0  0  0  0  0  0  0  0  0  0
    5.7866   11.6348    3.4787 C   0  0  0  0  0  0  0  0  0  0  0  0
    4.3465   12.1386    3.3126 C   0  0  0  0  0  0  0  0  0  0  0  0
    3.6290   12.3298    4.6495 C   0  0  0  0  0  0  0  0  0  0  0  0
    4.2413   13.3567    5.3785 O   0  0  0  0  0  0  0  0  0  0  0  0
   10.3855   10.0198    3.4797 C   0  0  0  0  0  0  0  0  0  0  0  0
   11.8500    9.7805    3.1211 C   0  0  0  0  0  0  0  0  0  0  0  0
   13.2687    6.7646    0.4806 H   0  0  0  0  0  0  0  0  0  0  0  0
   14.1172    6.2175    1.9793 H   0  0  0  0  0  0  0  0  0  0  0  0
   14.9842    7.1925    0.7340 H   0  0  0  0  0  0  0  0  0  0  0  0
   13.4373    9.0283    1.1407 H   0  0  0  0  0  0  0  0  0  0  0  0
   14.8388    8.3412    3.6483 H   0  0  0  0  0  0  0  0  0  0  0  0
   15.5925    8.8677    2.2196 H   0  0  0  0  0  0  0  0  0  0  0  0
   14.5205    9.8921    3.0080 H   0  0  0  0  0  0  0  0  0  0  0  0
   12.4694    7.8404    3.7467 H   0  0  0  0  0  0  0  0  0  0  0  0
   11.4072    6.3663    2.3242 H   0  0  0  0  0  0  0  0  0  0  0  0
   11.2151    7.5901    1.0331 H   0  0  0  0  0  0  0  0  0  0  0  0
    9.0562    7.2342    1.8205 H   0  0  0  0  0  0  0  0  0  0  0  0
    9.5628    7.2727    3.5415 H   0  0  0  0  0  0  0  0  0  0  0  0
    9.7228    9.5602    1.6072 H   0  0  0  0  0  0  0  0  0  0  0  0
    7.6837    9.4625    4.8522 H   0  0  0  0  0  0  0  0  0  0  0  0
    5.2667    9.5248    3.1781 H   0  0  0  0  0  0  0  0  0  0  0  0
    5.4038   10.0240    4.8977 H   0  0  0  0  0  0  0  0  0  0  0  0
    6.3284   12.2520    4.2280 H   0  0  0  0  0  0  0  0  0  0  0  0
    6.3039   11.7726    2.5063 H   0  0  0  0  0  0  0  0  0  0  0  0
    3.7695   11.4279    2.6816 H   0  0  0  0  0  0  0  0  0  0  0  0
    4.3660   13.1138    2.7785 H   0  0  0  0  0  0  0  0  0  0  0  0
    3.6223   11.3875    5.2378 H   0  0  0  0  0  0  0  0  0  0  0  0
    2.5718   12.6091    4.4429 H   0  0  0  0  0  0  0  0  0  0  0  0
    3.7359   13.4294    6.2295 H   0  0  0  0  0  0  0  0  0  0  0  0
   10.1480   11.1029    3.3827 H   0  0  0  0  0  0  0  0  0  0  0  0
   10.2298    9.7354    4.5431 H   0  0  0  0  0  0  0  0  0  0  0  0
   12.4697   10.1514    3.9664 H   0  0  0  0  0  0  0  0  0  0  0  0
   12.0674   10.4408    2.2526 H   0  0  0  0  0  0  0  0  0  0  0  0
  1  2  1  0
  2  3  1  0
  2  4  1  0
  4  5  1  0
  5  6  1  0
  6  7  1  0
  7  8  1  0
  8  9  2  0
  8 10  1  0
 10 11  1  0
 11 12  1  0
 12 13  1  0
 13 14  1  0
 14 15  1  0
  7 16  1  0
 16 17  1  0
 17  4  1  0
  1 18  1  0
  1 19  1  0
  1 20  1  0
  2 21  1  0
  3 22  1  0
  3 23  1  0
  3 24  1  0
  4 25  1  0
  5 26  1  0
  5 27  1  0
  6 28  1  0
  6 29  1  0
  7 30  1  0
 10 31  1  0
 11 32  1  0
 11 33  1  0
 12 34  1  0
 12 35  1  0
 13 36  1  0
 13 37  1  0
 14 38  1  0
 14 39  1  0
 15 40  1  0
 16 41  1  0
 16 42  1  0
 17 43  1  0
 17 44  1  0
M  CHG  1   3   1
M  END
>  <EmbedRMS>  (190) 
0.3028787039700591

$$$$

     RDKit          3D

 40 40  0  0  0  0  0  0  0  0999 V2000
   13.9329    7.3325    1.0256 C   0  0  0  0  0  0  0  0  0  0  0  0
   13.7105    7.9149    2.4295 C   0  0  0  0  0  0  0  0  0  0  0  0
   14.6487    9.0165    2.6728 N   0  0  0  0  0  4  0  0  0  0  0  0
   12.2334    8.2987    2.7955 C   0  0  0  0  0  0  0  0  0  0  0  0
   11.1474    7.3153    2.3198 C   0  0  0  0  0  0  0  0  0  0  0  0
    9.7855    7.9363    2.0713 C   0  0  0  0  0  0  0  0  0  0  0  0
    9.4223    8.9847    3.1156 C   0  0  0  0  0  0  0  0  0  0  0  0
    8.0144    9.4669    2.8721 C   0  0  0  0  0  0  0  0  0  0  0  0
    7.6087    9.6862    1.6951 O   0  0  0  0  0  0  0  0  0  0  0  0
    7.1483    9.6996    3.9827 N   0  0  0  0  0  0  0  0  0  0  0  0
    5.7687   10.1321    3.7956 C   0  0  0  0  0  0  0  0  0  0  0  0
    5.1029   10.2810    5.1238 C   0  0  0  0  0  0  0  0  0  0  0  0
    4.4834    9.3035    5.6225 O   0  0  0  0  0  0  0  0  0  0  0  0
    5.2360   11.5013    5.8573 N   0  0  0  0  0  0  0  0  0  0  0  0
    4.6516   11.6423    7.1252 N   0  0  0  0  0  0  0  0  0  0  0  0
   10.3943   10.1684    3.0613 C   0  0  0  0  0  0  0  0  0  0  0  0
   11.8862    9.7890    2.9949 C   0  0  0  0  0  0  0  0  0  0  0  0
   13.5375    6.2975    0.9560 H   0  0  0  0  0  0  0  0  0  0  0  0
   15.0173    7.2752    0.7914 H   0  0  0  0  0  0  0  0  0  0  0  0
   13.4419    7.9749    0.2642 H   0  0  0  0  0  0  0  0  0  0  0  0
   14.0077    7.0850    3.1154 H   0  0  0  0  0  0  0  0  0  0  0  0
   14.5407    9.3810    3.6465 H   0  0  0  0  0  0  0  0  0  0  0  0
   15.6320    8.6700    2.5840 H   0  0  0  0  0  0  0  0  0  0  0  0
   14.5096    9.7863    1.9794 H   0  0  0  0  0  0  0  0  0  0  0  0
   12.2370    8.0291    3.8801 H   0  0  0  0  0  0  0  0  0  0  0  0
   11.0312    6.4819    3.0515 H   0  0  0  0  0  0  0  0  0  0  0  0
   11.4317    6.8319    1.3667 H   0  0  0  0  0  0  0  0  0  0  0  0
    9.7908    8.4052    1.0608 H   0  0  0  0  0  0  0  0  0  0  0  0
    9.0203    7.1279    2.0620 H   0  0  0  0  0  0  0  0  0  0  0  0
    9.4828    8.5130    4.1221 H   0  0  0  0  0  0  0  0  0  0  0  0
    7.5230    9.5520    4.9484 H   0  0  0  0  0  0  0  0  0  0  0  0
    5.7508   11.1040    3.2571 H   0  0  0  0  0  0  0  0  0  0  0  0
    5.2220    9.3807    3.1854 H   0  0  0  0  0  0  0  0  0  0  0  0
    5.8097   12.2803    5.4597 H   0  0  0  0  0  0  0  0  0  0  0  0
    4.9264   12.5791    7.4995 H   0  0  0  0  0  0  0  0  0  0  0  0
    3.6158   11.6688    6.9865 H   0  0  0  0  0  0  0  0  0  0  0  0
   10.2194   10.8143    3.9503 H   0  0  0  0  0  0  0  0  0  0  0  0
   10.1542   10.7911    2.1690 H   0  0  0  0  0  0  0  0  0  0  0  0
   12.3156   10.3469    2.1358 H   0  0  0  0  0  0  0  0  0  0  0  0
   12.3920   10.1921    3.9022 H   0  0  0  0  0  0  0  0  0  0  0  0
  1  2  1  0
  2  3  1  0
  2  4  1  0
  4  5  1  0
  5  6  1  0
  6  7  1  0
  7  8  1  0
  8  9  2  0
  8 10  1  0
 10 11  1  0
 11 12  1  0
 12 13  2  0
 12 14  1  0
 14 15  1  0
  7 16  1  0
 16 17  1  0
 17  4  1  0
  1 18  1  0
  1 19  1  0
  1 20  1  0
  2 21  1  0
  3 22  1  0
  3 23  1  0
  3 24  1  0
  4 25  1  0
  5 26  1  0
  5 27  1  0
  6 28  1  0
  6 29  1  0
  7 30  1  0
 10 31  1  0
 11 32  1  0
 11 33  1  0
 14 34  1  0
 15 35  1  0
 15 36  1  0
 16 37  1  0
 16 38  1  0
 17 39  1  0
 17 40  1  0
M  CHG  1   3   1
M  END
>  <EmbedRMS>  (191) 
0.16865104847114704

$$$$

     RDKit          3D

 40 40  0  0  0  0  0  0  0  0999 V2000
    4.7996    8.8875    5.7514 C   0  0  0  0  0  0  0  0  0  0  0  0
    5.0467   10.2639    5.1374 C   0  0  0  0  0  0  0  0  0  0  0  0
    5.7665   10.1567    3.7915 C   0  0  0  0  0  0  0  0  0  0  0  0
    7.1428    9.7130    3.9787 N   0  0  0  0  0  0  0  0  0  0  0  0
    8.0146    9.4652    2.8756 C   0  0  0  0  0  0  0  0  0  0  0  0
    7.6236    9.6740    1.6923 O   0  0  0  0  0  0  0  0  0  0  0  0
    9.4117    8.9838    3.1514 C   0  0  0  0  0  0  0  0  0  0  0  0
    9.7887    7.8242    2.2110 C   0  0  0  0  0  0  0  0  0  0  0  0
   11.2406    7.3770    2.4518 C   0  0  0  0  0  0  0  0  0  0  0  0
   12.1580    8.5898    2.2119 C   0  0  0  0  0  0  0  0  0  0  0  0
   13.6694    8.3363    1.9396 C   0  0  0  0  0  0  0  0  0  0  0  0
   14.0282    7.0396    1.2342 C   0  0  0  0  0  0  0  0  0  0  0  0
   14.6135    8.7686    2.9623 N   0  0  0  0  0  4  0  0  0  0  0  0
   11.8558    9.6805    3.2543 C   0  0  0  0  0  0  0  0  0  0  0  0
   10.4065   10.1585    3.0871 C   0  0  0  0  0  0  0  0  0  0  0  0
    5.7572    8.3688    5.9654 H   0  0  0  0  0  0  0  0  0  0  0  0
    4.2454    9.0044    6.7064 H   0  0  0  0  0  0  0  0  0  0  0  0
    4.1898    8.2616    5.0655 H   0  0  0  0  0  0  0  0  0  0  0  0
    4.0659   10.7624    4.9797 H   0  0  0  0  0  0  0  0  0  0  0  0
    5.6383   10.8902    5.8402 H   0  0  0  0  0  0  0  0  0  0  0  0
    5.7713   11.1553    3.3036 H   0  0  0  0  0  0  0  0  0  0  0  0
    5.2272    9.4458    3.1277 H   0  0  0  0  0  0  0  0  0  0  0  0
    7.5227    9.5975    4.9460 H   0  0  0  0  0  0  0  0  0  0  0  0
    9.4460    8.5780    4.1877 H   0  0  0  0  0  0  0  0  0  0  0  0
    9.1131    6.9617    2.4015 H   0  0  0  0  0  0  0  0  0  0  0  0
    9.6593    8.1232    1.1467 H   0  0  0  0  0  0  0  0  0  0  0  0
   11.3694    6.9867    3.4850 H   0  0  0  0  0  0  0  0  0  0  0  0
   11.4634    6.5566    1.7393 H   0  0  0  0  0  0  0  0  0  0  0  0
   11.8029    9.0089    1.2373 H   0  0  0  0  0  0  0  0  0  0  0  0
   13.8833    9.0581    1.1114 H   0  0  0  0  0  0  0  0  0  0  0  0
   15.0833    7.0602    0.8857 H   0  0  0  0  0  0  0  0  0  0  0  0
   13.3773    6.8823    0.3472 H   0  0  0  0  0  0  0  0  0  0  0  0
   13.9078    6.1866    1.9345 H   0  0  0  0  0  0  0  0  0  0  0  0
   15.5897    8.5020    2.6974 H   0  0  0  0  0  0  0  0  0  0  0  0
   14.5964    9.8059    3.0880 H   0  0  0  0  0  0  0  0  0  0  0  0
   14.3778    8.3021    3.8677 H   0  0  0  0  0  0  0  0  0  0  0  0
   12.5089   10.5640    3.0952 H   0  0  0  0  0  0  0  0  0  0  0  0
   12.0205    9.2944    4.2841 H   0  0  0  0  0  0  0  0  0  0  0  0
   10.1719   10.8879    3.8931 H   0  0  0  0  0  0  0  0  0  0  0  0
   10.3038   10.6871    2.1128 H   0  0  0  0  0  0  0  0  0  0  0  0
  1  2  1  0
  2  3  1  0
  3  4  1  0
  4  5  1  0
  5  6  2  0
  5  7  1  0
  7  8  1  0
  8  9  1  0
  9 10  1  0
 10 11  1  0
 11 12  1  0
 11 13  1  0
 10 14  1  0
 14 15  1  0
 15  7  1  0
  1 16  1  0
  1 17  1  0
  1 18  1  0
  2 19  1  0
  2 20  1  0
  3 21  1  0
  3 22  1  0
  4 23  1  0
  7 24  1  0
  8 25  1  0
  8 26  1  0
  9 27  1  0
  9 28  1  0
 10 29  1  0
 11 30  1  0
 12 31  1  0
 12 32  1  0
 12 33  1  0
 13 34  1  0
 13 35  1  0
 13 36  1  0
 14 37  1  0
 14 38  1  0
 15 39  1  0
 15 40  1  0
M  CHG  1  13   1
M  END
>  <EmbedRMS>  (192) 
0.2000484947854372

$$$$

     RDKit          3D

 45 46  0  0  0  0  0  0  0  0999 V2000
   14.0491    7.2185    1.1042 C   0  0  0  0  0  0  0  0  0  0  0  0
   13.6510    7.9543    2.3988 C   0  0  0  0  0  0  0  0  0  0  0  0
   14.6308    9.0140    2.6709 N   0  0  0  0  0  4  0  0  0  0  0  0
   12.2021    8.5112    2.2742 C   0  0  0  0  0  0  0  0  0  0  0  0
   11.1811    7.3656    2.4357 C   0  0  0  0  0  0  0  0  0  0  0  0
    9.7729    7.8734    2.1591 C   0  0  0  0  0  0  0  0  0  0  0  0
    9.4153    8.9972    3.1374 C   0  0  0  0  0  0  0  0  0  0  0  0
    8.0280    9.4946    2.8698 C   0  0  0  0  0  0  0  0  0  0  0  0
    7.6580    9.7404    1.6875 O   0  0  0  0  0  0  0  0  0  0  0  0
    7.1403    9.7095    3.9705 N   0  0  0  0  0  0  0  0  0  0  0  0
    5.7458   10.0898    3.7989 C   0  0  0  0  0  0  0  0  0  0  0  0
    4.8517    8.8407    3.7584 C   0  0  0  0  0  0  0  0  0  0  0  0
    3.3907    9.2166    3.8944 C   0  0  0  0  0  0  0  0  0  0  0  0
    2.7656    8.7558    2.5912 C   0  0  0  0  0  0  0  0  0  0  0  0
    3.7916    8.5397    1.6577 O   0  0  0  0  0  0  0  0  0  0  0  0
    4.8957    8.1199    2.4129 C   0  0  0  0  0  0  0  0  0  0  0  0
   10.4310   10.1493    3.0691 C   0  0  0  0  0  0  0  0  0  0  0  0
   11.8635    9.6361    3.2834 C   0  0  0  0  0  0  0  0  0  0  0  0
   13.4170    6.3267    0.9261 H   0  0  0  0  0  0  0  0  0  0  0  0
   13.9793    7.8971    0.2273 H   0  0  0  0  0  0  0  0  0  0  0  0
   15.0960    6.8555    1.1799 H   0  0  0  0  0  0  0  0  0  0  0  0
   13.6926    7.2232    3.2385 H   0  0  0  0  0  0  0  0  0  0  0  0
   15.6022    8.6280    2.6281 H   0  0  0  0  0  0  0  0  0  0  0  0
   14.5000    9.3903    3.6373 H   0  0  0  0  0  0  0  0  0  0  0  0
   14.5446    9.7855    1.9693 H   0  0  0  0  0  0  0  0  0  0  0  0
   12.0897    8.9474    1.2547 H   0  0  0  0  0  0  0  0  0  0  0  0
   11.3811    6.5454    1.7181 H   0  0  0  0  0  0  0  0  0  0  0  0
   11.2357    6.9382    3.4619 H   0  0  0  0  0  0  0  0  0  0  0  0
    9.0555    7.0318    2.2804 H   0  0  0  0  0  0  0  0  0  0  0  0
    9.7098    8.2316    1.1070 H   0  0  0  0  0  0  0  0  0  0  0  0
    9.4467    8.5712    4.1658 H   0  0  0  0  0  0  0  0  0  0  0  0
    7.4770    9.5230    4.9422 H   0  0  0  0  0  0  0  0  0  0  0  0
    5.6117   10.7087    2.8842 H   0  0  0  0  0  0  0  0  0  0  0  0
    5.4577   10.7220    4.6676 H   0  0  0  0  0  0  0  0  0  0  0  0
    5.1449    8.1459    4.5780 H   0  0  0  0  0  0  0  0  0  0  0  0
    3.2321   10.3111    4.0225 H   0  0  0  0  0  0  0  0  0  0  0  0
    2.9237    8.6886    4.7549 H   0  0  0  0  0  0  0  0  0  0  0  0
    2.0659    9.5257    2.2017 H   0  0  0  0  0  0  0  0  0  0  0  0
    2.1992    7.8097    2.7435 H   0  0  0  0  0  0  0  0  0  0  0  0
    4.8208    7.0212    2.5781 H   0  0  0  0  0  0  0  0  0  0  0  0
    5.8182    8.2870    1.8384 H   0  0  0  0  0  0  0  0  0  0  0  0
   10.1948   10.9017    3.8533 H   0  0  0  0  0  0  0  0  0  0  0  0
   10.3670   10.6536    2.0790 H   0  0  0  0  0  0  0  0  0  0  0  0
   12.5438   10.5024    3.1445 H   0  0  0  0  0  0  0  0  0  0  0  0
   11.9784    9.2625    4.3249 H   0  0  0  0  0  0  0  0  0  0  0  0
  1  2  1  0
  2  3  1  0
  2  4  1  0
  4  5  1  0
  5  6  1  0
  6  7  1  0
  7  8  1  0
  8  9  2  0
  8 10  1  0
 10 11  1  0
 11 12  1  0
 12 13  1  0
 13 14  1  0
 14 15  1  0
 15 16  1  0
  7 17  1  0
 17 18  1  0
 18  4  1  0
 16 12  1  0
  1 19  1  0
  1 20  1  0
  1 21  1  0
  2 22  1  0
  3 23  1  0
  3 24  1  0
  3 25  1  0
  4 26  1  0
  5 27  1  0
  5 28  1  0
  6 29  1  0
  6 30  1  0
  7 31  1  0
 10 32  1  0
 11 33  1  0
 11 34  1  0
 12 35  1  0
 13 36  1  0
 13 37  1  0
 14 38  1  0
 14 39  1  0
 16 40  1  0
 16 41  1  0
 17 42  1  0
 17 43  1  0
 18 44  1  0
 18 45  1  0
M  CHG  1   3   1
M  END
>  <EmbedRMS>  (193) 
0.04148526611260124

$$$$

     RDKit          3D

 37 37  0  0  0  0  0  0  0  0999 V2000
   14.0496    7.2193    1.1045 C   0  0  0  0  0  0  0  0  0  0  0  0
   13.6514    7.9551    2.3992 C   0  0  0  0  0  0  0  0  0  0  0  0
   14.6305    9.0155    2.6708 N   0  0  0  0  0  4  0  0  0  0  0  0
   12.2020    8.5109    2.2751 C   0  0  0  0  0  0  0  0  0  0  0  0
   11.1836    7.3640    2.4389 C   0  0  0  0  0  0  0  0  0  0  0  0
    9.7754    7.8688    2.1619 C   0  0  0  0  0  0  0  0  0  0  0  0
    9.4133    8.9921    3.1401 C   0  0  0  0  0  0  0  0  0  0  0  0
    8.0228    9.4822    2.8660 C   0  0  0  0  0  0  0  0  0  0  0  0
    7.6697    9.7055    1.6775 O   0  0  0  0  0  0  0  0  0  0  0  0
    7.1303    9.7018    3.9683 N   0  0  0  0  0  0  0  0  0  0  0  0
    5.7645   10.1364    3.8915 C   0  0  0  0  0  0  0  0  0  0  0  0
    5.1277   10.3000    4.9668 O   0  0  0  0  0  0  0  0  0  0  0  0
    5.0971   10.3727    2.6396 N   0  0  0  0  0  0  0  0  0  0  0  0
    3.7967   10.8929    2.5995 N   0  0  0  0  0  0  0  0  0  0  0  0
   10.4274   10.1467    3.0704 C   0  0  0  0  0  0  0  0  0  0  0  0
   11.8618    9.6364    3.2835 C   0  0  0  0  0  0  0  0  0  0  0  0
   13.9785    7.8976    0.2274 H   0  0  0  0  0  0  0  0  0  0  0  0
   13.4186    6.3267    0.9271 H   0  0  0  0  0  0  0  0  0  0  0  0
   15.0970    6.8577    1.1797 H   0  0  0  0  0  0  0  0  0  0  0  0
   13.6941    7.2243    3.2390 H   0  0  0  0  0  0  0  0  0  0  0  0
   14.5440    9.7865    1.9687 H   0  0  0  0  0  0  0  0  0  0  0  0
   14.4990    9.3925    3.6369 H   0  0  0  0  0  0  0  0  0  0  0  0
   15.6021    8.6300    2.6287 H   0  0  0  0  0  0  0  0  0  0  0  0
   12.0884    8.9460    1.2553 H   0  0  0  0  0  0  0  0  0  0  0  0
   11.2392    6.9384    3.4658 H   0  0  0  0  0  0  0  0  0  0  0  0
   11.3848    6.5428    1.7227 H   0  0  0  0  0  0  0  0  0  0  0  0
    9.0605    7.0249    2.2825 H   0  0  0  0  0  0  0  0  0  0  0  0
    9.7136    8.2255    1.1091 H   0  0  0  0  0  0  0  0  0  0  0  0
    9.4456    8.5665    4.1685 H   0  0  0  0  0  0  0  0  0  0  0  0
    7.5079    9.5421    4.9298 H   0  0  0  0  0  0  0  0  0  0  0  0
    5.4637   10.0159    1.7376 H   0  0  0  0  0  0  0  0  0  0  0  0
    3.1840   10.2783    3.1829 H   0  0  0  0  0  0  0  0  0  0  0  0
    3.8203   11.8399    3.0419 H   0  0  0  0  0  0  0  0  0  0  0  0
   10.1900   10.8989    3.8544 H   0  0  0  0  0  0  0  0  0  0  0  0
   10.3615   10.6505    2.0801 H   0  0  0  0  0  0  0  0  0  0  0  0
   12.5406   10.5037    3.1431 H   0  0  0  0  0  0  0  0  0  0  0  0
   11.9785    9.2641    4.3253 H   0  0  0  0  0  0  0  0  0  0  0  0
  1  2  1  0
  2  3  1  0
  2  4  1  0
  4  5  1  0
  5  6  1  0
  6  7  1  0
  7  8  1  0
  8  9  2  0
  8 10  1  0
 10 11  1  0
 11 12  2  0
 11 13  1  0
 13 14  1  0
  7 15  1  0
 15 16  1  0
 16  4  1  0
  1 17  1  0
  1 18  1  0
  1 19  1  0
  2 20  1  0
  3 21  1  0
  3 22  1  0
  3 23  1  0
  4 24  1  0
  5 25  1  0
  5 26  1  0
  6 27  1  0
  6 28  1  0
  7 29  1  0
 10 30  1  0
 13 31  1  0
 14 32  1  0
 14 33  1  0
 15 34  1  0
 15 35  1  0
 16 36  1  0
 16 37  1  0
M  CHG  1   3   1
M  END
>  <EmbedRMS>  (194) 
0.04288090640690368

$$$$

     RDKit          3D

 34 34  0  0  0  0  0  0  0  0999 V2000
    5.8329   10.1084    3.8848 C   0  0  0  0  0  0  0  0  0  0  0  0
    7.2300    9.6721    3.9456 N   0  0  0  0  0  0  0  0  0  0  0  0
    7.9825    9.5176    2.7336 C   0  0  0  0  0  0  0  0  0  0  0  0
    7.4038    9.6808    1.6309 O   0  0  0  0  0  0  0  0  0  0  0  0
    9.4450    9.1949    2.6523 C   0  0  0  0  0  0  0  0  0  0  0  0
    9.7659    7.7145    2.4310 C   0  0  0  0  0  0  0  0  0  0  0  0
   11.2645    7.3643    2.5394 C   0  0  0  0  0  0  0  0  0  0  0  0
   12.1440    8.5865    2.2316 C   0  0  0  0  0  0  0  0  0  0  0  0
   13.6550    8.3396    1.9330 C   0  0  0  0  0  0  0  0  0  0  0  0
   14.0142    7.0445    1.2245 C   0  0  0  0  0  0  0  0  0  0  0  0
   14.6175    8.7737    2.9400 N   0  0  0  0  0  4  0  0  0  0  0  0
   11.8902    9.6847    3.2842 C   0  0  0  0  0  0  0  0  0  0  0  0
   10.4057   10.0818    3.4290 C   0  0  0  0  0  0  0  0  0  0  0  0
    5.7674   11.1015    3.3922 H   0  0  0  0  0  0  0  0  0  0  0  0
    5.4215   10.1915    4.9127 H   0  0  0  0  0  0  0  0  0  0  0  0
    5.2299    9.3684    3.3173 H   0  0  0  0  0  0  0  0  0  0  0  0
    7.6848    9.4991    4.8697 H   0  0  0  0  0  0  0  0  0  0  0  0
    9.6804    9.5858    1.6329 H   0  0  0  0  0  0  0  0  0  0  0  0
    9.2153    7.1145    3.1879 H   0  0  0  0  0  0  0  0  0  0  0  0
    9.3849    7.3947    1.4340 H   0  0  0  0  0  0  0  0  0  0  0  0
   11.4945    7.0012    3.5653 H   0  0  0  0  0  0  0  0  0  0  0  0
   11.4746    6.5314    1.8369 H   0  0  0  0  0  0  0  0  0  0  0  0
   11.7511    8.9795    1.2646 H   0  0  0  0  0  0  0  0  0  0  0  0
   13.8453    9.0650    1.1029 H   0  0  0  0  0  0  0  0  0  0  0  0
   15.0594    7.0787    0.8480 H   0  0  0  0  0  0  0  0  0  0  0  0
   13.3413    6.8737    0.3566 H   0  0  0  0  0  0  0  0  0  0  0  0
   13.9245    6.1932    1.9314 H   0  0  0  0  0  0  0  0  0  0  0  0
   15.5929    8.5546    2.6319 H   0  0  0  0  0  0  0  0  0  0  0  0
   14.5663    9.8048    3.1021 H   0  0  0  0  0  0  0  0  0  0  0  0
   14.4328    8.2662    3.8350 H   0  0  0  0  0  0  0  0  0  0  0  0
   12.2711    9.3420    4.2714 H   0  0  0  0  0  0  0  0  0  0  0  0
   12.4559   10.5993    3.0033 H   0  0  0  0  0  0  0  0  0  0  0  0
   10.1327   10.0263    4.5050 H   0  0  0  0  0  0  0  0  0  0  0  0
   10.2681   11.1447    3.1242 H   0  0  0  0  0  0  0  0  0  0  0  0
  1  2  1  0
  2  3  1  0
  3  4  2  0
  3  5  1  0
  5  6  1  0
  6  7  1  0
  7  8  1  0
  8  9  1  0
  9 10  1  0
  9 11  1  0
  8 12  1  0
 12 13  1  0
 13  5  1  0
  1 14  1  0
  1 15  1  0
  1 16  1  0
  2 17  1  0
  5 18  1  0
  6 19  1  0
  6 20  1  0
  7 21  1  0
  7 22  1  0
  8 23  1  0
  9 24  1  0
 10 25  1  0
 10 26  1  0
 10 27  1  0
 11 28  1  0
 11 29  1  0
 11 30  1  0
 12 31  1  0
 12 32  1  0
 13 33  1  0
 13 34  1  0
M  CHG  1  11   1
M  END
>  <EmbedRMS>  (195) 
0.29639754771625826

$$$$

     RDKit          3D

 48 48  0  0  0  0  0  0  0  0999 V2000
    4.0694    8.7959   -1.0132 C   0  0  0  0  0  0  0  0  0  0  0  0
    4.6394    8.0292    0.1703 C   0  0  0  0  0  0  0  0  0  0  0  0
    4.4307    8.7819    1.4107 N   0  0  0  0  0  0  0  0  0  0  0  0
    4.9666    8.0141    2.5400 C   0  0  0  0  0  0  0  0  0  0  0  0
    4.8806    8.8203    3.8402 C   0  0  0  0  0  0  0  0  0  0  0  0
    5.8023   10.0477    3.8746 C   0  0  0  0  0  0  0  0  0  0  0  0
    7.2207    9.6575    3.9231 N   0  0  0  0  0  0  0  0  0  0  0  0
    7.9923    9.5461    2.7149 C   0  0  0  0  0  0  0  0  0  0  0  0
    7.4260    9.7233    1.6095 O   0  0  0  0  0  0  0  0  0  0  0  0
    9.4528    9.2157    2.6321 C   0  0  0  0  0  0  0  0  0  0  0  0
    9.7328    7.7437    2.3744 C   0  0  0  0  0  0  0  0  0  0  0  0
   11.1969    7.3492    2.5390 C   0  0  0  0  0  0  0  0  0  0  0  0
   12.1820    8.5077    2.2955 C   0  0  0  0  0  0  0  0  0  0  0  0
   13.6459    7.9619    2.3850 C   0  0  0  0  0  0  0  0  0  0  0  0
   14.0278    7.2296    1.0859 C   0  0  0  0  0  0  0  0  0  0  0  0
   14.6272    9.0237    2.6472 N   0  0  0  0  0  4  0  0  0  0  0  0
   11.8964    9.6368    3.3181 C   0  0  0  0  0  0  0  0  0  0  0  0
   10.4189   10.0735    3.4263 C   0  0  0  0  0  0  0  0  0  0  0  0
    4.5525    9.7933   -1.0891 H   0  0  0  0  0  0  0  0  0  0  0  0
    4.2609    8.2326   -1.9509 H   0  0  0  0  0  0  0  0  0  0  0  0
    2.9730    8.9284   -0.8944 H   0  0  0  0  0  0  0  0  0  0  0  0
    4.1410    7.0347    0.2260 H   0  0  0  0  0  0  0  0  0  0  0  0
    5.7278    7.8771   -0.0045 H   0  0  0  0  0  0  0  0  0  0  0  0
    3.3983    8.8848    1.5578 H   0  0  0  0  0  0  0  0  0  0  0  0
    6.0168    7.7026    2.3572 H   0  0  0  0  0  0  0  0  0  0  0  0
    4.3702    7.0830    2.6746 H   0  0  0  0  0  0  0  0  0  0  0  0
    3.8309    9.1533    3.9932 H   0  0  0  0  0  0  0  0  0  0  0  0
    5.1413    8.1550    4.6921 H   0  0  0  0  0  0  0  0  0  0  0  0
    5.5986   10.7178    3.0114 H   0  0  0  0  0  0  0  0  0  0  0  0
    5.5692   10.6311    4.7912 H   0  0  0  0  0  0  0  0  0  0  0  0
    7.6625    9.4301    4.8417 H   0  0  0  0  0  0  0  0  0  0  0  0
    9.7165    9.6191    1.6224 H   0  0  0  0  0  0  0  0  0  0  0  0
    9.1275    7.1346    3.0818 H   0  0  0  0  0  0  0  0  0  0  0  0
    9.3893    7.4674    1.3504 H   0  0  0  0  0  0  0  0  0  0  0  0
   11.3960    6.5004    1.8541 H   0  0  0  0  0  0  0  0  0  0  0  0
   11.3436    6.9672    3.5746 H   0  0  0  0  0  0  0  0  0  0  0  0
   12.0124    8.9218    1.2758 H   0  0  0  0  0  0  0  0  0  0  0  0
   13.7141    7.2270    3.2199 H   0  0  0  0  0  0  0  0  0  0  0  0
   13.3806    6.3493    0.9045 H   0  0  0  0  0  0  0  0  0  0  0  0
   15.0711    6.8542    1.1519 H   0  0  0  0  0  0  0  0  0  0  0  0
   13.9577    7.9163    0.2154 H   0  0  0  0  0  0  0  0  0  0  0  0
   14.5147    9.3986    3.6161 H   0  0  0  0  0  0  0  0  0  0  0  0
   15.5989    8.6412    2.5848 H   0  0  0  0  0  0  0  0  0  0  0  0
   14.5263    9.7971    1.9497 H   0  0  0  0  0  0  0  0  0  0  0  0
   12.2339    9.3004    4.3240 H   0  0  0  0  0  0  0  0  0  0  0  0
   12.4960   10.5341    3.0525 H   0  0  0  0  0  0  0  0  0  0  0  0
   10.3178   11.1407    3.1217 H   0  0  0  0  0  0  0  0  0  0  0  0
   10.1183   10.0265    4.4956 H   0  0  0  0  0  0  0  0  0  0  0  0
  1  2  1  0
  2  3  1  0
  3  4  1  0
  4  5  1  0
  5  6  1  0
  6  7  1  0
  7  8  1  0
  8  9  2  0
  8 10  1  0
 10 11  1  0
 11 12  1  0
 12 13  1  0
 13 14  1  0
 14 15  1  0
 14 16  1  0
 13 17  1  0
 17 18  1  0
 18 10  1  0
  1 19  1  0
  1 20  1  0
  1 21  1  0
  2 22  1  0
  2 23  1  0
  3 24  1  0
  4 25  1  0
  4 26  1  0
  5 27  1  0
  5 28  1  0
  6 29  1  0
  6 30  1  0
  7 31  1  0
 10 32  1  0
 11 33  1  0
 11 34  1  0
 12 35  1  0
 12 36  1  0
 13 37  1  0
 14 38  1  0
 15 39  1  0
 15 40  1  0
 15 41  1  0
 16 42  1  0
 16 43  1  0
 16 44  1  0
 17 45  1  0
 17 46  1  0
 18 47  1  0
 18 48  1  0
M  CHG  1  16   1
M  END
>  <EmbedRMS>  (196) 
0.17954307941365247

$$$$

     RDKit          3D

 44 44  0  0  0  0  0  0  0  0999 V2000
    4.9254    9.2292    2.9373 C   0  0  0  0  0  0  0  0  0  0  0  0
    5.8171    9.6017    4.0950 C   0  0  0  0  0  0  0  0  0  0  0  0
    5.1715   10.4822    5.1684 C   0  0  0  0  0  0  0  0  0  0  0  0
    5.2387    9.6493    6.4505 C   0  0  0  0  0  0  0  0  0  0  0  0
    4.6831   10.3203    7.5255 O   0  0  0  0  0  0  0  0  0  0  0  0
    7.2094    9.9547    3.8836 N   0  0  0  0  0  0  0  0  0  0  0  0
    8.0117    9.4894    2.8120 C   0  0  0  0  0  0  0  0  0  0  0  0
    7.6039    9.6342    1.6293 O   0  0  0  0  0  0  0  0  0  0  0  0
    9.4097    8.9904    3.0935 C   0  0  0  0  0  0  0  0  0  0  0  0
    9.7897    7.9360    2.0613 C   0  0  0  0  0  0  0  0  0  0  0  0
   11.1451    7.3116    2.3337 C   0  0  0  0  0  0  0  0  0  0  0  0
   12.2327    8.2980    2.7991 C   0  0  0  0  0  0  0  0  0  0  0  0
   13.7092    7.9141    2.4297 C   0  0  0  0  0  0  0  0  0  0  0  0
   13.9296    7.3336    1.0247 C   0  0  0  0  0  0  0  0  0  0  0  0
   14.6480    9.0153    2.6733 N   0  0  0  0  0  4  0  0  0  0  0  0
   11.8847    9.7880    2.9885 C   0  0  0  0  0  0  0  0  0  0  0  0
   10.3933   10.1681    3.0642 C   0  0  0  0  0  0  0  0  0  0  0  0
    4.7544   10.1231    2.3017 H   0  0  0  0  0  0  0  0  0  0  0  0
    5.3846    8.4314    2.3137 H   0  0  0  0  0  0  0  0  0  0  0  0
    3.9423    8.8590    3.3021 H   0  0  0  0  0  0  0  0  0  0  0  0
    5.9259    8.5655    4.4991 H   0  0  0  0  0  0  0  0  0  0  0  0
    4.1089   10.7063    4.9289 H   0  0  0  0  0  0  0  0  0  0  0  0
    5.7154   11.4442    5.2927 H   0  0  0  0  0  0  0  0  0  0  0  0
    6.2933    9.3762    6.6922 H   0  0  0  0  0  0  0  0  0  0  0  0
    4.6591    8.7078    6.3235 H   0  0  0  0  0  0  0  0  0  0  0  0
    5.3218   11.0386    7.7752 H   0  0  0  0  0  0  0  0  0  0  0  0
    7.7362   10.2840    4.7253 H   0  0  0  0  0  0  0  0  0  0  0  0
    9.4310    8.5219    4.1032 H   0  0  0  0  0  0  0  0  0  0  0  0
    9.8152    8.4006    1.0491 H   0  0  0  0  0  0  0  0  0  0  0  0
    9.0219    7.1302    2.0419 H   0  0  0  0  0  0  0  0  0  0  0  0
   11.4349    6.8050    1.3945 H   0  0  0  0  0  0  0  0  0  0  0  0
   11.0156    6.4949    3.0818 H   0  0  0  0  0  0  0  0  0  0  0  0
   12.2416    8.0361    3.8856 H   0  0  0  0  0  0  0  0  0  0  0  0
   14.0070    7.0833    3.1142 H   0  0  0  0  0  0  0  0  0  0  0  0
   13.4326    7.9740    0.2655 H   0  0  0  0  0  0  0  0  0  0  0  0
   15.0134    7.2816    0.7864 H   0  0  0  0  0  0  0  0  0  0  0  0
   13.5390    6.2968    0.9555 H   0  0  0  0  0  0  0  0  0  0  0  0
   14.5070    9.7869    1.9822 H   0  0  0  0  0  0  0  0  0  0  0  0
   14.5423    9.3774    3.6481 H   0  0  0  0  0  0  0  0  0  0  0  0
   15.6311    8.6692    2.5814 H   0  0  0  0  0  0  0  0  0  0  0  0
   12.3063   10.3365    2.1194 H   0  0  0  0  0  0  0  0  0  0  0  0
   12.3990   10.2012    3.8863 H   0  0  0  0  0  0  0  0  0  0  0  0
   10.2226   10.7963    3.9664 H   0  0  0  0  0  0  0  0  0  0  0  0
   10.1567   10.8128    2.1866 H   0  0  0  0  0  0  0  0  0  0  0  0
  1  2  1  0
  2  3  1  0
  3  4  1  0
  4  5  1  0
  2  6  1  0
  6  7  1  0
  7  8  2  0
  7  9  1  0
  9 10  1  0
 10 11  1  0
 11 12  1  0
 12 13  1  0
 13 14  1  0
 13 15  1  0
 12 16  1  0
 16 17  1  0
 17  9  1  0
  1 18  1  0
  1 19  1  0
  1 20  1  0
  2 21  1  0
  3 22  1  0
  3 23  1  0
  4 24  1  0
  4 25  1  0
  5 26  1  0
  6 27  1  0
  9 28  1  0
 10 29  1  0
 10 30  1  0
 11 31  1  0
 11 32  1  0
 12 33  1  0
 13 34  1  0
 14 35  1  0
 14 36  1  0
 14 37  1  0
 15 38  1  0
 15 39  1  0
 15 40  1  0
 16 41  1  0
 16 42  1  0
 17 43  1  0
 17 44  1  0
M  CHG  1  15   1
M  END
>  <EmbedRMS>  (197) 
0.26860030186857947

$$$$

     RDKit          3D

 46 47  0  0  0  0  0  0  0  0999 V2000
    3.3330    7.4851    0.2700 C   0  0  0  0  0  0  0  0  0  0  0  0
    3.7671    7.6550    1.6892 C   0  0  0  0  0  0  0  0  0  0  0  0
    4.5246    8.7702    2.0631 C   0  0  0  0  0  0  0  0  0  0  0  0
    4.9183    8.9202    3.3985 C   0  0  0  0  0  0  0  0  0  0  0  0
    5.7382   10.1048    3.8185 C   0  0  0  0  0  0  0  0  0  0  0  0
    7.1328    9.7162    3.9848 N   0  0  0  0  0  0  0  0  0  0  0  0
    8.0089    9.4828    2.8761 C   0  0  0  0  0  0  0  0  0  0  0  0
    7.6143    9.6914    1.6942 O   0  0  0  0  0  0  0  0  0  0  0  0
    9.4061    8.9956    3.1364 C   0  0  0  0  0  0  0  0  0  0  0  0
    9.7689    7.8728    2.1583 C   0  0  0  0  0  0  0  0  0  0  0  0
   11.1782    7.3665    2.4360 C   0  0  0  0  0  0  0  0  0  0  0  0
   12.1986    8.5122    2.2740 C   0  0  0  0  0  0  0  0  0  0  0  0
   13.6483    7.9556    2.3993 C   0  0  0  0  0  0  0  0  0  0  0  0
   14.0475    7.2193    1.1053 C   0  0  0  0  0  0  0  0  0  0  0  0
   14.6279    9.0155    2.6715 N   0  0  0  0  0  4  0  0  0  0  0  0
   11.8572    9.6378    3.2819 C   0  0  0  0  0  0  0  0  0  0  0  0
   10.4220   10.1491    3.0675 C   0  0  0  0  0  0  0  0  0  0  0  0
    4.5614    7.9398    4.3344 C   0  0  0  0  0  0  0  0  0  0  0  0
    3.8031    6.8422    3.9226 C   0  0  0  0  0  0  0  0  0  0  0  0
    3.4250    6.7246    2.6221 N   0  0  0  0  0  0  0  0  0  0  0  0
    2.6959    8.3426   -0.0327 H   0  0  0  0  0  0  0  0  0  0  0  0
    4.2233    7.4383   -0.3918 H   0  0  0  0  0  0  0  0  0  0  0  0
    2.7498    6.5475    0.1497 H   0  0  0  0  0  0  0  0  0  0  0  0
    4.7979    9.5127    1.3226 H   0  0  0  0  0  0  0  0  0  0  0  0
    5.6611   10.9361    3.0838 H   0  0  0  0  0  0  0  0  0  0  0  0
    5.3473   10.4921    4.7847 H   0  0  0  0  0  0  0  0  0  0  0  0
    7.5009    9.6134    4.9576 H   0  0  0  0  0  0  0  0  0  0  0  0
    9.4412    8.5693    4.1646 H   0  0  0  0  0  0  0  0  0  0  0  0
    9.0533    7.0294    2.2779 H   0  0  0  0  0  0  0  0  0  0  0  0
    9.7059    8.2318    1.1065 H   0  0  0  0  0  0  0  0  0  0  0  0
   11.3793    6.5458    1.7191 H   0  0  0  0  0  0  0  0  0  0  0  0
   11.2326    6.9398    3.4625 H   0  0  0  0  0  0  0  0  0  0  0  0
   12.0864    8.9476    1.2541 H   0  0  0  0  0  0  0  0  0  0  0  0
   13.6897    7.2250    3.2394 H   0  0  0  0  0  0  0  0  0  0  0  0
   15.0945    6.8566    1.1818 H   0  0  0  0  0  0  0  0  0  0  0  0
   13.4156    6.3273    0.9273 H   0  0  0  0  0  0  0  0  0  0  0  0
   13.9780    7.8975    0.2280 H   0  0  0  0  0  0  0  0  0  0  0  0
   14.5425    9.7862    1.9689 H   0  0  0  0  0  0  0  0  0  0  0  0
   14.4952    9.3933    3.6372 H   0  0  0  0  0  0  0  0  0  0  0  0
   15.5993    8.6294    2.6308 H   0  0  0  0  0  0  0  0  0  0  0  0
   12.5364   10.5049    3.1422 H   0  0  0  0  0  0  0  0  0  0  0  0
   11.9727    9.2656    4.3238 H   0  0  0  0  0  0  0  0  0  0  0  0
   10.3559   10.6525    2.0771 H   0  0  0  0  0  0  0  0  0  0  0  0
   10.1845   10.9016    3.8510 H   0  0  0  0  0  0  0  0  0  0  0  0
    4.8642    8.0273    5.3706 H   0  0  0  0  0  0  0  0  0  0  0  0
    3.5167    6.0819    4.6368 H   0  0  0  0  0  0  0  0  0  0  0  0
  1  2  1  0
  2  3  2  0
  3  4  1  0
  4  5  1  0
  5  6  1  0
  6  7  1  0
  7  8  2  0
  7  9  1  0
  9 10  1  0
 10 11  1  0
 11 12  1  0
 12 13  1  0
 13 14  1  0
 13 15  1  0
 12 16  1  0
 16 17  1  0
  4 18  2  0
 18 19  1  0
 19 20  2  0
 20  2  1  0
 17  9  1  0
  1 21  1  0
  1 22  1  0
  1 23  1  0
  3 24  1  0
  5 25  1  0
  5 26  1  0
  6 27  1  0
  9 28  1  0
 10 29  1  0
 10 30  1  0
 11 31  1  0
 11 32  1  0
 12 33  1  0
 13 34  1  0
 14 35  1  0
 14 36  1  0
 14 37  1  0
 15 38  1  0
 15 39  1  0
 15 40  1  0
 16 41  1  0
 16 42  1  0
 17 43  1  0
 17 44  1  0
 18 45  1  0
 19 46  1  0
M  CHG  1  15   1
M  END
>  <EmbedRMS>  (198) 
0.02740033145123856

$$$$

     RDKit          3D

 47 48  0  0  0  0  0  0  0  0999 V2000
    3.3550    7.5261    0.2387 C   0  0  0  0  0  0  0  0  0  0  0  0
    3.7591    7.6796    1.6740 C   0  0  0  0  0  0  0  0  0  0  0  0
    3.4093    6.6971    2.6112 C   0  0  0  0  0  0  0  0  0  0  0  0
    3.8066    6.8249    3.9436 C   0  0  0  0  0  0  0  0  0  0  0  0
    4.5708    7.9221    4.3466 C   0  0  0  0  0  0  0  0  0  0  0  0
    4.9400    8.9082    3.4207 C   0  0  0  0  0  0  0  0  0  0  0  0
    5.8031   10.0620    3.8692 C   0  0  0  0  0  0  0  0  0  0  0  0
    7.2179    9.6630    3.9265 N   0  0  0  0  0  0  0  0  0  0  0  0
    7.9878    9.5377    2.7183 C   0  0  0  0  0  0  0  0  0  0  0  0
    7.4195    9.7037    1.6128 O   0  0  0  0  0  0  0  0  0  0  0  0
    9.4506    9.2137    2.6347 C   0  0  0  0  0  0  0  0  0  0  0  0
    9.7340    7.7427    2.3734 C   0  0  0  0  0  0  0  0  0  0  0  0
   11.1976    7.3493    2.5402 C   0  0  0  0  0  0  0  0  0  0  0  0
   12.1819    8.5080    2.2955 C   0  0  0  0  0  0  0  0  0  0  0  0
   13.6459    7.9624    2.3850 C   0  0  0  0  0  0  0  0  0  0  0  0
   14.0279    7.2300    1.0859 C   0  0  0  0  0  0  0  0  0  0  0  0
   14.6271    9.0243    2.6471 N   0  0  0  0  0  4  0  0  0  0  0  0
   11.8957    9.6374    3.3177 C   0  0  0  0  0  0  0  0  0  0  0  0
   10.4177   10.0733    3.4266 C   0  0  0  0  0  0  0  0  0  0  0  0
    4.5324    8.7801    2.0799 C   0  0  0  0  0  0  0  0  0  0  0  0
    3.2257    8.5199   -0.2406 H   0  0  0  0  0  0  0  0  0  0  0  0
    4.1392    6.9607   -0.3066 H   0  0  0  0  0  0  0  0  0  0  0  0
    2.3914    6.9791    0.1583 H   0  0  0  0  0  0  0  0  0  0  0  0
    2.8281    5.8337    2.3113 H   0  0  0  0  0  0  0  0  0  0  0  0
    3.5310    6.0656    4.6641 H   0  0  0  0  0  0  0  0  0  0  0  0
    4.8834    7.9981    5.3809 H   0  0  0  0  0  0  0  0  0  0  0  0
    5.4772   10.3905    4.8801 H   0  0  0  0  0  0  0  0  0  0  0  0
    5.6805   10.9383    3.1956 H   0  0  0  0  0  0  0  0  0  0  0  0
    7.6767    9.5107    4.8522 H   0  0  0  0  0  0  0  0  0  0  0  0
    9.7114    9.6194    1.6251 H   0  0  0  0  0  0  0  0  0  0  0  0
    9.1282    7.1304    3.0776 H   0  0  0  0  0  0  0  0  0  0  0  0
    9.3937    7.4684    1.3478 H   0  0  0  0  0  0  0  0  0  0  0  0
   11.3436    6.9693    3.5766 H   0  0  0  0  0  0  0  0  0  0  0  0
   11.3979    6.4993    1.8571 H   0  0  0  0  0  0  0  0  0  0  0  0
   12.0116    8.9214    1.2757 H   0  0  0  0  0  0  0  0  0  0  0  0
   13.7142    7.2275    3.2200 H   0  0  0  0  0  0  0  0  0  0  0  0
   13.9578    7.9167    0.2154 H   0  0  0  0  0  0  0  0  0  0  0  0
   13.3807    6.3497    0.9044 H   0  0  0  0  0  0  0  0  0  0  0  0
   15.0712    6.8547    1.1520 H   0  0  0  0  0  0  0  0  0  0  0  0
   14.5143    9.3994    3.6160 H   0  0  0  0  0  0  0  0  0  0  0  0
   14.5262    9.7975    1.9495 H   0  0  0  0  0  0  0  0  0  0  0  0
   15.5988    8.6418    2.5850 H   0  0  0  0  0  0  0  0  0  0  0  0
   12.2339    9.3016    4.3236 H   0  0  0  0  0  0  0  0  0  0  0  0
   12.4948   10.5349    3.0515 H   0  0  0  0  0  0  0  0  0  0  0  0
   10.1188   10.0277    4.4963 H   0  0  0  0  0  0  0  0  0  0  0  0
   10.3156   11.1402    3.1210 H   0  0  0  0  0  0  0  0  0  0  0  0
    4.8107    9.5360    1.3560 H   0  0  0  0  0  0  0  0  0  0  0  0
  1  2  1  0
  2  3  2  0
  3  4  1  0
  4  5  2  0
  5  6  1  0
  6  7  1  0
  7  8  1  0
  8  9  1  0
  9 10  2  0
  9 11  1  0
 11 12  1  0
 12 13  1  0
 13 14  1  0
 14 15  1  0
 15 16  1  0
 15 17  1  0
 14 18  1  0
 18 19  1  0
  6 20  2  0
 20  2  1  0
 19 11  1  0
  1 21  1  0
  1 22  1  0
  1 23  1  0
  3 24  1  0
  4 25  1  0
  5 26  1  0
  7 27  1  0
  7 28  1  0
  8 29  1  0
 11 30  1  0
 12 31  1  0
 12 32  1  0
 13 33  1  0
 13 34  1  0
 14 35  1  0
 15 36  1  0
 16 37  1  0
 16 38  1  0
 16 39  1  0
 17 40  1  0
 17 41  1  0
 17 42  1  0
 18 43  1  0
 18 44  1  0
 19 45  1  0
 19 46  1  0
 20 47  1  0
M  CHG  1  17   1
M  END
>  <EmbedRMS>  (199) 
0.16810927383701896

$$$$

     RDKit          3D

 44 44  0  0  0  0  0  0  0  0999 V2000
    2.2726   12.2730    1.9197 C   0  0  0  0  0  0  0  0  0  0  0  0
    3.6716   11.7753    2.0767 C   0  0  0  0  0  0  0  0  0  0  0  0
    4.1993   11.0975    1.1535 O   0  0  0  0  0  0  0  0  0  0  0  0
    4.4123   12.0913    3.2636 N   0  0  0  0  0  0  0  0  0  0  0  0
    5.7882   11.6467    3.4755 C   0  0  0  0  0  0  0  0  0  0  0  0
    5.8325   10.1636    3.8751 C   0  0  0  0  0  0  0  0  0  0  0  0
    7.2226    9.6885    3.9384 N   0  0  0  0  0  0  0  0  0  0  0  0
    7.9822    9.5147    2.7306 C   0  0  0  0  0  0  0  0  0  0  0  0
    7.4090    9.6628    1.6229 O   0  0  0  0  0  0  0  0  0  0  0  0
    9.4448    9.1929    2.6561 C   0  0  0  0  0  0  0  0  0  0  0  0
    9.7666    7.7134    2.4316 C   0  0  0  0  0  0  0  0  0  0  0  0
   11.2651    7.3640    2.5402 C   0  0  0  0  0  0  0  0  0  0  0  0
   12.1439    8.5866    2.2323 C   0  0  0  0  0  0  0  0  0  0  0  0
   13.6549    8.3400    1.9333 C   0  0  0  0  0  0  0  0  0  0  0  0
   14.0142    7.0450    1.2245 C   0  0  0  0  0  0  0  0  0  0  0  0
   14.6174    8.7740    2.9401 N   0  0  0  0  0  4  0  0  0  0  0  0
   11.8897    9.6849    3.2851 C   0  0  0  0  0  0  0  0  0  0  0  0
   10.4047   10.0809    3.4318 C   0  0  0  0  0  0  0  0  0  0  0  0
    1.7850   11.7977    1.0420 H   0  0  0  0  0  0  0  0  0  0  0  0
    2.2858   13.3733    1.7753 H   0  0  0  0  0  0  0  0  0  0  0  0
    1.6851   12.0305    2.8298 H   0  0  0  0  0  0  0  0  0  0  0  0
    3.9764   12.7171    3.9782 H   0  0  0  0  0  0  0  0  0  0  0  0
    6.3806   11.8354    2.5554 H   0  0  0  0  0  0  0  0  0  0  0  0
    6.2447   12.2471    4.2922 H   0  0  0  0  0  0  0  0  0  0  0  0
    5.2582    9.5431    3.1538 H   0  0  0  0  0  0  0  0  0  0  0  0
    5.3593   10.0461    4.8739 H   0  0  0  0  0  0  0  0  0  0  0  0
    7.6549    9.4618    4.8617 H   0  0  0  0  0  0  0  0  0  0  0  0
    9.6827    9.5850    1.6377 H   0  0  0  0  0  0  0  0  0  0  0  0
    9.3865    7.3953    1.4337 H   0  0  0  0  0  0  0  0  0  0  0  0
    9.2159    7.1115    3.1869 H   0  0  0  0  0  0  0  0  0  0  0  0
   11.4755    6.5310    1.8379 H   0  0  0  0  0  0  0  0  0  0  0  0
   11.4952    7.0012    3.5662 H   0  0  0  0  0  0  0  0  0  0  0  0
   11.7508    8.9795    1.2653 H   0  0  0  0  0  0  0  0  0  0  0  0
   13.8449    9.0656    1.1033 H   0  0  0  0  0  0  0  0  0  0  0  0
   15.0592    7.0794    0.8478 H   0  0  0  0  0  0  0  0  0  0  0  0
   13.9249    6.1936    1.9314 H   0  0  0  0  0  0  0  0  0  0  0  0
   13.3412    6.8742    0.3568 H   0  0  0  0  0  0  0  0  0  0  0  0
   14.5656    9.8050    3.1029 H   0  0  0  0  0  0  0  0  0  0  0  0
   14.4333    8.2660    3.8350 H   0  0  0  0  0  0  0  0  0  0  0  0
   15.5929    8.5557    2.6317 H   0  0  0  0  0  0  0  0  0  0  0  0
   12.4544   10.6000    3.0036 H   0  0  0  0  0  0  0  0  0  0  0  0
   12.2718    9.3427    4.2720 H   0  0  0  0  0  0  0  0  0  0  0  0
   10.2656   11.1439    3.1275 H   0  0  0  0  0  0  0  0  0  0  0  0
   10.1319   10.0247    4.5078 H   0  0  0  0  0  0  0  0  0  0  0  0
  1  2  1  0
  2  3  2  0
  2  4  1  0
  4  5  1  0
  5  6  1  0
  6  7  1  0
  7  8  1  0
  8  9  2  0
  8 10  1  0
 10 11  1  0
 11 12  1  0
 12 13  1  0
 13 14  1  0
 14 15  1  0
 14 16  1  0
 13 17  1  0
 17 18  1  0
 18 10  1  0
  1 19  1  0
  1 20  1  0
  1 21  1  0
  4 22  1  0
  5 23  1  0
  5 24  1  0
  6 25  1  0
  6 26  1  0
  7 27  1  0
 10 28  1  0
 11 29  1  0
 11 30  1  0
 12 31  1  0
 12 32  1  0
 13 33  1  0
 14 34  1  0
 15 35  1  0
 15 36  1  0
 15 37  1  0
 16 38  1  0
 16 39  1  0
 16 40  1  0
 17 41  1  0
 17 42  1  0
 18 43  1  0
 18 44  1  0
M  CHG  1  16   1
M  END
>  <EmbedRMS>  (200) 
0.2509587523478319

$$$$

     RDKit          3D

 40 41  0  0  0  0  0  0  0  0999 V2000
   13.9228    7.3284    1.0385 C   0  0  0  0  0  0  0  0  0  0  0  0
   13.7075    7.9210    2.4414 C   0  0  0  0  0  0  0  0  0  0  0  0
   14.6424    9.0269    2.6701 N   0  0  0  0  0  4  0  0  0  0  0  0
   12.2294    8.2934    2.8216 C   0  0  0  0  0  0  0  0  0  0  0  0
   11.1741    7.4157    2.1505 C   0  0  0  0  0  0  0  0  0  0  0  0
    9.7356    7.7231    2.5380 C   0  0  0  0  0  0  0  0  0  0  0  0
    9.4500    9.2029    2.6315 C   0  0  0  0  0  0  0  0  0  0  0  0
    7.9884    9.5360    2.7257 C   0  0  0  0  0  0  0  0  0  0  0  0
    7.4147    9.6914    1.6198 O   0  0  0  0  0  0  0  0  0  0  0  0
    7.2200    9.6887    3.9327 N   0  0  0  0  0  0  0  0  0  0  0  0
    5.8179   10.1209    3.8133 C   0  0  0  0  0  0  0  0  0  0  0  0
    5.1579   10.2598    5.1431 C   0  0  0  0  0  0  0  0  0  0  0  0
    5.1819   11.3879    5.8785 N   0  0  0  0  0  0  0  0  0  0  0  0
    4.4926   11.0189    6.9793 C   0  0  0  0  0  0  0  0  0  0  0  0
    4.0734    9.7394    6.9200 N   0  0  0  0  0  0  0  0  0  0  0  0
    4.4959    9.2707    5.7615 N   0  0  0  0  0  0  0  0  0  0  0  0
   10.4245   10.0506    3.4178 C   0  0  0  0  0  0  0  0  0  0  0  0
   11.8788    9.7841    2.9973 C   0  0  0  0  0  0  0  0  0  0  0  0
   13.5731    8.0449    0.2655 H   0  0  0  0  0  0  0  0  0  0  0  0
   14.9999    7.1185    0.8655 H   0  0  0  0  0  0  0  0  0  0  0  0
   13.3783    6.3678    0.9249 H   0  0  0  0  0  0  0  0  0  0  0  0
   14.0113    7.0969    3.1299 H   0  0  0  0  0  0  0  0  0  0  0  0
   15.6232    8.7091    2.4922 H   0  0  0  0  0  0  0  0  0  0  0  0
   14.5985    9.3365    3.6676 H   0  0  0  0  0  0  0  0  0  0  0  0
   14.4330    9.8276    2.0311 H   0  0  0  0  0  0  0  0  0  0  0  0
   12.1630    7.9502    3.8813 H   0  0  0  0  0  0  0  0  0  0  0  0
   11.3809    6.3424    2.3585 H   0  0  0  0  0  0  0  0  0  0  0  0
   11.2461    7.5643    1.0514 H   0  0  0  0  0  0  0  0  0  0  0  0
    9.0504    7.2401    1.8054 H   0  0  0  0  0  0  0  0  0  0  0  0
    9.5322    7.2696    3.5326 H   0  0  0  0  0  0  0  0  0  0  0  0
    9.7013    9.5355    1.5935 H   0  0  0  0  0  0  0  0  0  0  0  0
    7.6671    9.5283    4.8635 H   0  0  0  0  0  0  0  0  0  0  0  0
    5.7761   11.1007    3.2898 H   0  0  0  0  0  0  0  0  0  0  0  0
    5.2525    9.3800    3.2074 H   0  0  0  0  0  0  0  0  0  0  0  0
    4.2995   11.6765    7.8161 H   0  0  0  0  0  0  0  0  0  0  0  0
    4.3382    8.2981    5.4159 H   0  0  0  0  0  0  0  0  0  0  0  0
   10.3104    9.8093    4.4969 H   0  0  0  0  0  0  0  0  0  0  0  0
   10.1922   11.1303    3.2835 H   0  0  0  0  0  0  0  0  0  0  0  0
   12.5387   10.2611    3.7525 H   0  0  0  0  0  0  0  0  0  0  0  0
   12.0562   10.2951    2.0262 H   0  0  0  0  0  0  0  0  0  0  0  0
  1  2  1  0
  2  3  1  0
  2  4  1  0
  4  5  1  0
  5  6  1  0
  6  7  1  0
  7  8  1  0
  8  9  2  0
  8 10  1  0
 10 11  1  0
 11 12  1  0
 12 13  2  0
 13 14  1  0
 14 15  2  0
 15 16  1  0
  7 17  1  0
 17 18  1  0
 18  4  1  0
 16 12  1  0
  1 19  1  0
  1 20  1  0
  1 21  1  0
  2 22  1  0
  3 23  1  0
  3 24  1  0
  3 25  1  0
  4 26  1  0
  5 27  1  0
  5 28  1  0
  6 29  1  0
  6 30  1  0
  7 31  1  0
 10 32  1  0
 11 33  1  0
 11 34  1  0
 14 35  1  0
 16 36  1  0
 17 37  1  0
 17 38  1  0
 18 39  1  0
 18 40  1  0
M  CHG  1   3   1
M  END
>  <EmbedRMS>  (201) 
0.26092352120004825

$$$$

     RDKit          3D

 47 48  0  0  0  0  0  0  0  0999 V2000
    3.3550    7.5261    0.2387 C   0  0  0  0  0  0  0  0  0  0  0  0
    3.7591    7.6796    1.6740 C   0  0  0  0  0  0  0  0  0  0  0  0
    3.4093    6.6971    2.6112 C   0  0  0  0  0  0  0  0  0  0  0  0
    3.8066    6.8249    3.9436 C   0  0  0  0  0  0  0  0  0  0  0  0
    4.5708    7.9221    4.3466 C   0  0  0  0  0  0  0  0  0  0  0  0
    4.9400    8.9082    3.4207 C   0  0  0  0  0  0  0  0  0  0  0  0
    5.8031   10.0620    3.8692 C   0  0  0  0  0  0  0  0  0  0  0  0
    7.2179    9.6630    3.9265 N   0  0  0  0  0  0  0  0  0  0  0  0
    7.9878    9.5377    2.7183 C   0  0  0  0  0  0  0  0  0  0  0  0
    7.4195    9.7037    1.6128 O   0  0  0  0  0  0  0  0  0  0  0  0
    9.4506    9.2137    2.6347 C   0  0  0  0  0  0  0  0  0  0  0  0
    9.7340    7.7427    2.3734 C   0  0  0  0  0  0  0  0  0  0  0  0
   11.1976    7.3493    2.5402 C   0  0  0  0  0  0  0  0  0  0  0  0
   12.1819    8.5080    2.2955 C   0  0  0  0  0  0  0  0  0  0  0  0
   13.6459    7.9624    2.3850 C   0  0  0  0  0  0  0  0  0  0  0  0
   14.0279    7.2300    1.0859 C   0  0  0  0  0  0  0  0  0  0  0  0
   14.6271    9.0243    2.6471 N   0  0  0  0  0  4  0  0  0  0  0  0
   11.8957    9.6374    3.3177 C   0  0  0  0  0  0  0  0  0  0  0  0
   10.4177   10.0733    3.4266 C   0  0  0  0  0  0  0  0  0  0  0  0
    4.5324    8.7801    2.0799 C   0  0  0  0  0  0  0  0  0  0  0  0
    3.2257    8.5199   -0.2406 H   0  0  0  0  0  0  0  0  0  0  0  0
    4.1392    6.9607   -0.3066 H   0  0  0  0  0  0  0  0  0  0  0  0
    2.3914    6.9791    0.1583 H   0  0  0  0  0  0  0  0  0  0  0  0
    2.8281    5.8337    2.3113 H   0  0  0  0  0  0  0  0  0  0  0  0
    3.5310    6.0656    4.6641 H   0  0  0  0  0  0  0  0  0  0  0  0
    4.8834    7.9981    5.3809 H   0  0  0  0  0  0  0  0  0  0  0  0
    5.4772   10.3905    4.8801 H   0  0  0  0  0  0  0  0  0  0  0  0
    5.6805   10.9383    3.1956 H   0  0  0  0  0  0  0  0  0  0  0  0
    7.6767    9.5107    4.8522 H   0  0  0  0  0  0  0  0  0  0  0  0
    9.7114    9.6194    1.6251 H   0  0  0  0  0  0  0  0  0  0  0  0
    9.1282    7.1304    3.0776 H   0  0  0  0  0  0  0  0  0  0  0  0
    9.3937    7.4684    1.3478 H   0  0  0  0  0  0  0  0  0  0  0  0
   11.3436    6.9693    3.5766 H   0  0  0  0  0  0  0  0  0  0  0  0
   11.3979    6.4993    1.8571 H   0  0  0  0  0  0  0  0  0  0  0  0
   12.0116    8.9214    1.2757 H   0  0  0  0  0  0  0  0  0  0  0  0
   13.7142    7.2275    3.2200 H   0  0  0  0  0  0  0  0  0  0  0  0
   13.9578    7.9167    0.2154 H   0  0  0  0  0  0  0  0  0  0  0  0
   13.3807    6.3497    0.9044 H   0  0  0  0  0  0  0  0  0  0  0  0
   15.0712    6.8547    1.1520 H   0  0  0  0  0  0  0  0  0  0  0  0
   14.5143    9.3994    3.6160 H   0  0  0  0  0  0  0  0  0  0  0  0
   14.5262    9.7975    1.9495 H   0  0  0  0  0  0  0  0  0  0  0  0
   15.5988    8.6418    2.5850 H   0  0  0  0  0  0  0  0  0  0  0  0
   12.2339    9.3016    4.3236 H   0  0  0  0  0  0  0  0  0  0  0  0
   12.4948   10.5349    3.0515 H   0  0  0  0  0  0  0  0  0  0  0  0
   10.1188   10.0277    4.4963 H   0  0  0  0  0  0  0  0  0  0  0  0
   10.3156   11.1402    3.1210 H   0  0  0  0  0  0  0  0  0  0  0  0
    4.8107    9.5360    1.3560 H   0  0  0  0  0  0  0  0  0  0  0  0
  1  2  1  0
  2  3  2  0
  3  4  1  0
  4  5  2  0
  5  6  1  0
  6  7  1  0
  7  8  1  0
  8  9  1  0
  9 10  2  0
  9 11  1  0
 11 12  1  0
 12 13  1  0
 13 14  1  0
 14 15  1  0
 15 16  1  0
 15 17  1  0
 14 18  1  0
 18 19  1  0
  6 20  2  0
 20  2  1  0
 19 11  1  0
  1 21  1  0
  1 22  1  0
  1 23  1  0
  3 24  1  0
  4 25  1  0
  5 26  1  0
  7 27  1  0
  7 28  1  0
  8 29  1  0
 11 30  1  0
 12 31  1  0
 12 32  1  0
 13 33  1  0
 13 34  1  0
 14 35  1  0
 15 36  1  0
 16 37  1  0
 16 38  1  0
 16 39  1  0
 17 40  1  0
 17 41  1  0
 17 42  1  0
 18 43  1  0
 18 44  1  0
 19 45  1  0
 19 46  1  0
 20 47  1  0
M  CHG  1  17   1
M  END
>  <EmbedRMS>  (202) 
0.16810927383701896

$$$$

     RDKit          3D

 46 46  0  0  0  0  0  0  0  0999 V2000
    2.3051    7.2496    3.7607 C   0  0  0  0  0  0  0  0  0  0  0  0
    2.5835    8.2584    2.6485 C   0  0  0  0  0  0  0  0  0  0  0  0
    3.4692    9.4106    3.1274 C   0  0  0  0  0  0  0  0  0  0  0  0
    4.9193    8.9668    3.3261 C   0  0  0  0  0  0  0  0  0  0  0  0
    5.7682   10.1363    3.8153 C   0  0  0  0  0  0  0  0  0  0  0  0
    7.1508    9.7119    3.9893 N   0  0  0  0  0  0  0  0  0  0  0  0
    8.0171    9.4692    2.8772 C   0  0  0  0  0  0  0  0  0  0  0  0
    7.6145    9.6885    1.6987 O   0  0  0  0  0  0  0  0  0  0  0  0
    9.4233    8.9852    3.1202 C   0  0  0  0  0  0  0  0  0  0  0  0
    9.7845    7.9361    2.0751 C   0  0  0  0  0  0  0  0  0  0  0  0
   11.1474    7.3156    2.3199 C   0  0  0  0  0  0  0  0  0  0  0  0
   12.2336    8.2986    2.7958 C   0  0  0  0  0  0  0  0  0  0  0  0
   13.7106    7.9146    2.4296 C   0  0  0  0  0  0  0  0  0  0  0  0
   13.9328    7.3323    1.0256 C   0  0  0  0  0  0  0  0  0  0  0  0
   14.6490    9.0162    2.6728 N   0  0  0  0  0  4  0  0  0  0  0  0
   11.8870    9.7889    2.9953 C   0  0  0  0  0  0  0  0  0  0  0  0
   10.3955   10.1685    3.0627 C   0  0  0  0  0  0  0  0  0  0  0  0
    1.9037    7.7594    4.6623 H   0  0  0  0  0  0  0  0  0  0  0  0
    3.2235    6.6882    4.0285 H   0  0  0  0  0  0  0  0  0  0  0  0
    1.5493    6.5163    3.4086 H   0  0  0  0  0  0  0  0  0  0  0  0
    3.0488    7.7435    1.7799 H   0  0  0  0  0  0  0  0  0  0  0  0
    1.6120    8.6795    2.3098 H   0  0  0  0  0  0  0  0  0  0  0  0
    3.0615    9.8339    4.0721 H   0  0  0  0  0  0  0  0  0  0  0  0
    3.4418   10.2134    2.3580 H   0  0  0  0  0  0  0  0  0  0  0  0
    4.9759    8.1564    4.0830 H   0  0  0  0  0  0  0  0  0  0  0  0
    5.3205    8.5813    2.3642 H   0  0  0  0  0  0  0  0  0  0  0  0
    5.3733   10.4943    4.7916 H   0  0  0  0  0  0  0  0  0  0  0  0
    5.7239   10.9832    3.0957 H   0  0  0  0  0  0  0  0  0  0  0  0
    7.5294    9.6311    4.9600 H   0  0  0  0  0  0  0  0  0  0  0  0
    9.4828    8.5150    4.1274 H   0  0  0  0  0  0  0  0  0  0  0  0
    9.7871    8.4043    1.0643 H   0  0  0  0  0  0  0  0  0  0  0  0
    9.0193    7.1276    2.0682 H   0  0  0  0  0  0  0  0  0  0  0  0
   11.0331    6.4805    3.0501 H   0  0  0  0  0  0  0  0  0  0  0  0
   11.4304    6.8346    1.3652 H   0  0  0  0  0  0  0  0  0  0  0  0
   12.2371    8.0287    3.8803 H   0  0  0  0  0  0  0  0  0  0  0  0
   14.0078    7.0847    3.1154 H   0  0  0  0  0  0  0  0  0  0  0  0
   13.5363    6.2977    0.9558 H   0  0  0  0  0  0  0  0  0  0  0  0
   13.4425    7.9753    0.2642 H   0  0  0  0  0  0  0  0  0  0  0  0
   15.0171    7.2740    0.7917 H   0  0  0  0  0  0  0  0  0  0  0  0
   14.5098    9.7861    1.9795 H   0  0  0  0  0  0  0  0  0  0  0  0
   15.6322    8.6695    2.5837 H   0  0  0  0  0  0  0  0  0  0  0  0
   14.5414    9.3805    3.6466 H   0  0  0  0  0  0  0  0  0  0  0  0
   12.3161   10.3468    2.1360 H   0  0  0  0  0  0  0  0  0  0  0  0
   12.3933   10.1917    3.9024 H   0  0  0  0  0  0  0  0  0  0  0  0
   10.1549   10.7898    2.1695 H   0  0  0  0  0  0  0  0  0  0  0  0
   10.2218   10.8161    3.9507 H   0  0  0  0  0  0  0  0  0  0  0  0
  1  2  1  0
  2  3  1  0
  3  4  1  0
  4  5  1  0
  5  6  1  0
  6  7  1  0
  7  8  2  0
  7  9  1  0
  9 10  1  0
 10 11  1  0
 11 12  1  0
 12 13  1  0
 13 14  1  0
 13 15  1  0
 12 16  1  0
 16 17  1  0
 17  9  1  0
  1 18  1  0
  1 19  1  0
  1 20  1  0
  2 21  1  0
  2 22  1  0
  3 23  1  0
  3 24  1  0
  4 25  1  0
  4 26  1  0
  5 27  1  0
  5 28  1  0
  6 29  1  0
  9 30  1  0
 10 31  1  0
 10 32  1  0
 11 33  1  0
 11 34  1  0
 12 35  1  0
 13 36  1  0
 14 37  1  0
 14 38  1  0
 14 39  1  0
 15 40  1  0
 15 41  1  0
 15 42  1  0
 16 43  1  0
 16 44  1  0
 17 45  1  0
 17 46  1  0
M  CHG  1  15   1
M  END
>  <EmbedRMS>  (203) 
0.16933320433084326

$$$$

     RDKit          3D

 48 48  0  0  0  0  0  0  0  0999 V2000
    1.9982   12.4608    3.3176 C   0  0  0  0  0  0  0  0  0  0  0  0
    3.1772   11.8763    3.9143 N   0  0  0  0  0  0  0  0  0  0  0  0
    4.3699   12.1174    3.1035 C   0  0  0  0  0  0  0  0  0  0  0  0
    5.5231   11.5752    3.9425 C   0  0  0  0  0  0  0  0  0  0  0  0
    6.5898   12.5662    4.3297 C   0  0  0  0  0  0  0  0  0  0  0  0
    5.7915   10.0856    3.7162 C   0  0  0  0  0  0  0  0  0  0  0  0
    7.1724    9.7249    3.9558 N   0  0  0  0  0  0  0  0  0  0  0  0
    8.0444    9.4713    2.8595 C   0  0  0  0  0  0  0  0  0  0  0  0
    7.6528    9.6838    1.6757 O   0  0  0  0  0  0  0  0  0  0  0  0
    9.4377    8.9840    3.1176 C   0  0  0  0  0  0  0  0  0  0  0  0
    9.7972    7.9338    2.0739 C   0  0  0  0  0  0  0  0  0  0  0  0
   11.1551    7.3116    2.3257 C   0  0  0  0  0  0  0  0  0  0  0  0
   12.2406    8.2971    2.7975 C   0  0  0  0  0  0  0  0  0  0  0  0
   13.7158    7.9134    2.4291 C   0  0  0  0  0  0  0  0  0  0  0  0
   13.9353    7.3329    1.0240 C   0  0  0  0  0  0  0  0  0  0  0  0
   14.6541    9.0149    2.6722 N   0  0  0  0  0  4  0  0  0  0  0  0
   11.8956    9.7882    2.9937 C   0  0  0  0  0  0  0  0  0  0  0  0
   10.4064   10.1683    3.0646 C   0  0  0  0  0  0  0  0  0  0  0  0
    2.1036   13.5656    3.2600 H   0  0  0  0  0  0  0  0  0  0  0  0
    1.8228   12.0489    2.2989 H   0  0  0  0  0  0  0  0  0  0  0  0
    1.1131   12.2338    3.9490 H   0  0  0  0  0  0  0  0  0  0  0  0
    3.0084   10.8423    3.9549 H   0  0  0  0  0  0  0  0  0  0  0  0
    4.2943   11.6143    2.1134 H   0  0  0  0  0  0  0  0  0  0  0  0
    4.4963   13.2097    2.9298 H   0  0  0  0  0  0  0  0  0  0  0  0
    5.1184   11.5065    4.9849 H   0  0  0  0  0  0  0  0  0  0  0  0
    7.2118   12.7942    3.4389 H   0  0  0  0  0  0  0  0  0  0  0  0
    6.1430   13.5158    4.6997 H   0  0  0  0  0  0  0  0  0  0  0  0
    7.2559   12.1592    5.1222 H   0  0  0  0  0  0  0  0  0  0  0  0
    5.4848    9.7861    2.6912 H   0  0  0  0  0  0  0  0  0  0  0  0
    5.1504    9.4635    4.3825 H   0  0  0  0  0  0  0  0  0  0  0  0
    7.5250    9.6631    4.9376 H   0  0  0  0  0  0  0  0  0  0  0  0
    9.4873    8.5153    4.1262 H   0  0  0  0  0  0  0  0  0  0  0  0
    9.8076    8.4007    1.0624 H   0  0  0  0  0  0  0  0  0  0  0  0
    9.0301    7.1269    2.0646 H   0  0  0  0  0  0  0  0  0  0  0  0
   11.0367    6.4826    3.0622 H   0  0  0  0  0  0  0  0  0  0  0  0
   11.4391    6.8220    1.3757 H   0  0  0  0  0  0  0  0  0  0  0  0
   12.2466    8.0302    3.8828 H   0  0  0  0  0  0  0  0  0  0  0  0
   14.0141    7.0827    3.1135 H   0  0  0  0  0  0  0  0  0  0  0  0
   13.4397    7.9743    0.2647 H   0  0  0  0  0  0  0  0  0  0  0  0
   13.5433    6.2966    0.9547 H   0  0  0  0  0  0  0  0  0  0  0  0
   15.0190    7.2793    0.7861 H   0  0  0  0  0  0  0  0  0  0  0  0
   14.5482    9.3781    3.6465 H   0  0  0  0  0  0  0  0  0  0  0  0
   15.6372    8.6683    2.5815 H   0  0  0  0  0  0  0  0  0  0  0  0
   14.5146    9.7854    1.9797 H   0  0  0  0  0  0  0  0  0  0  0  0
   12.4050   10.1939    3.8978 H   0  0  0  0  0  0  0  0  0  0  0  0
   12.3222   10.3428    2.1310 H   0  0  0  0  0  0  0  0  0  0  0  0
   10.2332   10.8111    3.9563 H   0  0  0  0  0  0  0  0  0  0  0  0
   10.1664   10.7953    2.1749 H   0  0  0  0  0  0  0  0  0  0  0  0
  1  2  1  0
  2  3  1  0
  3  4  1  0
  4  5  1  0
  4  6  1  0
  6  7  1  0
  7  8  1  0
  8  9  2  0
  8 10  1  0
 10 11  1  0
 11 12  1  0
 12 13  1  0
 13 14  1  0
 14 15  1  0
 14 16  1  0
 13 17  1  0
 17 18  1  0
 18 10  1  0
  1 19  1  0
  1 20  1  0
  1 21  1  0
  2 22  1  0
  3 23  1  0
  3 24  1  0
  4 25  1  0
  5 26  1  0
  5 27  1  0
  5 28  1  0
  6 29  1  0
  6 30  1  0
  7 31  1  0
 10 32  1  0
 11 33  1  0
 11 34  1  0
 12 35  1  0
 12 36  1  0
 13 37  1  0
 14 38  1  0
 15 39  1  0
 15 40  1  0
 15 41  1  0
 16 42  1  0
 16 43  1  0
 16 44  1  0
 17 45  1  0
 17 46  1  0
 18 47  1  0
 18 48  1  0
M  CHG  1  16   1
M  END
>  <EmbedRMS>  (204) 
0.25314871758370117

$$$$

     RDKit          3D

 42 42  0  0  0  0  0  0  0  0999 V2000
   13.9316    7.3322    1.0259 C   0  0  0  0  0  0  0  0  0  0  0  0
   13.7093    7.9147    2.4298 C   0  0  0  0  0  0  0  0  0  0  0  0
   14.6479    9.0161    2.6730 N   0  0  0  0  0  4  0  0  0  0  0  0
   12.2320    8.2990    2.7960 C   0  0  0  0  0  0  0  0  0  0  0  0
   11.1450    7.3165    2.3207 C   0  0  0  0  0  0  0  0  0  0  0  0
    9.7815    7.9372    2.0761 C   0  0  0  0  0  0  0  0  0  0  0  0
    9.4190    8.9877    3.1201 C   0  0  0  0  0  0  0  0  0  0  0  0
    8.0125    9.4755    2.8753 C   0  0  0  0  0  0  0  0  0  0  0  0
    7.6076    9.6822    1.6957 O   0  0  0  0  0  0  0  0  0  0  0  0
    7.1527    9.7447    3.9868 N   0  0  0  0  0  0  0  0  0  0  0  0
    5.7490   10.1153    3.8268 C   0  0  0  0  0  0  0  0  0  0  0  0
    4.8759    8.8561    3.7235 C   0  0  0  0  0  0  0  0  0  0  0  0
    4.9629    7.9037    4.9245 C   0  0  0  0  0  0  0  0  0  0  0  0
    3.6623    9.0989    3.4327 O   0  0  0  0  0  0  0  0  0  0  0  0
    4.9569    8.2985    2.5703 O   0  0  0  0  0  0  0  0  0  0  0  0
   10.3938   10.1694    3.0636 C   0  0  0  0  0  0  0  0  0  0  0  0
   11.8855    9.7891    2.9956 C   0  0  0  0  0  0  0  0  0  0  0  0
   13.5338    6.2982    0.9559 H   0  0  0  0  0  0  0  0  0  0  0  0
   15.0160    7.2727    0.7924 H   0  0  0  0  0  0  0  0  0  0  0  0
   13.4422    7.9757    0.2644 H   0  0  0  0  0  0  0  0  0  0  0  0
   14.0063    7.0847    3.1156 H   0  0  0  0  0  0  0  0  0  0  0  0
   14.5403    9.3803    3.6468 H   0  0  0  0  0  0  0  0  0  0  0  0
   14.5087    9.7861    1.9798 H   0  0  0  0  0  0  0  0  0  0  0  0
   15.6311    8.6693    2.5837 H   0  0  0  0  0  0  0  0  0  0  0  0
   12.2356    8.0292    3.8806 H   0  0  0  0  0  0  0  0  0  0  0  0
   11.0308    6.4814    3.0508 H   0  0  0  0  0  0  0  0  0  0  0  0
   11.4279    6.8354    1.3659 H   0  0  0  0  0  0  0  0  0  0  0  0
    9.7839    8.4044    1.0649 H   0  0  0  0  0  0  0  0  0  0  0  0
    9.0161    7.1289    2.0701 H   0  0  0  0  0  0  0  0  0  0  0  0
    9.4752    8.5178    4.1276 H   0  0  0  0  0  0  0  0  0  0  0  0
    7.5412    9.6871    4.9554 H   0  0  0  0  0  0  0  0  0  0  0  0
    5.4307   10.7041    4.7148 H   0  0  0  0  0  0  0  0  0  0  0  0
    5.6185   10.7690    2.9358 H   0  0  0  0  0  0  0  0  0  0  0  0
    5.9943    7.5046    5.0256 H   0  0  0  0  0  0  0  0  0  0  0  0
    4.2688    7.0448    4.7952 H   0  0  0  0  0  0  0  0  0  0  0  0
    4.6959    8.4405    5.8598 H   0  0  0  0  0  0  0  0  0  0  0  0
    3.2695    9.6498    4.1633 H   0  0  0  0  0  0  0  0  0  0  0  0
    5.7989    7.7703    2.5430 H   0  0  0  0  0  0  0  0  0  0  0  0
   10.1537   10.7918    2.1710 H   0  0  0  0  0  0  0  0  0  0  0  0
   10.2211   10.8165    3.9521 H   0  0  0  0  0  0  0  0  0  0  0  0
   12.3143   10.3466    2.1358 H   0  0  0  0  0  0  0  0  0  0  0  0
   12.3923   10.1922    3.9023 H   0  0  0  0  0  0  0  0  0  0  0  0
  1  2  1  0
  2  3  1  0
  2  4  1  0
  4  5  1  0
  5  6  1  0
  6  7  1  0
  7  8  1  0
  8  9  2  0
  8 10  1  0
 10 11  1  0
 11 12  1  0
 12 13  1  0
 12 14  1  0
 12 15  1  0
  7 16  1  0
 16 17  1  0
 17  4  1  0
  1 18  1  0
  1 19  1  0
  1 20  1  0
  2 21  1  0
  3 22  1  0
  3 23  1  0
  3 24  1  0
  4 25  1  0
  5 26  1  0
  5 27  1  0
  6 28  1  0
  6 29  1  0
  7 30  1  0
 10 31  1  0
 11 32  1  0
 11 33  1  0
 13 34  1  0
 13 35  1  0
 13 36  1  0
 14 37  1  0
 15 38  1  0
 16 39  1  0
 16 40  1  0
 17 41  1  0
 17 42  1  0
M  CHG  1   3   1
M  END
>  <EmbedRMS>  (205) 
0.7100198817626026

$$$$

     RDKit          3D

 41 41  0  0  0  0  0  0  0  0999 V2000
    4.6460   11.6759    7.1724 C   0  0  0  0  0  0  0  0  0  0  0  0
    5.2633   11.4940    5.8659 N   0  0  0  0  0  0  0  0  0  0  0  0
    5.1493   10.2629    5.1439 C   0  0  0  0  0  0  0  0  0  0  0  0
    4.5014    9.2956    5.6277 O   0  0  0  0  0  0  0  0  0  0  0  0
    5.8086   10.1135    3.8127 C   0  0  0  0  0  0  0  0  0  0  0  0
    7.2095    9.6833    3.9371 N   0  0  0  0  0  0  0  0  0  0  0  0
    7.9808    9.5180    2.7350 C   0  0  0  0  0  0  0  0  0  0  0  0
    7.4142    9.6752    1.6244 O   0  0  0  0  0  0  0  0  0  0  0  0
    9.4440    9.1935    2.6630 C   0  0  0  0  0  0  0  0  0  0  0  0
    9.7658    7.7143    2.4337 C   0  0  0  0  0  0  0  0  0  0  0  0
   11.2644    7.3644    2.5408 C   0  0  0  0  0  0  0  0  0  0  0  0
   12.1433    8.5869    2.2329 C   0  0  0  0  0  0  0  0  0  0  0  0
   13.6544    8.3400    1.9332 C   0  0  0  0  0  0  0  0  0  0  0  0
   14.0135    7.0449    1.2245 C   0  0  0  0  0  0  0  0  0  0  0  0
   14.6174    8.7741    2.9396 N   0  0  0  0  0  4  0  0  0  0  0  0
   11.8904    9.6848    3.2864 C   0  0  0  0  0  0  0  0  0  0  0  0
   10.4058   10.0816    3.4356 C   0  0  0  0  0  0  0  0  0  0  0  0
    3.5459   11.5501    7.0899 H   0  0  0  0  0  0  0  0  0  0  0  0
    4.8632   12.6960    7.5536 H   0  0  0  0  0  0  0  0  0  0  0  0
    5.0530   10.9310    7.8883 H   0  0  0  0  0  0  0  0  0  0  0  0
    5.8124   12.2820    5.4541 H   0  0  0  0  0  0  0  0  0  0  0  0
    5.2457    9.3665    3.2110 H   0  0  0  0  0  0  0  0  0  0  0  0
    5.7655   11.0860    3.2759 H   0  0  0  0  0  0  0  0  0  0  0  0
    7.6527    9.5270    4.8705 H   0  0  0  0  0  0  0  0  0  0  0  0
    9.6833    9.5857    1.6449 H   0  0  0  0  0  0  0  0  0  0  0  0
    9.2152    7.1104    3.1876 H   0  0  0  0  0  0  0  0  0  0  0  0
    9.3851    7.3989    1.4351 H   0  0  0  0  0  0  0  0  0  0  0  0
   11.4740    6.5318    1.8378 H   0  0  0  0  0  0  0  0  0  0  0  0
   11.4952    7.0010    3.5664 H   0  0  0  0  0  0  0  0  0  0  0  0
   11.7498    8.9804    1.2663 H   0  0  0  0  0  0  0  0  0  0  0  0
   13.8441    9.0654    1.1031 H   0  0  0  0  0  0  0  0  0  0  0  0
   15.0584    7.0793    0.8474 H   0  0  0  0  0  0  0  0  0  0  0  0
   13.3402    6.8740    0.3569 H   0  0  0  0  0  0  0  0  0  0  0  0
   13.9243    6.1936    1.9314 H   0  0  0  0  0  0  0  0  0  0  0  0
   15.5927    8.5554    2.6308 H   0  0  0  0  0  0  0  0  0  0  0  0
   14.5660    9.8051    3.1020 H   0  0  0  0  0  0  0  0  0  0  0  0
   14.4336    8.2664    3.8348 H   0  0  0  0  0  0  0  0  0  0  0  0
   12.2736    9.3421    4.2727 H   0  0  0  0  0  0  0  0  0  0  0  0
   12.4550   10.5998    3.0047 H   0  0  0  0  0  0  0  0  0  0  0  0
   10.1351   10.0261    4.5122 H   0  0  0  0  0  0  0  0  0  0  0  0
   10.2667   11.1445    3.1312 H   0  0  0  0  0  0  0  0  0  0  0  0
  1  2  1  0
  2  3  1  0
  3  4  2  0
  3  5  1  0
  5  6  1  0
  6  7  1  0
  7  8  2  0
  7  9  1  0
  9 10  1  0
 10 11  1  0
 11 12  1  0
 12 13  1  0
 13 14  1  0
 13 15  1  0
 12 16  1  0
 16 17  1  0
 17  9  1  0
  1 18  1  0
  1 19  1  0
  1 20  1  0
  2 21  1  0
  5 22  1  0
  5 23  1  0
  6 24  1  0
  9 25  1  0
 10 26  1  0
 10 27  1  0
 11 28  1  0
 11 29  1  0
 12 30  1  0
 13 31  1  0
 14 32  1  0
 14 33  1  0
 14 34  1  0
 15 35  1  0
 15 36  1  0
 15 37  1  0
 16 38  1  0
 16 39  1  0
 17 40  1  0
 17 41  1  0
M  CHG  1  15   1
M  END
>  <EmbedRMS>  (206) 
0.2569057114362328

$$$$

     RDKit          3D

 45 45  0  0  0  0  0  0  0  0999 V2000
    1.3162    8.6480    2.4764 C   0  0  0  0  0  0  0  0  0  0  0  0
    2.7690    8.2394    2.6571 C   0  0  0  0  0  0  0  0  0  0  0  0
    3.5588    9.3719    3.1531 N   0  0  0  0  0  0  0  0  0  0  0  0
    4.9457    8.9370    3.3408 C   0  0  0  0  0  0  0  0  0  0  0  0
    5.8111   10.0828    3.8756 C   0  0  0  0  0  0  0  0  0  0  0  0
    7.2212    9.6714    3.9388 N   0  0  0  0  0  0  0  0  0  0  0  0
    7.9871    9.5236    2.7309 C   0  0  0  0  0  0  0  0  0  0  0  0
    7.4226    9.7001    1.6228 O   0  0  0  0  0  0  0  0  0  0  0  0
    9.4479    9.1954    2.6571 C   0  0  0  0  0  0  0  0  0  0  0  0
    9.7662    7.7150    2.4336 C   0  0  0  0  0  0  0  0  0  0  0  0
   11.2648    7.3640    2.5399 C   0  0  0  0  0  0  0  0  0  0  0  0
   12.1448    8.5862    2.2323 C   0  0  0  0  0  0  0  0  0  0  0  0
   13.6556    8.3392    1.9331 C   0  0  0  0  0  0  0  0  0  0  0  0
   14.0143    7.0441    1.2245 C   0  0  0  0  0  0  0  0  0  0  0  0
   14.6184    8.7732    2.9398 N   0  0  0  0  0  4  0  0  0  0  0  0
   11.8922    9.6845    3.2853 C   0  0  0  0  0  0  0  0  0  0  0  0
   10.4083   10.0818    3.4329 C   0  0  0  0  0  0  0  0  0  0  0  0
    1.2358    9.4590    1.7217 H   0  0  0  0  0  0  0  0  0  0  0  0
    0.7229    7.7764    2.1277 H   0  0  0  0  0  0  0  0  0  0  0  0
    0.8974    9.0039    3.4416 H   0  0  0  0  0  0  0  0  0  0  0  0
    2.8047    7.3991    3.3860 H   0  0  0  0  0  0  0  0  0  0  0  0
    3.1635    7.8833    1.6781 H   0  0  0  0  0  0  0  0  0  0  0  0
    3.5555   10.1116    2.4109 H   0  0  0  0  0  0  0  0  0  0  0  0
    5.3566    8.5628    2.3778 H   0  0  0  0  0  0  0  0  0  0  0  0
    4.9851    8.1045    4.0788 H   0  0  0  0  0  0  0  0  0  0  0  0
    5.4617   10.3551    4.8951 H   0  0  0  0  0  0  0  0  0  0  0  0
    5.7127   10.9819    3.2288 H   0  0  0  0  0  0  0  0  0  0  0  0
    7.6863    9.5527    4.8663 H   0  0  0  0  0  0  0  0  0  0  0  0
    9.6891    9.5852    1.6385 H   0  0  0  0  0  0  0  0  0  0  0  0
    9.3835    7.3966    1.4368 H   0  0  0  0  0  0  0  0  0  0  0  0
    9.2157    7.1152    3.1908 H   0  0  0  0  0  0  0  0  0  0  0  0
   11.4737    6.5317    1.8364 H   0  0  0  0  0  0  0  0  0  0  0  0
   11.4958    6.9999    3.5652 H   0  0  0  0  0  0  0  0  0  0  0  0
   11.7524    8.9793    1.2652 H   0  0  0  0  0  0  0  0  0  0  0  0
   13.8459    9.0645    1.1030 H   0  0  0  0  0  0  0  0  0  0  0  0
   13.3413    6.8735    0.3567 H   0  0  0  0  0  0  0  0  0  0  0  0
   13.9244    6.1928    1.9314 H   0  0  0  0  0  0  0  0  0  0  0  0
   15.0594    7.0779    0.8479 H   0  0  0  0  0  0  0  0  0  0  0  0
   15.5937    8.5539    2.6315 H   0  0  0  0  0  0  0  0  0  0  0  0
   14.5676    9.8044    3.1018 H   0  0  0  0  0  0  0  0  0  0  0  0
   14.4339    8.2659    3.8350 H   0  0  0  0  0  0  0  0  0  0  0  0
   12.4575   10.5992    3.0035 H   0  0  0  0  0  0  0  0  0  0  0  0
   12.2747    9.3420    4.2719 H   0  0  0  0  0  0  0  0  0  0  0  0
   10.2702   11.1451    3.1293 H   0  0  0  0  0  0  0  0  0  0  0  0
   10.1366   10.0251    4.5091 H   0  0  0  0  0  0  0  0  0  0  0  0
  1  2  1  0
  2  3  1  0
  3  4  1  0
  4  5  1  0
  5  6  1  0
  6  7  1  0
  7  8  2  0
  7  9  1  0
  9 10  1  0
 10 11  1  0
 11 12  1  0
 12 13  1  0
 13 14  1  0
 13 15  1  0
 12 16  1  0
 16 17  1  0
 17  9  1  0
  1 18  1  0
  1 19  1  0
  1 20  1  0
  2 21  1  0
  2 22  1  0
  3 23  1  0
  4 24  1  0
  4 25  1  0
  5 26  1  0
  5 27  1  0
  6 28  1  0
  9 29  1  0
 10 30  1  0
 10 31  1  0
 11 32  1  0
 11 33  1  0
 12 34  1  0
 13 35  1  0
 14 36  1  0
 14 37  1  0
 14 38  1  0
 15 39  1  0
 15 40  1  0
 15 41  1  0
 16 42  1  0
 16 43  1  0
 17 44  1  0
 17 45  1  0
M  CHG  1  15   1
M  END
>  <EmbedRMS>  (207) 
0.25842907567579826

$$$$

     RDKit          3D

 45 46  0  0  0  0  0  0  0  0999 V2000
   13.9234    7.3284    1.0387 C   0  0  0  0  0  0  0  0  0  0  0  0
   13.7078    7.9211    2.4415 C   0  0  0  0  0  0  0  0  0  0  0  0
   14.6425    9.0270    2.6702 N   0  0  0  0  0  4  0  0  0  0  0  0
   12.2296    8.2935    2.8212 C   0  0  0  0  0  0  0  0  0  0  0  0
   11.1748    7.4151    2.1500 C   0  0  0  0  0  0  0  0  0  0  0  0
    9.7363    7.7236    2.5352 C   0  0  0  0  0  0  0  0  0  0  0  0
    9.4519    9.2036    2.6236 C   0  0  0  0  0  0  0  0  0  0  0  0
    7.9915    9.5358    2.7190 C   0  0  0  0  0  0  0  0  0  0  0  0
    7.4120    9.6818    1.6162 O   0  0  0  0  0  0  0  0  0  0  0  0
    7.2350    9.6955    3.9307 N   0  0  0  0  0  0  0  0  0  0  0  0
    5.8469   10.1791    3.8765 C   0  0  0  0  0  0  0  0  0  0  0  0
    5.8178   11.6565    3.5733 C   0  0  0  0  0  0  0  0  0  0  0  0
    5.5838   12.1324    2.2700 C   0  0  0  0  0  0  0  0  0  0  0  0
    5.6158   13.5065    2.0056 C   0  0  0  0  0  0  0  0  0  0  0  0
    5.8776   14.4125    3.0374 C   0  0  0  0  0  0  0  0  0  0  0  0
    6.1100   13.9476    4.3362 C   0  0  0  0  0  0  0  0  0  0  0  0
    6.3690   14.8561    5.3589 O   0  0  0  0  0  0  0  0  0  0  0  0
    6.0842   12.5728    4.6002 C   0  0  0  0  0  0  0  0  0  0  0  0
   10.4238   10.0509    3.4137 C   0  0  0  0  0  0  0  0  0  0  0  0
   11.8790    9.7843    2.9967 C   0  0  0  0  0  0  0  0  0  0  0  0
   13.3792    6.3675    0.9251 H   0  0  0  0  0  0  0  0  0  0  0  0
   13.5736    8.0448    0.2655 H   0  0  0  0  0  0  0  0  0  0  0  0
   15.0005    7.1188    0.8658 H   0  0  0  0  0  0  0  0  0  0  0  0
   14.0115    7.0971    3.1302 H   0  0  0  0  0  0  0  0  0  0  0  0
   15.6234    8.7092    2.4930 H   0  0  0  0  0  0  0  0  0  0  0  0
   14.5979    9.3372    3.6676 H   0  0  0  0  0  0  0  0  0  0  0  0
   14.4336    9.8275    2.0307 H   0  0  0  0  0  0  0  0  0  0  0  0
   12.1629    7.9506    3.8811 H   0  0  0  0  0  0  0  0  0  0  0  0
   11.3811    6.3420    2.3598 H   0  0  0  0  0  0  0  0  0  0  0  0
   11.2480    7.5622    1.0509 H   0  0  0  0  0  0  0  0  0  0  0  0
    9.0518    7.2388    1.8032 H   0  0  0  0  0  0  0  0  0  0  0  0
    9.5317    7.2730    3.5310 H   0  0  0  0  0  0  0  0  0  0  0  0
    9.7032    9.5358    1.5855 H   0  0  0  0  0  0  0  0  0  0  0  0
    7.6851    9.5036    4.8534 H   0  0  0  0  0  0  0  0  0  0  0  0
    5.3598    9.9973    4.8591 H   0  0  0  0  0  0  0  0  0  0  0  0
    5.2687    9.6024    3.1218 H   0  0  0  0  0  0  0  0  0  0  0  0
    5.3778   11.4425    1.4617 H   0  0  0  0  0  0  0  0  0  0  0  0
    5.4362   13.8681    1.0014 H   0  0  0  0  0  0  0  0  0  0  0  0
    5.8995   15.4745    2.8286 H   0  0  0  0  0  0  0  0  0  0  0  0
    6.5423   14.5501    6.3093 H   0  0  0  0  0  0  0  0  0  0  0  0
    6.2787   12.2178    5.6051 H   0  0  0  0  0  0  0  0  0  0  0  0
   10.1917   11.1307    3.2792 H   0  0  0  0  0  0  0  0  0  0  0  0
   10.3070    9.8091    4.4923 H   0  0  0  0  0  0  0  0  0  0  0  0
   12.5374   10.2609    3.7534 H   0  0  0  0  0  0  0  0  0  0  0  0
   12.0585   10.2955    2.0260 H   0  0  0  0  0  0  0  0  0  0  0  0
  1  2  1  0
  2  3  1  0
  2  4  1  0
  4  5  1  0
  5  6  1  0
  6  7  1  0
  7  8  1  0
  8  9  2  0
  8 10  1  0
 10 11  1  0
 11 12  1  0
 12 13  2  0
 13 14  1  0
 14 15  2  0
 15 16  1  0
 16 17  1  0
 16 18  2  0
  7 19  1  0
 19 20  1  0
 20  4  1  0
 18 12  1  0
  1 21  1  0
  1 22  1  0
  1 23  1  0
  2 24  1  0
  3 25  1  0
  3 26  1  0
  3 27  1  0
  4 28  1  0
  5 29  1  0
  5 30  1  0
  6 31  1  0
  6 32  1  0
  7 33  1  0
 10 34  1  0
 11 35  1  0
 11 36  1  0
 13 37  1  0
 14 38  1  0
 15 39  1  0
 17 40  1  0
 18 41  1  0
 19 42  1  0
 19 43  1  0
 20 44  1  0
 20 45  1  0
M  CHG  1   3   1
M  END
>  <EmbedRMS>  (208) 
0.24874902131530774

$$$$

     RDKit          3D

 37 37  0  0  0  0  0  0  0  0999 V2000
   14.0270    7.2302    1.0861 C   0  0  0  0  0  0  0  0  0  0  0  0
   13.6446    7.9630    2.3849 C   0  0  0  0  0  0  0  0  0  0  0  0
   14.6261    9.0247    2.6471 N   0  0  0  0  0  4  0  0  0  0  0  0
   12.1803    8.5087    2.2952 C   0  0  0  0  0  0  0  0  0  0  0  0
   11.1960    7.3505    2.5408 C   0  0  0  0  0  0  0  0  0  0  0  0
    9.7321    7.7439    2.3735 C   0  0  0  0  0  0  0  0  0  0  0  0
    9.4455    9.2141    2.6403 C   0  0  0  0  0  0  0  0  0  0  0  0
    7.9793    9.5380    2.7262 C   0  0  0  0  0  0  0  0  0  0  0  0
    7.4208    9.7322    1.6198 O   0  0  0  0  0  0  0  0  0  0  0  0
    7.2067    9.6550    3.9393 N   0  0  0  0  0  0  0  0  0  0  0  0
    5.7691    9.8528    3.9223 C   0  0  0  0  0  0  0  0  0  0  0  0
    5.2112   10.5968    4.8247 N   0  0  0  0  0  0  0  0  0  0  0  0
    4.8979    9.1550    2.9439 C   0  0  0  0  0  0  0  0  0  0  0  0
    5.3474    8.1916    2.2696 O   0  0  0  0  0  0  0  0  0  0  0  0
    3.5618    9.5195    2.7805 O   0  0  0  0  0  0  0  0  0  0  0  0
   10.4164   10.0748    3.4275 C   0  0  0  0  0  0  0  0  0  0  0  0
   11.8945    9.6386    3.3168 C   0  0  0  0  0  0  0  0  0  0  0  0
   15.0700    6.8542    1.1529 H   0  0  0  0  0  0  0  0  0  0  0  0
   13.3791    6.3505    0.9042 H   0  0  0  0  0  0  0  0  0  0  0  0
   13.9578    7.9171    0.2156 H   0  0  0  0  0  0  0  0  0  0  0  0
   13.7127    7.2282    3.2200 H   0  0  0  0  0  0  0  0  0  0  0  0
   14.5254    9.7978    1.9494 H   0  0  0  0  0  0  0  0  0  0  0  0
   15.5977    8.6421    2.5852 H   0  0  0  0  0  0  0  0  0  0  0  0
   14.5132    9.4000    3.6159 H   0  0  0  0  0  0  0  0  0  0  0  0
   12.0097    8.9216    1.2752 H   0  0  0  0  0  0  0  0  0  0  0  0
   11.3963    6.4999    1.8585 H   0  0  0  0  0  0  0  0  0  0  0  0
   11.3418    6.9714    3.5776 H   0  0  0  0  0  0  0  0  0  0  0  0
    9.1261    7.1284    3.0746 H   0  0  0  0  0  0  0  0  0  0  0  0
    9.3931    7.4725    1.3466 H   0  0  0  0  0  0  0  0  0  0  0  0
    9.7053    9.6204    1.6306 H   0  0  0  0  0  0  0  0  0  0  0  0
    7.7152    9.7193    4.8492 H   0  0  0  0  0  0  0  0  0  0  0  0
    5.7765   11.0880    5.5527 H   0  0  0  0  0  0  0  0  0  0  0  0
    3.1499   10.2885    3.2950 H   0  0  0  0  0  0  0  0  0  0  0  0
   10.1218   10.0318    4.4982 H   0  0  0  0  0  0  0  0  0  0  0  0
   10.3140   11.1413    3.1206 H   0  0  0  0  0  0  0  0  0  0  0  0
   12.2339    9.3033    4.3224 H   0  0  0  0  0  0  0  0  0  0  0  0
   12.4933   10.5359    3.0496 H   0  0  0  0  0  0  0  0  0  0  0  0
  1  2  1  0
  2  3  1  0
  2  4  1  0
  4  5  1  0
  5  6  1  0
  6  7  1  0
  7  8  1  0
  8  9  2  0
  8 10  1  0
 10 11  1  0
 11 12  2  3
 11 13  1  0
 13 14  2  0
 13 15  1  0
  7 16  1  0
 16 17  1  0
 17  4  1  0
  1 18  1  0
  1 19  1  0
  1 20  1  0
  2 21  1  0
  3 22  1  0
  3 23  1  0
  3 24  1  0
  4 25  1  0
  5 26  1  0
  5 27  1  0
  6 28  1  0
  6 29  1  0
  7 30  1  0
 10 31  1  0
 12 32  1  0
 15 33  1  0
 16 34  1  0
 16 35  1  0
 17 36  1  0
 17 37  1  0
M  CHG  1   3   1
M  END
>  <EmbedRMS>  (209) 
0.1813214278554041

$$$$

     RDKit          3D

 46 46  0  0  0  0  0  0  0  0999 V2000
    4.8684    8.0029    5.7541 C   0  0  0  0  0  0  0  0  0  0  0  0
    4.5476    7.8715    4.4608 C   0  0  0  0  0  0  0  0  0  0  0  0
    3.8409    6.7292    4.0806 O   0  0  0  0  0  0  0  0  0  0  0  0
    4.9288    8.9062    3.4407 C   0  0  0  0  0  0  0  0  0  0  0  0
    4.5612    8.8315    2.1399 C   0  0  0  0  0  0  0  0  0  0  0  0
    3.7525    7.7307    1.5181 C   0  0  0  0  0  0  0  0  0  0  0  0
    3.5435    8.0334   -0.2252 Cl  0  0  0  0  0  0  0  0  0  0  0  0
    5.8049   10.0818    3.8489 C   0  0  0  0  0  0  0  0  0  0  0  0
    7.2163    9.6730    3.9254 N   0  0  0  0  0  0  0  0  0  0  0  0
    7.9901    9.5374    2.7197 C   0  0  0  0  0  0  0  0  0  0  0  0
    7.4260    9.6997    1.6114 O   0  0  0  0  0  0  0  0  0  0  0  0
    9.4521    9.2127    2.6387 C   0  0  0  0  0  0  0  0  0  0  0  0
    9.7350    7.7423    2.3749 C   0  0  0  0  0  0  0  0  0  0  0  0
   11.1985    7.3489    2.5408 C   0  0  0  0  0  0  0  0  0  0  0  0
   12.1824    8.5079    2.2960 C   0  0  0  0  0  0  0  0  0  0  0  0
   13.6464    7.9623    2.3850 C   0  0  0  0  0  0  0  0  0  0  0  0
   14.0280    7.2300    1.0858 C   0  0  0  0  0  0  0  0  0  0  0  0
   14.6276    9.0243    2.6469 N   0  0  0  0  0  4  0  0  0  0  0  0
   11.8969    9.6373    3.3186 C   0  0  0  0  0  0  0  0  0  0  0  0
   10.4190   10.0729    3.4294 C   0  0  0  0  0  0  0  0  0  0  0  0
    5.4398    8.8259    6.1514 H   0  0  0  0  0  0  0  0  0  0  0  0
    4.5749    7.2416    6.4656 H   0  0  0  0  0  0  0  0  0  0  0  0
    3.5684    6.0106    4.7421 H   0  0  0  0  0  0  0  0  0  0  0  0
    4.8653    9.6293    1.4723 H   0  0  0  0  0  0  0  0  0  0  0  0
    2.7474    7.6824    1.9870 H   0  0  0  0  0  0  0  0  0  0  0  0
    4.2812    6.7610    1.6285 H   0  0  0  0  0  0  0  0  0  0  0  0
    5.4771   10.5068    4.8183 H   0  0  0  0  0  0  0  0  0  0  0  0
    5.7039   10.9347    3.1411 H   0  0  0  0  0  0  0  0  0  0  0  0
    7.6692    9.5313    4.8556 H   0  0  0  0  0  0  0  0  0  0  0  0
    9.7145    9.6188    1.6295 H   0  0  0  0  0  0  0  0  0  0  0  0
    9.1294    7.1290    3.0785 H   0  0  0  0  0  0  0  0  0  0  0  0
    9.3944    7.4694    1.3489 H   0  0  0  0  0  0  0  0  0  0  0  0
   11.3450    6.9687    3.5771 H   0  0  0  0  0  0  0  0  0  0  0  0
   11.3984    6.4992    1.8574 H   0  0  0  0  0  0  0  0  0  0  0  0
   12.0119    8.9214    1.2763 H   0  0  0  0  0  0  0  0  0  0  0  0
   13.7151    7.2274    3.2199 H   0  0  0  0  0  0  0  0  0  0  0  0
   13.9575    7.9167    0.2153 H   0  0  0  0  0  0  0  0  0  0  0  0
   13.3810    6.3496    0.9045 H   0  0  0  0  0  0  0  0  0  0  0  0
   15.0715    6.8549    1.1515 H   0  0  0  0  0  0  0  0  0  0  0  0
   14.5152    9.3992    3.6159 H   0  0  0  0  0  0  0  0  0  0  0  0
   15.5993    8.6419    2.5843 H   0  0  0  0  0  0  0  0  0  0  0  0
   14.5264    9.7976    1.9494 H   0  0  0  0  0  0  0  0  0  0  0  0
   12.2362    9.3016    4.3241 H   0  0  0  0  0  0  0  0  0  0  0  0
   12.4954   10.5349    3.0518 H   0  0  0  0  0  0  0  0  0  0  0  0
   10.3162   11.1398    3.1242 H   0  0  0  0  0  0  0  0  0  0  0  0
   10.1211   10.0268    4.4993 H   0  0  0  0  0  0  0  0  0  0  0  0
  1  2  2  3
  2  3  1  0
  2  4  1  0
  4  5  2  3
  5  6  1  0
  6  7  1  0
  4  8  1  0
  8  9  1  0
  9 10  1  0
 10 11  2  0
 10 12  1  0
 12 13  1  0
 13 14  1  0
 14 15  1  0
 15 16  1  0
 16 17  1  0
 16 18  1  0
 15 19  1  0
 19 20  1  0
 20 12  1  0
  1 21  1  0
  1 22  1  0
  3 23  1  0
  5 24  1  0
  6 25  1  0
  6 26  1  0
  8 27  1  0
  8 28  1  0
  9 29  1  0
 12 30  1  0
 13 31  1  0
 13 32  1  0
 14 33  1  0
 14 34  1  0
 15 35  1  0
 16 36  1  0
 17 37  1  0
 17 38  1  0
 17 39  1  0
 18 40  1  0
 18 41  1  0
 18 42  1  0
 19 43  1  0
 19 44  1  0
 20 45  1  0
 20 46  1  0
M  CHG  1  18   1
M  END
>  <EmbedRMS>  (210) 
0.16765923527739696

$$$$

     RDKit          3D

 44 44  0  0  0  0  0  0  0  0999 V2000
   14.0122    7.0504    1.2528 C   0  0  0  0  0  0  0  0  0  0  0  0
   13.6014    8.3242    1.9895 C   0  0  0  0  0  0  0  0  0  0  0  0
   14.7031    8.8917    2.7695 N   0  0  0  0  0  4  0  0  0  0  0  0
   12.2621    8.3269    2.7668 C   0  0  0  0  0  0  0  0  0  0  0  0
   11.1808    7.4388    2.1343 C   0  0  0  0  0  0  0  0  0  0  0  0
    9.7461    7.7259    2.5428 C   0  0  0  0  0  0  0  0  0  0  0  0
    9.4521    9.2015    2.6313 C   0  0  0  0  0  0  0  0  0  0  0  0
    7.9916    9.5235    2.7203 C   0  0  0  0  0  0  0  0  0  0  0  0
    7.4126    9.6688    1.6167 O   0  0  0  0  0  0  0  0  0  0  0  0
    7.2400    9.6875    3.9339 N   0  0  0  0  0  0  0  0  0  0  0  0
    5.8476   10.1523    3.8888 C   0  0  0  0  0  0  0  0  0  0  0  0
    5.7866   11.6348    3.4787 C   0  0  0  0  0  0  0  0  0  0  0  0
    4.3465   12.1386    3.3126 C   0  0  0  0  0  0  0  0  0  0  0  0
    3.6290   12.3298    4.6495 C   0  0  0  0  0  0  0  0  0  0  0  0
    4.2413   13.3567    5.3785 O   0  0  0  0  0  0  0  0  0  0  0  0
   10.3855   10.0198    3.4797 C   0  0  0  0  0  0  0  0  0  0  0  0
   11.8500    9.7805    3.1211 C   0  0  0  0  0  0  0  0  0  0  0  0
   13.2687    6.7646    0.4806 H   0  0  0  0  0  0  0  0  0  0  0  0
   14.1172    6.2175    1.9793 H   0  0  0  0  0  0  0  0  0  0  0  0
   14.9842    7.1925    0.7340 H   0  0  0  0  0  0  0  0  0  0  0  0
   13.4373    9.0283    1.1407 H   0  0  0  0  0  0  0  0  0  0  0  0
   14.8388    8.3412    3.6483 H   0  0  0  0  0  0  0  0  0  0  0  0
   15.5925    8.8677    2.2196 H   0  0  0  0  0  0  0  0  0  0  0  0
   14.5205    9.8921    3.0080 H   0  0  0  0  0  0  0  0  0  0  0  0
   12.4694    7.8404    3.7467 H   0  0  0  0  0  0  0  0  0  0  0  0
   11.4072    6.3663    2.3242 H   0  0  0  0  0  0  0  0  0  0  0  0
   11.2151    7.5901    1.0331 H   0  0  0  0  0  0  0  0  0  0  0  0
    9.0562    7.2342    1.8205 H   0  0  0  0  0  0  0  0  0  0  0  0
    9.5628    7.2727    3.5415 H   0  0  0  0  0  0  0  0  0  0  0  0
    9.7228    9.5602    1.6072 H   0  0  0  0  0  0  0  0  0  0  0  0
    7.6837    9.4625    4.8522 H   0  0  0  0  0  0  0  0  0  0  0  0
    5.2667    9.5248    3.1781 H   0  0  0  0  0  0  0  0  0  0  0  0
    5.4038   10.0240    4.8977 H   0  0  0  0  0  0  0  0  0  0  0  0
    6.3284   12.2520    4.2280 H   0  0  0  0  0  0  0  0  0  0  0  0
    6.3039   11.7726    2.5063 H   0  0  0  0  0  0  0  0  0  0  0  0
    3.7695   11.4279    2.6816 H   0  0  0  0  0  0  0  0  0  0  0  0
    4.3660   13.1138    2.7785 H   0  0  0  0  0  0  0  0  0  0  0  0
    3.6223   11.3875    5.2378 H   0  0  0  0  0  0  0  0  0  0  0  0
    2.5718   12.6091    4.4429 H   0  0  0  0  0  0  0  0  0  0  0  0
    3.7359   13.4294    6.2295 H   0  0  0  0  0  0  0  0  0  0  0  0
   10.1480   11.1029    3.3827 H   0  0  0  0  0  0  0  0  0  0  0  0
   10.2298    9.7354    4.5431 H   0  0  0  0  0  0  0  0  0  0  0  0
   12.4697   10.1514    3.9664 H   0  0  0  0  0  0  0  0  0  0  0  0
   12.0674   10.4408    2.2526 H   0  0  0  0  0  0  0  0  0  0  0  0
  1  2  1  0
  2  3  1  0
  2  4  1  0
  4  5  1  0
  5  6  1  0
  6  7  1  0
  7  8  1  0
  8  9  2  0
  8 10  1  0
 10 11  1  0
 11 12  1  0
 12 13  1  0
 13 14  1  0
 14 15  1  0
  7 16  1  0
 16 17  1  0
 17  4  1  0
  1 18  1  0
  1 19  1  0
  1 20  1  0
  2 21  1  0
  3 22  1  0
  3 23  1  0
  3 24  1  0
  4 25  1  0
  5 26  1  0
  5 27  1  0
  6 28  1  0
  6 29  1  0
  7 30  1  0
 10 31  1  0
 11 32  1  0
 11 33  1  0
 12 34  1  0
 12 35  1  0
 13 36  1  0
 13 37  1  0
 14 38  1  0
 14 39  1  0
 15 40  1  0
 16 41  1  0
 16 42  1  0
 17 43  1  0
 17 44  1  0
M  CHG  1   3   1
M  END
>  <EmbedRMS>  (211) 
0.3028787039700591

$$$$

     RDKit          3D

 47 48  0  0  0  0  0  0  0  0999 V2000
   13.9867    7.0996    1.1844 C   0  0  0  0  0  0  0  0  0  0  0  0
   13.5836    8.3576    1.9536 C   0  0  0  0  0  0  0  0  0  0  0  0
   14.7148    8.8852    2.7285 N   0  0  0  0  0  4  0  0  0  0  0  0
   12.2816    8.3202    2.7762 C   0  0  0  0  0  0  0  0  0  0  0  0
   11.1686    7.3051    2.4045 C   0  0  0  0  0  0  0  0  0  0  0  0
    9.8124    7.9105    2.0871 C   0  0  0  0  0  0  0  0  0  0  0  0
    9.4235    8.9759    3.1087 C   0  0  0  0  0  0  0  0  0  0  0  0
    8.0267    9.4434    2.8384 C   0  0  0  0  0  0  0  0  0  0  0  0
    7.6582    9.6749    1.6525 O   0  0  0  0  0  0  0  0  0  0  0  0
    7.1126    9.6299    3.9179 N   0  0  0  0  0  0  0  0  0  0  0  0
    5.8159   10.2347    3.6729 C   0  0  0  0  0  0  0  0  0  0  0  0
    4.6506    9.2673    3.8303 C   0  0  0  0  0  0  0  0  0  0  0  0
    3.5165    9.3945    2.8515 C   0  0  0  0  0  0  0  0  0  0  0  0
    2.5294    8.3552    3.3585 C   0  0  0  0  0  0  0  0  0  0  0  0
    3.3722    7.2636    4.0385 C   0  0  0  0  0  0  0  0  0  0  0  0
    4.7967    7.8134    4.1887 C   0  0  0  0  0  0  0  0  0  0  0  0
   10.3991   10.1442    3.0092 C   0  0  0  0  0  0  0  0  0  0  0  0
   11.8348    9.7175    3.3059 C   0  0  0  0  0  0  0  0  0  0  0  0
   13.2938    6.9113    0.3376 H   0  0  0  0  0  0  0  0  0  0  0  0
   13.9929    6.2225    1.8655 H   0  0  0  0  0  0  0  0  0  0  0  0
   15.0019    7.2144    0.7484 H   0  0  0  0  0  0  0  0  0  0  0  0
   13.3810    9.1015    1.1490 H   0  0  0  0  0  0  0  0  0  0  0  0
   15.5303    9.0580    2.0963 H   0  0  0  0  0  0  0  0  0  0  0  0
   15.0018    8.1904    3.4559 H   0  0  0  0  0  0  0  0  0  0  0  0
   14.4947    9.7899    3.1981 H   0  0  0  0  0  0  0  0  0  0  0  0
   12.6680    7.8418    3.7074 H   0  0  0  0  0  0  0  0  0  0  0  0
   11.0136    6.5964    3.2516 H   0  0  0  0  0  0  0  0  0  0  0  0
   11.4541    6.6684    1.5470 H   0  0  0  0  0  0  0  0  0  0  0  0
    9.8483    8.3480    1.0637 H   0  0  0  0  0  0  0  0  0  0  0  0
    9.0514    7.0978    2.0793 H   0  0  0  0  0  0  0  0  0  0  0  0
    9.4725    8.5381    4.1313 H   0  0  0  0  0  0  0  0  0  0  0  0
    7.3716    9.3461    4.8896 H   0  0  0  0  0  0  0  0  0  0  0  0
    5.7068   11.0980    4.3687 H   0  0  0  0  0  0  0  0  0  0  0  0
    5.7709   10.6959    2.6629 H   0  0  0  0  0  0  0  0  0  0  0  0
    4.1956    9.6669    4.7735 H   0  0  0  0  0  0  0  0  0  0  0  0
    3.8660    9.1311    1.8288 H   0  0  0  0  0  0  0  0  0  0  0  0
    3.0715   10.4140    2.8542 H   0  0  0  0  0  0  0  0  0  0  0  0
    1.9294    7.9380    2.5211 H   0  0  0  0  0  0  0  0  0  0  0  0
    1.8420    8.8191    4.1006 H   0  0  0  0  0  0  0  0  0  0  0  0
    3.3843    6.3415    3.4172 H   0  0  0  0  0  0  0  0  0  0  0  0
    2.9451    7.0165    5.0350 H   0  0  0  0  0  0  0  0  0  0  0  0
    5.4779    7.3176    3.4630 H   0  0  0  0  0  0  0  0  0  0  0  0
    5.1854    7.6744    5.2221 H   0  0  0  0  0  0  0  0  0  0  0  0
   10.3569   10.5802    1.9852 H   0  0  0  0  0  0  0  0  0  0  0  0
   10.1024   10.9444    3.7234 H   0  0  0  0  0  0  0  0  0  0  0  0
   12.4777   10.5256    2.8987 H   0  0  0  0  0  0  0  0  0  0  0  0
   11.9688    9.7495    4.4116 H   0  0  0  0  0  0  0  0  0  0  0  0
  1  2  1  0
  2  3  1  0
  2  4  1  0
  4  5  1  0
  5  6  1  0
  6  7  1  0
  7  8  1  0
  8  9  2  0
  8 10  1  0
 10 11  1  0
 11 12  1  0
 12 13  1  0
 13 14  1  0
 14 15  1  0
 15 16  1  0
  7 17  1  0
 17 18  1  0
 18  4  1  0
 16 12  1  0
  1 19  1  0
  1 20  1  0
  1 21  1  0
  2 22  1  0
  3 23  1  0
  3 24  1  0
  3 25  1  0
  4 26  1  0
  5 27  1  0
  5 28  1  0
  6 29  1  0
  6 30  1  0
  7 31  1  0
 10 32  1  0
 11 33  1  0
 11 34  1  0
 12 35  1  0
 13 36  1  0
 13 37  1  0
 14 38  1  0
 14 39  1  0
 15 40  1  0
 15 41  1  0
 16 42  1  0
 16 43  1  0
 17 44  1  0
 17 45  1  0
 18 46  1  0
 18 47  1  0
M  CHG  1   3   1
M  END
>  <EmbedRMS>  (212) 
0.2701286003923815

$$$$

     RDKit          3D

 46 47  0  0  0  0  0  0  0  0999 V2000
    4.7329   11.2548    1.2024 C   0  0  0  0  0  0  0  0  0  0  0  0
    5.3147   12.1497    2.2571 C   0  0  0  0  0  0  0  0  0  0  0  0
    5.3499   13.4895    2.0164 N   0  0  0  0  0  0  0  0  0  0  0  0
    5.8266   14.3786    2.9255 C   0  0  0  0  0  0  0  0  0  0  0  0
    6.2990   13.9311    4.1574 C   0  0  0  0  0  0  0  0  0  0  0  0
    6.2795   12.5662    4.4400 C   0  0  0  0  0  0  0  0  0  0  0  0
    5.7868   11.6525    3.4942 C   0  0  0  0  0  0  0  0  0  0  0  0
    5.7788   10.1840    3.8380 C   0  0  0  0  0  0  0  0  0  0  0  0
    7.1442    9.6945    3.9868 N   0  0  0  0  0  0  0  0  0  0  0  0
    8.0143    9.4669    2.8714 C   0  0  0  0  0  0  0  0  0  0  0  0
    7.6156    9.6838    1.6942 O   0  0  0  0  0  0  0  0  0  0  0  0
    9.4182    8.9870    3.1121 C   0  0  0  0  0  0  0  0  0  0  0  0
    9.8000    7.9217    2.0863 C   0  0  0  0  0  0  0  0  0  0  0  0
   11.1597    7.3122    2.3948 C   0  0  0  0  0  0  0  0  0  0  0  0
   12.2764    8.3218    2.7731 C   0  0  0  0  0  0  0  0  0  0  0  0
   13.5815    8.3570    1.9537 C   0  0  0  0  0  0  0  0  0  0  0  0
   13.9847    7.0983    1.1858 C   0  0  0  0  0  0  0  0  0  0  0  0
   14.7118    8.8840    2.7305 N   0  0  0  0  0  4  0  0  0  0  0  0
   11.8333    9.7200    3.3034 C   0  0  0  0  0  0  0  0  0  0  0  0
   10.3977   10.1508    3.0097 C   0  0  0  0  0  0  0  0  0  0  0  0
    3.8359   10.7352    1.5998 H   0  0  0  0  0  0  0  0  0  0  0  0
    5.4733   10.5119    0.8535 H   0  0  0  0  0  0  0  0  0  0  0  0
    4.4158   11.8532    0.3218 H   0  0  0  0  0  0  0  0  0  0  0  0
    5.8362   15.4347    2.6914 H   0  0  0  0  0  0  0  0  0  0  0  0
    6.6787   14.6355    4.8861 H   0  0  0  0  0  0  0  0  0  0  0  0
    6.6479   12.2187    5.3976 H   0  0  0  0  0  0  0  0  0  0  0  0
    5.2426    9.5589    3.0962 H   0  0  0  0  0  0  0  0  0  0  0  0
    5.2396   10.0540    4.8015 H   0  0  0  0  0  0  0  0  0  0  0  0
    7.4944    9.5026    4.9526 H   0  0  0  0  0  0  0  0  0  0  0  0
    9.4801    8.5436    4.1316 H   0  0  0  0  0  0  0  0  0  0  0  0
    9.8283    8.3622    1.0641 H   0  0  0  0  0  0  0  0  0  0  0  0
    9.0369    7.1114    2.0820 H   0  0  0  0  0  0  0  0  0  0  0  0
   11.4423    6.6851    1.5293 H   0  0  0  0  0  0  0  0  0  0  0  0
   11.0072    6.5946    3.2346 H   0  0  0  0  0  0  0  0  0  0  0  0
   12.6582    7.8402    3.7045 H   0  0  0  0  0  0  0  0  0  0  0  0
   13.3817    9.1007    1.1482 H   0  0  0  0  0  0  0  0  0  0  0  0
   13.9866    6.2213    1.8669 H   0  0  0  0  0  0  0  0  0  0  0  0
   13.2944    6.9112    0.3367 H   0  0  0  0  0  0  0  0  0  0  0  0
   15.0016    7.2109    0.7532 H   0  0  0  0  0  0  0  0  0  0  0  0
   14.4926    9.7904    3.1970 H   0  0  0  0  0  0  0  0  0  0  0  0
   15.5297    9.0531    2.1003 H   0  0  0  0  0  0  0  0  0  0  0  0
   14.9948    8.1903    3.4606 H   0  0  0  0  0  0  0  0  0  0  0  0
   12.4767   10.5266    2.8940 H   0  0  0  0  0  0  0  0  0  0  0  0
   11.9703    9.7524    4.4087 H   0  0  0  0  0  0  0  0  0  0  0  0
   10.3530   10.5869    1.9859 H   0  0  0  0  0  0  0  0  0  0  0  0
   10.1057   10.9525    3.7244 H   0  0  0  0  0  0  0  0  0  0  0  0
  1  2  1  0
  2  3  2  0
  3  4  1  0
  4  5  2  0
  5  6  1  0
  6  7  2  0
  7  8  1  0
  8  9  1  0
  9 10  1  0
 10 11  2  0
 10 12  1  0
 12 13  1  0
 13 14  1  0
 14 15  1  0
 15 16  1  0
 16 17  1  0
 16 18  1  0
 15 19  1  0
 19 20  1  0
  7  2  1  0
 20 12  1  0
  1 21  1  0
  1 22  1  0
  1 23  1  0
  4 24  1  0
  5 25  1  0
  6 26  1  0
  8 27  1  0
  8 28  1  0
  9 29  1  0
 12 30  1  0
 13 31  1  0
 13 32  1  0
 14 33  1  0
 14 34  1  0
 15 35  1  0
 16 36  1  0
 17 37  1  0
 17 38  1  0
 17 39  1  0
 18 40  1  0
 18 41  1  0
 18 42  1  0
 19 43  1  0
 19 44  1  0
 20 45  1  0
 20 46  1  0
M  CHG  1  18   1
M  END
>  <EmbedRMS>  (213) 
0.19202172219904787

$$$$

     RDKit          3D

 44 44  0  0  0  0  0  0  0  0999 V2000
    4.9333    7.7036    4.1659 C   0  0  0  0  0  0  0  0  0  0  0  0
    4.9045    8.9524    3.2876 C   0  0  0  0  0  0  0  0  0  0  0  0
    5.7889   10.0958    3.8318 C   0  0  0  0  0  0  0  0  0  0  0  0
    5.2554   10.6197    5.1741 C   0  0  0  0  0  0  0  0  0  0  0  0
    5.8949   11.8171    5.5151 O   0  0  0  0  0  0  0  0  0  0  0  0
    7.2084    9.6835    3.9261 N   0  0  0  0  0  0  0  0  0  0  0  0
    7.9865    9.5387    2.7217 C   0  0  0  0  0  0  0  0  0  0  0  0
    7.4240    9.7057    1.6124 O   0  0  0  0  0  0  0  0  0  0  0  0
    9.4488    9.2029    2.6334 C   0  0  0  0  0  0  0  0  0  0  0  0
    9.7340    7.7231    2.5393 C   0  0  0  0  0  0  0  0  0  0  0  0
   11.1728    7.4155    2.1515 C   0  0  0  0  0  0  0  0  0  0  0  0
   12.2287    8.2935    2.8219 C   0  0  0  0  0  0  0  0  0  0  0  0
   13.7069    7.9211    2.4415 C   0  0  0  0  0  0  0  0  0  0  0  0
   13.9221    7.3284    1.0386 C   0  0  0  0  0  0  0  0  0  0  0  0
   14.6418    9.0269    2.6701 N   0  0  0  0  0  4  0  0  0  0  0  0
   11.8780    9.7842    2.9981 C   0  0  0  0  0  0  0  0  0  0  0  0
   10.4235   10.0508    3.4190 C   0  0  0  0  0  0  0  0  0  0  0  0
    5.9746    7.3444    4.3063 H   0  0  0  0  0  0  0  0  0  0  0  0
    4.4722    7.9040    5.1550 H   0  0  0  0  0  0  0  0  0  0  0  0
    4.3502    6.8964    3.6745 H   0  0  0  0  0  0  0  0  0  0  0  0
    5.2338    8.6711    2.2659 H   0  0  0  0  0  0  0  0  0  0  0  0
    3.8538    9.3048    3.1974 H   0  0  0  0  0  0  0  0  0  0  0  0
    5.7113   10.9391    3.1089 H   0  0  0  0  0  0  0  0  0  0  0  0
    4.1537   10.7806    5.1235 H   0  0  0  0  0  0  0  0  0  0  0  0
    5.4521    9.8795    5.9779 H   0  0  0  0  0  0  0  0  0  0  0  0
    5.4770   12.5314    4.9663 H   0  0  0  0  0  0  0  0  0  0  0  0
    7.6748    9.5698    4.8541 H   0  0  0  0  0  0  0  0  0  0  0  0
    9.7040    9.5341    1.5958 H   0  0  0  0  0  0  0  0  0  0  0  0
    9.0484    7.2406    1.8069 H   0  0  0  0  0  0  0  0  0  0  0  0
    9.5301    7.2694    3.5339 H   0  0  0  0  0  0  0  0  0  0  0  0
   11.2446    7.5635    1.0524 H   0  0  0  0  0  0  0  0  0  0  0  0
   11.3797    6.3423    2.3600 H   0  0  0  0  0  0  0  0  0  0  0  0
   12.1626    7.9504    3.8817 H   0  0  0  0  0  0  0  0  0  0  0  0
   14.0107    7.0969    3.1300 H   0  0  0  0  0  0  0  0  0  0  0  0
   13.5723    8.0450    0.2656 H   0  0  0  0  0  0  0  0  0  0  0  0
   14.9991    7.1183    0.8656 H   0  0  0  0  0  0  0  0  0  0  0  0
   13.3773    6.3679    0.9250 H   0  0  0  0  0  0  0  0  0  0  0  0
   14.4323    9.8277    2.0311 H   0  0  0  0  0  0  0  0  0  0  0  0
   14.5980    9.3365    3.6676 H   0  0  0  0  0  0  0  0  0  0  0  0
   15.6226    8.7091    2.4919 H   0  0  0  0  0  0  0  0  0  0  0  0
   12.0553   10.2954    2.0270 H   0  0  0  0  0  0  0  0  0  0  0  0
   12.5381   10.2610    3.7531 H   0  0  0  0  0  0  0  0  0  0  0  0
   10.3098    9.8097    4.4982 H   0  0  0  0  0  0  0  0  0  0  0  0
   10.1911   11.1305    3.2846 H   0  0  0  0  0  0  0  0  0  0  0  0
  1  2  1  0
  2  3  1  0
  3  4  1  0
  4  5  1  0
  3  6  1  0
  6  7  1  0
  7  8  2  0
  7  9  1  0
  9 10  1  0
 10 11  1  0
 11 12  1  0
 12 13  1  0
 13 14  1  0
 13 15  1  0
 12 16  1  0
 16 17  1  0
 17  9  1  0
  1 18  1  0
  1 19  1  0
  1 20  1  0
  2 21  1  0
  2 22  1  0
  3 23  1  0
  4 24  1  0
  4 25  1  0
  5 26  1  0
  6 27  1  0
  9 28  1  0
 10 29  1  0
 10 30  1  0
 11 31  1  0
 11 32  1  0
 12 33  1  0
 13 34  1  0
 14 35  1  0
 14 36  1  0
 14 37  1  0
 15 38  1  0
 15 39  1  0
 15 40  1  0
 16 41  1  0
 16 42  1  0
 17 43  1  0
 17 44  1  0
M  CHG  1  15   1
M  END
>  <EmbedRMS>  (214) 
0.2685532704936459

$$$$

     RDKit          3D

 39 39  0  0  0  0  0  0  0  0999 V2000
   14.0127    7.0451    1.2248 C   0  0  0  0  0  0  0  0  0  0  0  0
   13.6534    8.3402    1.9336 C   0  0  0  0  0  0  0  0  0  0  0  0
   14.6166    8.7744    2.9398 N   0  0  0  0  0  4  0  0  0  0  0  0
   12.1421    8.5872    2.2333 C   0  0  0  0  0  0  0  0  0  0  0  0
   11.2631    7.3648    2.5412 C   0  0  0  0  0  0  0  0  0  0  0  0
    9.7642    7.7146    2.4342 C   0  0  0  0  0  0  0  0  0  0  0  0
    9.4413    9.1936    2.6654 C   0  0  0  0  0  0  0  0  0  0  0  0
    7.9760    9.5192    2.7332 C   0  0  0  0  0  0  0  0  0  0  0  0
    7.4200    9.6718    1.6177 O   0  0  0  0  0  0  0  0  0  0  0  0
    7.2009    9.6804    3.9391 N   0  0  0  0  0  0  0  0  0  0  0  0
    5.8202   10.1193    3.9018 C   0  0  0  0  0  0  0  0  0  0  0  0
    5.2453   10.3517    2.8014 O   0  0  0  0  0  0  0  0  0  0  0  0
    5.0298   10.2787    5.1624 C   0  0  0  0  0  0  0  0  0  0  0  0
    4.3802    8.9843    5.5256 C   0  0  0  0  0  0  0  0  0  0  0  0
    3.2112    8.7241    5.1316 O   0  0  0  0  0  0  0  0  0  0  0  0
    5.0878    8.0485    6.2713 O   0  0  0  0  0  0  0  0  0  0  0  0
   10.4041   10.0818    3.4369 C   0  0  0  0  0  0  0  0  0  0  0  0
   11.8890    9.6851    3.2868 C   0  0  0  0  0  0  0  0  0  0  0  0
   13.3394    6.8742    0.3573 H   0  0  0  0  0  0  0  0  0  0  0  0
   15.0576    7.0796    0.8477 H   0  0  0  0  0  0  0  0  0  0  0  0
   13.9235    6.1938    1.9317 H   0  0  0  0  0  0  0  0  0  0  0  0
   13.8429    9.0656    1.1034 H   0  0  0  0  0  0  0  0  0  0  0  0
   14.4332    8.2663    3.8348 H   0  0  0  0  0  0  0  0  0  0  0  0
   14.5646    9.8053    3.1025 H   0  0  0  0  0  0  0  0  0  0  0  0
   15.5919    8.5563    2.6307 H   0  0  0  0  0  0  0  0  0  0  0  0
   11.7486    8.9806    1.2667 H   0  0  0  0  0  0  0  0  0  0  0  0
   11.4938    7.0013    3.5667 H   0  0  0  0  0  0  0  0  0  0  0  0
   11.4727    6.5322    1.8382 H   0  0  0  0  0  0  0  0  0  0  0  0
    9.2135    7.1097    3.1870 H   0  0  0  0  0  0  0  0  0  0  0  0
    9.3839    7.4002    1.4351 H   0  0  0  0  0  0  0  0  0  0  0  0
    9.6837    9.5859    1.6480 H   0  0  0  0  0  0  0  0  0  0  0  0
    7.6558    9.4946    4.8606 H   0  0  0  0  0  0  0  0  0  0  0  0
    4.2560   11.0661    5.0295 H   0  0  0  0  0  0  0  0  0  0  0  0
    5.7006   10.6010    5.9870 H   0  0  0  0  0  0  0  0  0  0  0  0
    4.6720    7.1580    6.5167 H   0  0  0  0  0  0  0  0  0  0  0  0
   10.2648   11.1447    3.1326 H   0  0  0  0  0  0  0  0  0  0  0  0
   10.1340   10.0266    4.5136 H   0  0  0  0  0  0  0  0  0  0  0  0
   12.2727    9.3425    4.2730 H   0  0  0  0  0  0  0  0  0  0  0  0
   12.4534   10.6002    3.0049 H   0  0  0  0  0  0  0  0  0  0  0  0
  1  2  1  0
  2  3  1  0
  2  4  1  0
  4  5  1  0
  5  6  1  0
  6  7  1  0
  7  8  1  0
  8  9  2  0
  8 10  1  0
 10 11  1  0
 11 12  2  0
 11 13  1  0
 13 14  1  0
 14 15  2  0
 14 16  1  0
  7 17  1  0
 17 18  1  0
 18  4  1  0
  1 19  1  0
  1 20  1  0
  1 21  1  0
  2 22  1  0
  3 23  1  0
  3 24  1  0
  3 25  1  0
  4 26  1  0
  5 27  1  0
  5 28  1  0
  6 29  1  0
  6 30  1  0
  7 31  1  0
 10 32  1  0
 13 33  1  0
 13 34  1  0
 16 35  1  0
 17 36  1  0
 17 37  1  0
 18 38  1  0
 18 39  1  0
M  CHG  1   3   1
M  END
>  <EmbedRMS>  (215) 
0.2494386337486485

$$$$

     RDKit          3D

 47 48  0  0  0  0  0  0  0  0999 V2000
    3.3550    7.5261    0.2387 C   0  0  0  0  0  0  0  0  0  0  0  0
    3.7591    7.6796    1.6740 C   0  0  0  0  0  0  0  0  0  0  0  0
    3.4093    6.6971    2.6112 C   0  0  0  0  0  0  0  0  0  0  0  0
    3.8066    6.8249    3.9436 C   0  0  0  0  0  0  0  0  0  0  0  0
    4.5708    7.9221    4.3466 C   0  0  0  0  0  0  0  0  0  0  0  0
    4.9400    8.9082    3.4207 C   0  0  0  0  0  0  0  0  0  0  0  0
    5.8031   10.0620    3.8692 C   0  0  0  0  0  0  0  0  0  0  0  0
    7.2179    9.6630    3.9265 N   0  0  0  0  0  0  0  0  0  0  0  0
    7.9878    9.5377    2.7183 C   0  0  0  0  0  0  0  0  0  0  0  0
    7.4195    9.7037    1.6128 O   0  0  0  0  0  0  0  0  0  0  0  0
    9.4506    9.2137    2.6347 C   0  0  0  0  0  0  0  0  0  0  0  0
    9.7340    7.7427    2.3734 C   0  0  0  0  0  0  0  0  0  0  0  0
   11.1976    7.3493    2.5402 C   0  0  0  0  0  0  0  0  0  0  0  0
   12.1819    8.5080    2.2955 C   0  0  0  0  0  0  0  0  0  0  0  0
   13.6459    7.9624    2.3850 C   0  0  0  0  0  0  0  0  0  0  0  0
   14.0279    7.2300    1.0859 C   0  0  0  0  0  0  0  0  0  0  0  0
   14.6271    9.0243    2.6471 N   0  0  0  0  0  4  0  0  0  0  0  0
   11.8957    9.6374    3.3177 C   0  0  0  0  0  0  0  0  0  0  0  0
   10.4177   10.0733    3.4266 C   0  0  0  0  0  0  0  0  0  0  0  0
    4.5324    8.7801    2.0799 C   0  0  0  0  0  0  0  0  0  0  0  0
    3.2257    8.5199   -0.2406 H   0  0  0  0  0  0  0  0  0  0  0  0
    4.1392    6.9607   -0.3066 H   0  0  0  0  0  0  0  0  0  0  0  0
    2.3914    6.9791    0.1583 H   0  0  0  0  0  0  0  0  0  0  0  0
    2.8281    5.8337    2.3113 H   0  0  0  0  0  0  0  0  0  0  0  0
    3.5310    6.0656    4.6641 H   0  0  0  0  0  0  0  0  0  0  0  0
    4.8834    7.9981    5.3809 H   0  0  0  0  0  0  0  0  0  0  0  0
    5.4772   10.3905    4.8801 H   0  0  0  0  0  0  0  0  0  0  0  0
    5.6805   10.9383    3.1956 H   0  0  0  0  0  0  0  0  0  0  0  0
    7.6767    9.5107    4.8522 H   0  0  0  0  0  0  0  0  0  0  0  0
    9.7114    9.6194    1.6251 H   0  0  0  0  0  0  0  0  0  0  0  0
    9.1282    7.1304    3.0776 H   0  0  0  0  0  0  0  0  0  0  0  0
    9.3937    7.4684    1.3478 H   0  0  0  0  0  0  0  0  0  0  0  0
   11.3436    6.9693    3.5766 H   0  0  0  0  0  0  0  0  0  0  0  0
   11.3979    6.4993    1.8571 H   0  0  0  0  0  0  0  0  0  0  0  0
   12.0116    8.9214    1.2757 H   0  0  0  0  0  0  0  0  0  0  0  0
   13.7142    7.2275    3.2200 H   0  0  0  0  0  0  0  0  0  0  0  0
   13.9578    7.9167    0.2154 H   0  0  0  0  0  0  0  0  0  0  0  0
   13.3807    6.3497    0.9044 H   0  0  0  0  0  0  0  0  0  0  0  0
   15.0712    6.8547    1.1520 H   0  0  0  0  0  0  0  0  0  0  0  0
   14.5143    9.3994    3.6160 H   0  0  0  0  0  0  0  0  0  0  0  0
   14.5262    9.7975    1.9495 H   0  0  0  0  0  0  0  0  0  0  0  0
   15.5988    8.6418    2.5850 H   0  0  0  0  0  0  0  0  0  0  0  0
   12.2339    9.3016    4.3236 H   0  0  0  0  0  0  0  0  0  0  0  0
   12.4948   10.5349    3.0515 H   0  0  0  0  0  0  0  0  0  0  0  0
   10.1188   10.0277    4.4963 H   0  0  0  0  0  0  0  0  0  0  0  0
   10.3156   11.1402    3.1210 H   0  0  0  0  0  0  0  0  0  0  0  0
    4.8107    9.5360    1.3560 H   0  0  0  0  0  0  0  0  0  0  0  0
  1  2  1  0
  2  3  2  0
  3  4  1  0
  4  5  2  0
  5  6  1  0
  6  7  1  0
  7  8  1  0
  8  9  1  0
  9 10  2  0
  9 11  1  0
 11 12  1  0
 12 13  1  0
 13 14  1  0
 14 15  1  0
 15 16  1  0
 15 17  1  0
 14 18  1  0
 18 19  1  0
  6 20  2  0
 20  2  1  0
 19 11  1  0
  1 21  1  0
  1 22  1  0
  1 23  1  0
  3 24  1  0
  4 25  1  0
  5 26  1  0
  7 27  1  0
  7 28  1  0
  8 29  1  0
 11 30  1  0
 12 31  1  0
 12 32  1  0
 13 33  1  0
 13 34  1  0
 14 35  1  0
 15 36  1  0
 16 37  1  0
 16 38  1  0
 16 39  1  0
 17 40  1  0
 17 41  1  0
 17 42  1  0
 18 43  1  0
 18 44  1  0
 19 45  1  0
 19 46  1  0
 20 47  1  0
M  CHG  1  17   1
M  END
>  <EmbedRMS>  (216) 
0.16810927383701896

$$$$

     RDKit          3D

 41 41  0  0  0  0  0  0  0  0999 V2000
   14.0115    7.0506    1.2528 C   0  0  0  0  0  0  0  0  0  0  0  0
   13.6007    8.3244    1.9897 C   0  0  0  0  0  0  0  0  0  0  0  0
   14.7026    8.8917    2.7697 N   0  0  0  0  0  4  0  0  0  0  0  0
   12.2613    8.3272    2.7670 C   0  0  0  0  0  0  0  0  0  0  0  0
   11.1798    7.4395    2.1343 C   0  0  0  0  0  0  0  0  0  0  0  0
    9.7449    7.7260    2.5438 C   0  0  0  0  0  0  0  0  0  0  0  0
    9.4498    9.2016    2.6348 C   0  0  0  0  0  0  0  0  0  0  0  0
    7.9883    9.5247    2.7224 C   0  0  0  0  0  0  0  0  0  0  0  0
    7.4124    9.6708    1.6173 O   0  0  0  0  0  0  0  0  0  0  0  0
    7.2314    9.6900    3.9341 N   0  0  0  0  0  0  0  0  0  0  0  0
    5.8391   10.1600    3.8802 C   0  0  0  0  0  0  0  0  0  0  0  0
    5.7848   11.6424    3.4802 C   0  0  0  0  0  0  0  0  0  0  0  0
    4.4046   12.0986    3.3235 N   0  0  0  0  0  0  0  0  0  0  0  0
    4.0979   13.4521    2.9752 C   0  0  0  0  0  0  0  0  0  0  0  0
    5.0150   14.2987    2.8019 O   0  0  0  0  0  0  0  0  0  0  0  0
   10.3846   10.0200    3.4814 C   0  0  0  0  0  0  0  0  0  0  0  0
   11.8491    9.7807    3.1212 C   0  0  0  0  0  0  0  0  0  0  0  0
   14.9833    7.1928    0.7338 H   0  0  0  0  0  0  0  0  0  0  0  0
   14.1168    6.2176    1.9793 H   0  0  0  0  0  0  0  0  0  0  0  0
   13.2678    6.7648    0.4810 H   0  0  0  0  0  0  0  0  0  0  0  0
   13.4367    9.0286    1.1409 H   0  0  0  0  0  0  0  0  0  0  0  0
   15.5920    8.8676    2.2197 H   0  0  0  0  0  0  0  0  0  0  0  0
   14.5201    9.8921    3.0081 H   0  0  0  0  0  0  0  0  0  0  0  0
   14.8383    8.3412    3.6484 H   0  0  0  0  0  0  0  0  0  0  0  0
   12.4685    7.8405    3.7468 H   0  0  0  0  0  0  0  0  0  0  0  0
   11.4064    6.3669    2.3233 H   0  0  0  0  0  0  0  0  0  0  0  0
   11.2136    7.5916    1.0333 H   0  0  0  0  0  0  0  0  0  0  0  0
    9.5620    7.2714    3.5419 H   0  0  0  0  0  0  0  0  0  0  0  0
    9.0548    7.2351    1.8212 H   0  0  0  0  0  0  0  0  0  0  0  0
    9.7207    9.5606    1.6108 H   0  0  0  0  0  0  0  0  0  0  0  0
    7.6691    9.4627    4.8547 H   0  0  0  0  0  0  0  0  0  0  0  0
    5.2621    9.5419    3.1581 H   0  0  0  0  0  0  0  0  0  0  0  0
    5.3740   10.0392    4.8825 H   0  0  0  0  0  0  0  0  0  0  0  0
    6.3234   11.8023    2.5228 H   0  0  0  0  0  0  0  0  0  0  0  0
    6.2851   12.2470    4.2676 H   0  0  0  0  0  0  0  0  0  0  0  0
    3.6094   11.4357    3.4671 H   0  0  0  0  0  0  0  0  0  0  0  0
    3.0657   13.7552    2.8606 H   0  0  0  0  0  0  0  0  0  0  0  0
   10.1471   11.1031    3.3845 H   0  0  0  0  0  0  0  0  0  0  0  0
   10.2299    9.7359    4.5451 H   0  0  0  0  0  0  0  0  0  0  0  0
   12.4695   10.1520    3.9658 H   0  0  0  0  0  0  0  0  0  0  0  0
   12.0655   10.4407    2.2522 H   0  0  0  0  0  0  0  0  0  0  0  0
  1  2  1  0
  2  3  1  0
  2  4  1  0
  4  5  1  0
  5  6  1  0
  6  7  1  0
  7  8  1  0
  8  9  2  0
  8 10  1  0
 10 11  1  0
 11 12  1  0
 12 13  1  0
 13 14  1  0
 14 15  2  0
  7 16  1  0
 16 17  1  0
 17  4  1  0
  1 18  1  0
  1 19  1  0
  1 20  1  0
  2 21  1  0
  3 22  1  0
  3 23  1  0
  3 24  1  0
  4 25  1  0
  5 26  1  0
  5 27  1  0
  6 28  1  0
  6 29  1  0
  7 30  1  0
 10 31  1  0
 11 32  1  0
 11 33  1  0
 12 34  1  0
 12 35  1  0
 13 36  1  0
 14 37  1  0
 16 38  1  0
 16 39  1  0
 17 40  1  0
 17 41  1  0
M  CHG  1   3   1
M  END
>  <EmbedRMS>  (217) 
0.30207850723488733

$$$$

     RDKit          3D

 45 46  0  0  0  0  0  0  0  0999 V2000
   13.9234    7.3284    1.0387 C   0  0  0  0  0  0  0  0  0  0  0  0
   13.7078    7.9211    2.4415 C   0  0  0  0  0  0  0  0  0  0  0  0
   14.6425    9.0270    2.6702 N   0  0  0  0  0  4  0  0  0  0  0  0
   12.2296    8.2935    2.8212 C   0  0  0  0  0  0  0  0  0  0  0  0
   11.1748    7.4151    2.1500 C   0  0  0  0  0  0  0  0  0  0  0  0
    9.7363    7.7236    2.5352 C   0  0  0  0  0  0  0  0  0  0  0  0
    9.4519    9.2036    2.6236 C   0  0  0  0  0  0  0  0  0  0  0  0
    7.9915    9.5358    2.7190 C   0  0  0  0  0  0  0  0  0  0  0  0
    7.4120    9.6818    1.6162 O   0  0  0  0  0  0  0  0  0  0  0  0
    7.2350    9.6955    3.9307 N   0  0  0  0  0  0  0  0  0  0  0  0
    5.8469   10.1791    3.8765 C   0  0  0  0  0  0  0  0  0  0  0  0
    5.8178   11.6565    3.5733 C   0  0  0  0  0  0  0  0  0  0  0  0
    5.5838   12.1324    2.2700 C   0  0  0  0  0  0  0  0  0  0  0  0
    5.6158   13.5065    2.0056 C   0  0  0  0  0  0  0  0  0  0  0  0
    5.8776   14.4125    3.0374 C   0  0  0  0  0  0  0  0  0  0  0  0
    6.1100   13.9476    4.3362 C   0  0  0  0  0  0  0  0  0  0  0  0
    6.3690   14.8561    5.3589 O   0  0  0  0  0  0  0  0  0  0  0  0
    6.0842   12.5728    4.6002 C   0  0  0  0  0  0  0  0  0  0  0  0
   10.4238   10.0509    3.4137 C   0  0  0  0  0  0  0  0  0  0  0  0
   11.8790    9.7843    2.9967 C   0  0  0  0  0  0  0  0  0  0  0  0
   13.3792    6.3675    0.9251 H   0  0  0  0  0  0  0  0  0  0  0  0
   13.5736    8.0448    0.2655 H   0  0  0  0  0  0  0  0  0  0  0  0
   15.0005    7.1188    0.8658 H   0  0  0  0  0  0  0  0  0  0  0  0
   14.0115    7.0971    3.1302 H   0  0  0  0  0  0  0  0  0  0  0  0
   15.6234    8.7092    2.4930 H   0  0  0  0  0  0  0  0  0  0  0  0
   14.5979    9.3372    3.6676 H   0  0  0  0  0  0  0  0  0  0  0  0
   14.4336    9.8275    2.0307 H   0  0  0  0  0  0  0  0  0  0  0  0
   12.1629    7.9506    3.8811 H   0  0  0  0  0  0  0  0  0  0  0  0
   11.3811    6.3420    2.3598 H   0  0  0  0  0  0  0  0  0  0  0  0
   11.2480    7.5622    1.0509 H   0  0  0  0  0  0  0  0  0  0  0  0
    9.0518    7.2388    1.8032 H   0  0  0  0  0  0  0  0  0  0  0  0
    9.5317    7.2730    3.5310 H   0  0  0  0  0  0  0  0  0  0  0  0
    9.7032    9.5358    1.5855 H   0  0  0  0  0  0  0  0  0  0  0  0
    7.6851    9.5036    4.8534 H   0  0  0  0  0  0  0  0  0  0  0  0
    5.3598    9.9973    4.8591 H   0  0  0  0  0  0  0  0  0  0  0  0
    5.2687    9.6024    3.1218 H   0  0  0  0  0  0  0  0  0  0  0  0
    5.3778   11.4425    1.4617 H   0  0  0  0  0  0  0  0  0  0  0  0
    5.4362   13.8681    1.0014 H   0  0  0  0  0  0  0  0  0  0  0  0
    5.8995   15.4745    2.8286 H   0  0  0  0  0  0  0  0  0  0  0  0
    6.5423   14.5501    6.3093 H   0  0  0  0  0  0  0  0  0  0  0  0
    6.2787   12.2178    5.6051 H   0  0  0  0  0  0  0  0  0  0  0  0
   10.1917   11.1307    3.2792 H   0  0  0  0  0  0  0  0  0  0  0  0
   10.3070    9.8091    4.4923 H   0  0  0  0  0  0  0  0  0  0  0  0
   12.5374   10.2609    3.7534 H   0  0  0  0  0  0  0  0  0  0  0  0
   12.0585   10.2955    2.0260 H   0  0  0  0  0  0  0  0  0  0  0  0
  1  2  1  0
  2  3  1  0
  2  4  1  0
  4  5  1  0
  5  6  1  0
  6  7  1  0
  7  8  1  0
  8  9  2  0
  8 10  1  0
 10 11  1  0
 11 12  1  0
 12 13  2  0
 13 14  1  0
 14 15  2  0
 15 16  1  0
 16 17  1  0
 16 18  2  0
  7 19  1  0
 19 20  1  0
 20  4  1  0
 18 12  1  0
  1 21  1  0
  1 22  1  0
  1 23  1  0
  2 24  1  0
  3 25  1  0
  3 26  1  0
  3 27  1  0
  4 28  1  0
  5 29  1  0
  5 30  1  0
  6 31  1  0
  6 32  1  0
  7 33  1  0
 10 34  1  0
 11 35  1  0
 11 36  1  0
 13 37  1  0
 14 38  1  0
 15 39  1  0
 17 40  1  0
 18 41  1  0
 19 42  1  0
 19 43  1  0
 20 44  1  0
 20 45  1  0
M  CHG  1   3   1
M  END
>  <EmbedRMS>  (218) 
0.24874902131530774

$$$$

     RDKit          3D

 41 41  0  0  0  0  0  0  0  0999 V2000
   14.0115    7.0506    1.2528 C   0  0  0  0  0  0  0  0  0  0  0  0
   13.6007    8.3244    1.9897 C   0  0  0  0  0  0  0  0  0  0  0  0
   14.7026    8.8917    2.7697 N   0  0  0  0  0  4  0  0  0  0  0  0
   12.2613    8.3272    2.7670 C   0  0  0  0  0  0  0  0  0  0  0  0
   11.1798    7.4395    2.1343 C   0  0  0  0  0  0  0  0  0  0  0  0
    9.7449    7.7260    2.5438 C   0  0  0  0  0  0  0  0  0  0  0  0
    9.4498    9.2016    2.6348 C   0  0  0  0  0  0  0  0  0  0  0  0
    7.9883    9.5247    2.7224 C   0  0  0  0  0  0  0  0  0  0  0  0
    7.4124    9.6708    1.6173 O   0  0  0  0  0  0  0  0  0  0  0  0
    7.2314    9.6900    3.9341 N   0  0  0  0  0  0  0  0  0  0  0  0
    5.8391   10.1600    3.8802 C   0  0  0  0  0  0  0  0  0  0  0  0
    5.7848   11.6424    3.4802 C   0  0  0  0  0  0  0  0  0  0  0  0
    4.4046   12.0986    3.3235 N   0  0  0  0  0  0  0  0  0  0  0  0
    4.0979   13.4521    2.9752 C   0  0  0  0  0  0  0  0  0  0  0  0
    5.0150   14.2987    2.8019 O   0  0  0  0  0  0  0  0  0  0  0  0
   10.3846   10.0200    3.4814 C   0  0  0  0  0  0  0  0  0  0  0  0
   11.8491    9.7807    3.1212 C   0  0  0  0  0  0  0  0  0  0  0  0
   14.9833    7.1928    0.7338 H   0  0  0  0  0  0  0  0  0  0  0  0
   14.1168    6.2176    1.9793 H   0  0  0  0  0  0  0  0  0  0  0  0
   13.2678    6.7648    0.4810 H   0  0  0  0  0  0  0  0  0  0  0  0
   13.4367    9.0286    1.1409 H   0  0  0  0  0  0  0  0  0  0  0  0
   15.5920    8.8676    2.2197 H   0  0  0  0  0  0  0  0  0  0  0  0
   14.5201    9.8921    3.0081 H   0  0  0  0  0  0  0  0  0  0  0  0
   14.8383    8.3412    3.6484 H   0  0  0  0  0  0  0  0  0  0  0  0
   12.4685    7.8405    3.7468 H   0  0  0  0  0  0  0  0  0  0  0  0
   11.4064    6.3669    2.3233 H   0  0  0  0  0  0  0  0  0  0  0  0
   11.2136    7.5916    1.0333 H   0  0  0  0  0  0  0  0  0  0  0  0
    9.5620    7.2714    3.5419 H   0  0  0  0  0  0  0  0  0  0  0  0
    9.0548    7.2351    1.8212 H   0  0  0  0  0  0  0  0  0  0  0  0
    9.7207    9.5606    1.6108 H   0  0  0  0  0  0  0  0  0  0  0  0
    7.6691    9.4627    4.8547 H   0  0  0  0  0  0  0  0  0  0  0  0
    5.2621    9.5419    3.1581 H   0  0  0  0  0  0  0  0  0  0  0  0
    5.3740   10.0392    4.8825 H   0  0  0  0  0  0  0  0  0  0  0  0
    6.3234   11.8023    2.5228 H   0  0  0  0  0  0  0  0  0  0  0  0
    6.2851   12.2470    4.2676 H   0  0  0  0  0  0  0  0  0  0  0  0
    3.6094   11.4357    3.4671 H   0  0  0  0  0  0  0  0  0  0  0  0
    3.0657   13.7552    2.8606 H   0  0  0  0  0  0  0  0  0  0  0  0
   10.1471   11.1031    3.3845 H   0  0  0  0  0  0  0  0  0  0  0  0
   10.2299    9.7359    4.5451 H   0  0  0  0  0  0  0  0  0  0  0  0
   12.4695   10.1520    3.9658 H   0  0  0  0  0  0  0  0  0  0  0  0
   12.0655   10.4407    2.2522 H   0  0  0  0  0  0  0  0  0  0  0  0
  1  2  1  0
  2  3  1  0
  2  4  1  0
  4  5  1  0
  5  6  1  0
  6  7  1  0
  7  8  1  0
  8  9  2  0
  8 10  1  0
 10 11  1  0
 11 12  1  0
 12 13  1  0
 13 14  1  0
 14 15  2  0
  7 16  1  0
 16 17  1  0
 17  4  1  0
  1 18  1  0
  1 19  1  0
  1 20  1  0
  2 21  1  0
  3 22  1  0
  3 23  1  0
  3 24  1  0
  4 25  1  0
  5 26  1  0
  5 27  1  0
  6 28  1  0
  6 29  1  0
  7 30  1  0
 10 31  1  0
 11 32  1  0
 11 33  1  0
 12 34  1  0
 12 35  1  0
 13 36  1  0
 14 37  1  0
 16 38  1  0
 16 39  1  0
 17 40  1  0
 17 41  1  0
M  CHG  1   3   1
M  END
>  <EmbedRMS>  (219) 
0.30207850723488733

$$$$

     RDKit          3D

 41 41  0  0  0  0  0  0  0  0999 V2000
   14.0115    7.0506    1.2528 C   0  0  0  0  0  0  0  0  0  0  0  0
   13.6007    8.3244    1.9897 C   0  0  0  0  0  0  0  0  0  0  0  0
   14.7026    8.8917    2.7697 N   0  0  0  0  0  4  0  0  0  0  0  0
   12.2613    8.3272    2.7670 C   0  0  0  0  0  0  0  0  0  0  0  0
   11.1798    7.4395    2.1343 C   0  0  0  0  0  0  0  0  0  0  0  0
    9.7449    7.7260    2.5438 C   0  0  0  0  0  0  0  0  0  0  0  0
    9.4498    9.2016    2.6348 C   0  0  0  0  0  0  0  0  0  0  0  0
    7.9883    9.5247    2.7224 C   0  0  0  0  0  0  0  0  0  0  0  0
    7.4124    9.6708    1.6173 O   0  0  0  0  0  0  0  0  0  0  0  0
    7.2314    9.6900    3.9341 N   0  0  0  0  0  0  0  0  0  0  0  0
    5.8391   10.1600    3.8802 C   0  0  0  0  0  0  0  0  0  0  0  0
    5.7848   11.6424    3.4802 C   0  0  0  0  0  0  0  0  0  0  0  0
    4.4046   12.0986    3.3235 N   0  0  0  0  0  0  0  0  0  0  0  0
    4.0979   13.4521    2.9752 C   0  0  0  0  0  0  0  0  0  0  0  0
    5.0150   14.2987    2.8019 O   0  0  0  0  0  0  0  0  0  0  0  0
   10.3846   10.0200    3.4814 C   0  0  0  0  0  0  0  0  0  0  0  0
   11.8491    9.7807    3.1212 C   0  0  0  0  0  0  0  0  0  0  0  0
   14.9833    7.1928    0.7338 H   0  0  0  0  0  0  0  0  0  0  0  0
   14.1168    6.2176    1.9793 H   0  0  0  0  0  0  0  0  0  0  0  0
   13.2678    6.7648    0.4810 H   0  0  0  0  0  0  0  0  0  0  0  0
   13.4367    9.0286    1.1409 H   0  0  0  0  0  0  0  0  0  0  0  0
   15.5920    8.8676    2.2197 H   0  0  0  0  0  0  0  0  0  0  0  0
   14.5201    9.8921    3.0081 H   0  0  0  0  0  0  0  0  0  0  0  0
   14.8383    8.3412    3.6484 H   0  0  0  0  0  0  0  0  0  0  0  0
   12.4685    7.8405    3.7468 H   0  0  0  0  0  0  0  0  0  0  0  0
   11.4064    6.3669    2.3233 H   0  0  0  0  0  0  0  0  0  0  0  0
   11.2136    7.5916    1.0333 H   0  0  0  0  0  0  0  0  0  0  0  0
    9.5620    7.2714    3.5419 H   0  0  0  0  0  0  0  0  0  0  0  0
    9.0548    7.2351    1.8212 H   0  0  0  0  0  0  0  0  0  0  0  0
    9.7207    9.5606    1.6108 H   0  0  0  0  0  0  0  0  0  0  0  0
    7.6691    9.4627    4.8547 H   0  0  0  0  0  0  0  0  0  0  0  0
    5.2621    9.5419    3.1581 H   0  0  0  0  0  0  0  0  0  0  0  0
    5.3740   10.0392    4.8825 H   0  0  0  0  0  0  0  0  0  0  0  0
    6.3234   11.8023    2.5228 H   0  0  0  0  0  0  0  0  0  0  0  0
    6.2851   12.2470    4.2676 H   0  0  0  0  0  0  0  0  0  0  0  0
    3.6094   11.4357    3.4671 H   0  0  0  0  0  0  0  0  0  0  0  0
    3.0657   13.7552    2.8606 H   0  0  0  0  0  0  0  0  0  0  0  0
   10.1471   11.1031    3.3845 H   0  0  0  0  0  0  0  0  0  0  0  0
   10.2299    9.7359    4.5451 H   0  0  0  0  0  0  0  0  0  0  0  0
   12.4695   10.1520    3.9658 H   0  0  0  0  0  0  0  0  0  0  0  0
   12.0655   10.4407    2.2522 H   0  0  0  0  0  0  0  0  0  0  0  0
  1  2  1  0
  2  3  1  0
  2  4  1  0
  4  5  1  0
  5  6  1  0
  6  7  1  0
  7  8  1  0
  8  9  2  0
  8 10  1  0
 10 11  1  0
 11 12  1  0
 12 13  1  0
 13 14  1  0
 14 15  2  0
  7 16  1  0
 16 17  1  0
 17  4  1  0
  1 18  1  0
  1 19  1  0
  1 20  1  0
  2 21  1  0
  3 22  1  0
  3 23  1  0
  3 24  1  0
  4 25  1  0
  5 26  1  0
  5 27  1  0
  6 28  1  0
  6 29  1  0
  7 30  1  0
 10 31  1  0
 11 32  1  0
 11 33  1  0
 12 34  1  0
 12 35  1  0
 13 36  1  0
 14 37  1  0
 16 38  1  0
 16 39  1  0
 17 40  1  0
 17 41  1  0
M  CHG  1   3   1
M  END
>  <EmbedRMS>  (220) 
0.30207850723488733

$$$$

     RDKit          3D

 47 48  0  0  0  0  0  0  0  0999 V2000
    4.7298   11.2329    1.2004 C   0  0  0  0  0  0  0  0  0  0  0  0
    5.3138   12.1441    2.2473 C   0  0  0  0  0  0  0  0  0  0  0  0
    5.3511   13.5258    1.9941 C   0  0  0  0  0  0  0  0  0  0  0  0
    5.8452   14.4116    2.9519 C   0  0  0  0  0  0  0  0  0  0  0  0
    6.3088   13.9314    4.1756 C   0  0  0  0  0  0  0  0  0  0  0  0
    6.2820   12.5622    4.4445 C   0  0  0  0  0  0  0  0  0  0  0  0
    5.7871   11.6542    3.4906 C   0  0  0  0  0  0  0  0  0  0  0  0
    5.7789   10.1855    3.8378 C   0  0  0  0  0  0  0  0  0  0  0  0
    7.1442    9.6952    3.9866 N   0  0  0  0  0  0  0  0  0  0  0  0
    8.0145    9.4670    2.8714 C   0  0  0  0  0  0  0  0  0  0  0  0
    7.6166    9.6840    1.6942 O   0  0  0  0  0  0  0  0  0  0  0  0
    9.4183    8.9869    3.1124 C   0  0  0  0  0  0  0  0  0  0  0  0
    9.8000    7.9217    2.0865 C   0  0  0  0  0  0  0  0  0  0  0  0
   11.1597    7.3122    2.3949 C   0  0  0  0  0  0  0  0  0  0  0  0
   12.2765    8.3218    2.7732 C   0  0  0  0  0  0  0  0  0  0  0  0
   13.5815    8.3570    1.9537 C   0  0  0  0  0  0  0  0  0  0  0  0
   13.9847    7.0983    1.1858 C   0  0  0  0  0  0  0  0  0  0  0  0
   14.7119    8.8840    2.7305 N   0  0  0  0  0  4  0  0  0  0  0  0
   11.8334    9.7200    3.3034 C   0  0  0  0  0  0  0  0  0  0  0  0
   10.3978   10.1508    3.0099 C   0  0  0  0  0  0  0  0  0  0  0  0
    4.4124   11.7976    0.2980 H   0  0  0  0  0  0  0  0  0  0  0  0
    5.4669   10.4782    0.8713 H   0  0  0  0  0  0  0  0  0  0  0  0
    3.8312   10.7231    1.6067 H   0  0  0  0  0  0  0  0  0  0  0  0
    4.9903   13.9248    1.0540 H   0  0  0  0  0  0  0  0  0  0  0  0
    5.8669   15.4740    2.7457 H   0  0  0  0  0  0  0  0  0  0  0  0
    6.6911   14.6209    4.9172 H   0  0  0  0  0  0  0  0  0  0  0  0
    6.6471   12.2062    5.4002 H   0  0  0  0  0  0  0  0  0  0  0  0
    5.2408   10.0581    4.8023 H   0  0  0  0  0  0  0  0  0  0  0  0
    5.2411    9.5570    3.1005 H   0  0  0  0  0  0  0  0  0  0  0  0
    7.4942    9.5033    4.9525 H   0  0  0  0  0  0  0  0  0  0  0  0
    9.4800    8.5436    4.1320 H   0  0  0  0  0  0  0  0  0  0  0  0
    9.8282    8.3622    1.0643 H   0  0  0  0  0  0  0  0  0  0  0  0
    9.0370    7.1114    2.0823 H   0  0  0  0  0  0  0  0  0  0  0  0
   11.0073    6.5945    3.2346 H   0  0  0  0  0  0  0  0  0  0  0  0
   11.4423    6.6852    1.5293 H   0  0  0  0  0  0  0  0  0  0  0  0
   12.6582    7.8402    3.7046 H   0  0  0  0  0  0  0  0  0  0  0  0
   13.3817    9.1007    1.1482 H   0  0  0  0  0  0  0  0  0  0  0  0
   13.9865    6.2212    1.8669 H   0  0  0  0  0  0  0  0  0  0  0  0
   15.0016    7.2109    0.7533 H   0  0  0  0  0  0  0  0  0  0  0  0
   13.2944    6.9112    0.3366 H   0  0  0  0  0  0  0  0  0  0  0  0
   14.4926    9.7904    3.1970 H   0  0  0  0  0  0  0  0  0  0  0  0
   15.5297    9.0532    2.1003 H   0  0  0  0  0  0  0  0  0  0  0  0
   14.9949    8.1903    3.4606 H   0  0  0  0  0  0  0  0  0  0  0  0
   12.4767   10.5266    2.8940 H   0  0  0  0  0  0  0  0  0  0  0  0
   11.9705    9.7524    4.4087 H   0  0  0  0  0  0  0  0  0  0  0  0
   10.1059   10.9525    3.7245 H   0  0  0  0  0  0  0  0  0  0  0  0
   10.3530   10.5869    1.9861 H   0  0  0  0  0  0  0  0  0  0  0  0
  1  2  1  0
  2  3  2  0
  3  4  1  0
  4  5  2  0
  5  6  1  0
  6  7  2  0
  7  8  1  0
  8  9  1  0
  9 10  1  0
 10 11  2  0
 10 12  1  0
 12 13  1  0
 13 14  1  0
 14 15  1  0
 15 16  1  0
 16 17  1  0
 16 18  1  0
 15 19  1  0
 19 20  1  0
  7  2  1  0
 20 12  1  0
  1 21  1  0
  1 22  1  0
  1 23  1  0
  3 24  1  0
  4 25  1  0
  5 26  1  0
  6 27  1  0
  8 28  1  0
  8 29  1  0
  9 30  1  0
 12 31  1  0
 13 32  1  0
 13 33  1  0
 14 34  1  0
 14 35  1  0
 15 36  1  0
 16 37  1  0
 17 38  1  0
 17 39  1  0
 17 40  1  0
 18 41  1  0
 18 42  1  0
 18 43  1  0
 19 44  1  0
 19 45  1  0
 20 46  1  0
 20 47  1  0
M  CHG  1  18   1
M  END
>  <EmbedRMS>  (221) 
0.19204016474732244

$$$$

     RDKit          3D

 45 45  0  0  0  0  0  0  0  0999 V2000
   13.9237    7.3285    1.0388 C   0  0  0  0  0  0  0  0  0  0  0  0
   13.7081    7.9213    2.4416 C   0  0  0  0  0  0  0  0  0  0  0  0
   14.6427    9.0273    2.6702 N   0  0  0  0  0  4  0  0  0  0  0  0
   12.2301    8.2935    2.8214 C   0  0  0  0  0  0  0  0  0  0  0  0
   11.1755    7.4150    2.1501 C   0  0  0  0  0  0  0  0  0  0  0  0
    9.7372    7.7236    2.5349 C   0  0  0  0  0  0  0  0  0  0  0  0
    9.4534    9.2036    2.6226 C   0  0  0  0  0  0  0  0  0  0  0  0
    7.9939    9.5350    2.7178 C   0  0  0  0  0  0  0  0  0  0  0  0
    7.4130    9.6720    1.6152 O   0  0  0  0  0  0  0  0  0  0  0  0
    7.2412    9.7022    3.9300 N   0  0  0  0  0  0  0  0  0  0  0  0
    5.8625   10.2120    3.8866 C   0  0  0  0  0  0  0  0  0  0  0  0
    5.8446   11.7074    3.5972 C   0  0  0  0  0  0  0  0  0  0  0  0
    5.6994   12.1312    2.3188 C   0  0  0  0  0  0  0  0  0  0  0  0
    5.7218   13.5730    1.8851 C   0  0  0  0  0  0  0  0  0  0  0  0
    4.1622   14.3961    2.3388 S   0  0  0  0  0  0  0  0  0  0  0  0
    6.0723   12.6803    4.7398 C   0  0  0  0  0  0  0  0  0  0  0  0
    7.7289   12.5283    5.3720 Cl  0  0  0  0  0  0  0  0  0  0  0  0
    4.7793   12.4122    6.1577 Br  0  0  0  0  0  0  0  0  0  0  0  0
   10.4241   10.0509    3.4139 C   0  0  0  0  0  0  0  0  0  0  0  0
   11.8794    9.7844    2.9975 C   0  0  0  0  0  0  0  0  0  0  0  0
   15.0008    7.1192    0.8658 H   0  0  0  0  0  0  0  0  0  0  0  0
   13.3797    6.3675    0.9252 H   0  0  0  0  0  0  0  0  0  0  0  0
   13.5736    8.0447    0.2656 H   0  0  0  0  0  0  0  0  0  0  0  0
   14.0120    7.0973    3.1303 H   0  0  0  0  0  0  0  0  0  0  0  0
   15.6236    8.7095    2.4930 H   0  0  0  0  0  0  0  0  0  0  0  0
   14.4337    9.8277    2.0307 H   0  0  0  0  0  0  0  0  0  0  0  0
   14.5982    9.3375    3.6676 H   0  0  0  0  0  0  0  0  0  0  0  0
   12.1633    7.9503    3.8812 H   0  0  0  0  0  0  0  0  0  0  0  0
   11.3817    6.3419    2.3599 H   0  0  0  0  0  0  0  0  0  0  0  0
   11.2488    7.5620    1.0509 H   0  0  0  0  0  0  0  0  0  0  0  0
    9.0528    7.2386    1.8029 H   0  0  0  0  0  0  0  0  0  0  0  0
    9.5325    7.2734    3.5309 H   0  0  0  0  0  0  0  0  0  0  0  0
    9.7052    9.5362    1.5847 H   0  0  0  0  0  0  0  0  0  0  0  0
    7.6877    9.4864    4.8493 H   0  0  0  0  0  0  0  0  0  0  0  0
    5.3800   10.0091    4.8640 H   0  0  0  0  0  0  0  0  0  0  0  0
    5.2701    9.6465    3.1340 H   0  0  0  0  0  0  0  0  0  0  0  0
    5.5557   11.3977    1.5314 H   0  0  0  0  0  0  0  0  0  0  0  0
    5.8211   13.6144    0.7798 H   0  0  0  0  0  0  0  0  0  0  0  0
    6.5943   14.1094    2.3131 H   0  0  0  0  0  0  0  0  0  0  0  0
    3.3888   13.5592    1.5111 H   0  0  0  0  0  0  0  0  0  0  0  0
    5.9490   13.7370    4.4417 H   0  0  0  0  0  0  0  0  0  0  0  0
   10.1918   11.1307    3.2795 H   0  0  0  0  0  0  0  0  0  0  0  0
   10.3063    9.8091    4.4924 H   0  0  0  0  0  0  0  0  0  0  0  0
   12.5374   10.2605    3.7549 H   0  0  0  0  0  0  0  0  0  0  0  0
   12.0594   10.2961    2.0273 H   0  0  0  0  0  0  0  0  0  0  0  0
  1  2  1  0
  2  3  1  0
  2  4  1  0
  4  5  1  0
  5  6  1  0
  6  7  1  0
  7  8  1  0
  8  9  2  0
  8 10  1  0
 10 11  1  0
 11 12  1  0
 12 13  2  3
 13 14  1  0
 14 15  1  0
 12 16  1  0
 16 17  1  0
 16 18  1  0
  7 19  1  0
 19 20  1  0
 20  4  1  0
  1 21  1  0
  1 22  1  0
  1 23  1  0
  2 24  1  0
  3 25  1  0
  3 26  1  0
  3 27  1  0
  4 28  1  0
  5 29  1  0
  5 30  1  0
  6 31  1  0
  6 32  1  0
  7 33  1  0
 10 34  1  0
 11 35  1  0
 11 36  1  0
 13 37  1  0
 14 38  1  0
 14 39  1  0
 15 40  1  0
 16 41  1  0
 19 42  1  0
 19 43  1  0
 20 44  1  0
 20 45  1  0
M  CHG  1   3   1
M  END
>  <EmbedRMS>  (222) 
0.24927478121552069

$$$$

     RDKit          3D

 41 41  0  0  0  0  0  0  0  0999 V2000
    4.6460   11.6759    7.1724 C   0  0  0  0  0  0  0  0  0  0  0  0
    5.2633   11.4940    5.8659 N   0  0  0  0  0  0  0  0  0  0  0  0
    5.1493   10.2629    5.1439 C   0  0  0  0  0  0  0  0  0  0  0  0
    4.5014    9.2956    5.6277 O   0  0  0  0  0  0  0  0  0  0  0  0
    5.8086   10.1135    3.8127 C   0  0  0  0  0  0  0  0  0  0  0  0
    7.2095    9.6833    3.9371 N   0  0  0  0  0  0  0  0  0  0  0  0
    7.9808    9.5180    2.7350 C   0  0  0  0  0  0  0  0  0  0  0  0
    7.4142    9.6752    1.6244 O   0  0  0  0  0  0  0  0  0  0  0  0
    9.4440    9.1935    2.6630 C   0  0  0  0  0  0  0  0  0  0  0  0
    9.7658    7.7143    2.4337 C   0  0  0  0  0  0  0  0  0  0  0  0
   11.2644    7.3644    2.5408 C   0  0  0  0  0  0  0  0  0  0  0  0
   12.1433    8.5869    2.2329 C   0  0  0  0  0  0  0  0  0  0  0  0
   13.6544    8.3400    1.9332 C   0  0  0  0  0  0  0  0  0  0  0  0
   14.0135    7.0449    1.2245 C   0  0  0  0  0  0  0  0  0  0  0  0
   14.6174    8.7741    2.9396 N   0  0  0  0  0  4  0  0  0  0  0  0
   11.8904    9.6848    3.2864 C   0  0  0  0  0  0  0  0  0  0  0  0
   10.4058   10.0816    3.4356 C   0  0  0  0  0  0  0  0  0  0  0  0
    3.5459   11.5501    7.0899 H   0  0  0  0  0  0  0  0  0  0  0  0
    4.8632   12.6960    7.5536 H   0  0  0  0  0  0  0  0  0  0  0  0
    5.0530   10.9310    7.8883 H   0  0  0  0  0  0  0  0  0  0  0  0
    5.8124   12.2820    5.4541 H   0  0  0  0  0  0  0  0  0  0  0  0
    5.2457    9.3665    3.2110 H   0  0  0  0  0  0  0  0  0  0  0  0
    5.7655   11.0860    3.2759 H   0  0  0  0  0  0  0  0  0  0  0  0
    7.6527    9.5270    4.8705 H   0  0  0  0  0  0  0  0  0  0  0  0
    9.6833    9.5857    1.6449 H   0  0  0  0  0  0  0  0  0  0  0  0
    9.2152    7.1104    3.1876 H   0  0  0  0  0  0  0  0  0  0  0  0
    9.3851    7.3989    1.4351 H   0  0  0  0  0  0  0  0  0  0  0  0
   11.4740    6.5318    1.8378 H   0  0  0  0  0  0  0  0  0  0  0  0
   11.4952    7.0010    3.5664 H   0  0  0  0  0  0  0  0  0  0  0  0
   11.7498    8.9804    1.2663 H   0  0  0  0  0  0  0  0  0  0  0  0
   13.8441    9.0654    1.1031 H   0  0  0  0  0  0  0  0  0  0  0  0
   15.0584    7.0793    0.8474 H   0  0  0  0  0  0  0  0  0  0  0  0
   13.3402    6.8740    0.3569 H   0  0  0  0  0  0  0  0  0  0  0  0
   13.9243    6.1936    1.9314 H   0  0  0  0  0  0  0  0  0  0  0  0
   15.5927    8.5554    2.6308 H   0  0  0  0  0  0  0  0  0  0  0  0
   14.5660    9.8051    3.1020 H   0  0  0  0  0  0  0  0  0  0  0  0
   14.4336    8.2664    3.8348 H   0  0  0  0  0  0  0  0  0  0  0  0
   12.2736    9.3421    4.2727 H   0  0  0  0  0  0  0  0  0  0  0  0
   12.4550   10.5998    3.0047 H   0  0  0  0  0  0  0  0  0  0  0  0
   10.1351   10.0261    4.5122 H   0  0  0  0  0  0  0  0  0  0  0  0
   10.2667   11.1445    3.1312 H   0  0  0  0  0  0  0  0  0  0  0  0
  1  2  1  0
  2  3  1  0
  3  4  2  0
  3  5  1  0
  5  6  1  0
  6  7  1  0
  7  8  2  0
  7  9  1  0
  9 10  1  0
 10 11  1  0
 11 12  1  0
 12 13  1  0
 13 14  1  0
 13 15  1  0
 12 16  1  0
 16 17  1  0
 17  9  1  0
  1 18  1  0
  1 19  1  0
  1 20  1  0
  2 21  1  0
  5 22  1  0
  5 23  1  0
  6 24  1  0
  9 25  1  0
 10 26  1  0
 10 27  1  0
 11 28  1  0
 11 29  1  0
 12 30  1  0
 13 31  1  0
 14 32  1  0
 14 33  1  0
 14 34  1  0
 15 35  1  0
 15 36  1  0
 15 37  1  0
 16 38  1  0
 16 39  1  0
 17 40  1  0
 17 41  1  0
M  CHG  1  15   1
M  END
>  <EmbedRMS>  (223) 
0.2569057114362328

$$$$

     RDKit          3D

 42 42  0  0  0  0  0  0  0  0999 V2000
    5.0257   11.5044    7.1900 C   0  0  0  0  0  0  0  0  0  0  0  0
    5.6807   11.3994    5.8873 N   0  0  0  0  0  0  0  0  0  0  0  0
    5.1265   10.2565    5.1587 C   0  0  0  0  0  0  0  0  0  0  0  0
    5.8116   10.1025    3.8067 C   0  0  0  0  0  0  0  0  0  0  0  0
    7.2196    9.6920    3.9301 N   0  0  0  0  0  0  0  0  0  0  0  0
    7.9881    9.5294    2.7253 C   0  0  0  0  0  0  0  0  0  0  0  0
    7.4189    9.6827    1.6169 O   0  0  0  0  0  0  0  0  0  0  0  0
    9.4497    9.2030    2.6410 C   0  0  0  0  0  0  0  0  0  0  0  0
    9.7440    7.7272    2.5458 C   0  0  0  0  0  0  0  0  0  0  0  0
   11.1788    7.4404    2.1350 C   0  0  0  0  0  0  0  0  0  0  0  0
   12.2612    8.3272    2.7675 C   0  0  0  0  0  0  0  0  0  0  0  0
   13.6004    8.3243    1.9898 C   0  0  0  0  0  0  0  0  0  0  0  0
   14.0109    7.0505    1.2528 C   0  0  0  0  0  0  0  0  0  0  0  0
   14.7026    8.8916    2.7694 N   0  0  0  0  0  4  0  0  0  0  0  0
   11.8497    9.7808    3.1224 C   0  0  0  0  0  0  0  0  0  0  0  0
   10.3862   10.0203    3.4860 C   0  0  0  0  0  0  0  0  0  0  0  0
    5.2285   10.5981    7.8010 H   0  0  0  0  0  0  0  0  0  0  0  0
    5.4350   12.3806    7.7358 H   0  0  0  0  0  0  0  0  0  0  0  0
    3.9276   11.6445    7.0765 H   0  0  0  0  0  0  0  0  0  0  0  0
    5.4511   12.2713    5.3543 H   0  0  0  0  0  0  0  0  0  0  0  0
    5.2689    9.3183    5.7408 H   0  0  0  0  0  0  0  0  0  0  0  0
    4.0354   10.4024    4.9866 H   0  0  0  0  0  0  0  0  0  0  0  0
    5.7486   11.0627    3.2487 H   0  0  0  0  0  0  0  0  0  0  0  0
    5.2618    9.3309    3.2247 H   0  0  0  0  0  0  0  0  0  0  0  0
    7.6677    9.5444    4.8624 H   0  0  0  0  0  0  0  0  0  0  0  0
    9.7224    9.5622    1.6175 H   0  0  0  0  0  0  0  0  0  0  0  0
    9.0531    7.2385    1.8225 H   0  0  0  0  0  0  0  0  0  0  0  0
    9.5612    7.2703    3.5430 H   0  0  0  0  0  0  0  0  0  0  0  0
   11.2120    7.5933    1.0341 H   0  0  0  0  0  0  0  0  0  0  0  0
   11.4052    6.3675    2.3230 H   0  0  0  0  0  0  0  0  0  0  0  0
   12.4686    7.8402    3.7471 H   0  0  0  0  0  0  0  0  0  0  0  0
   13.4361    9.0284    1.1410 H   0  0  0  0  0  0  0  0  0  0  0  0
   14.1174    6.2178    1.9795 H   0  0  0  0  0  0  0  0  0  0  0  0
   13.2663    6.7641    0.4820 H   0  0  0  0  0  0  0  0  0  0  0  0
   14.9821    7.1930    0.7325 H   0  0  0  0  0  0  0  0  0  0  0  0
   14.5209    9.8925    3.0065 H   0  0  0  0  0  0  0  0  0  0  0  0
   14.8376    8.3421    3.6488 H   0  0  0  0  0  0  0  0  0  0  0  0
   15.5921    8.8661    2.2197 H   0  0  0  0  0  0  0  0  0  0  0  0
   12.4719   10.1522    3.9657 H   0  0  0  0  0  0  0  0  0  0  0  0
   12.0645   10.4406    2.2528 H   0  0  0  0  0  0  0  0  0  0  0  0
   10.1489   11.1035    3.3905 H   0  0  0  0  0  0  0  0  0  0  0  0
   10.2335    9.7353    4.5497 H   0  0  0  0  0  0  0  0  0  0  0  0
  1  2  1  0
  2  3  1  0
  3  4  1  0
  4  5  1  0
  5  6  1  0
  6  7  2  0
  6  8  1  0
  8  9  1  0
  9 10  1  0
 10 11  1  0
 11 12  1  0
 12 13  1  0
 12 14  1  0
 11 15  1  0
 15 16  1  0
 16  8  1  0
  1 17  1  0
  1 18  1  0
  1 19  1  0
  2 20  1  0
  3 21  1  0
  3 22  1  0
  4 23  1  0
  4 24  1  0
  5 25  1  0
  8 26  1  0
  9 27  1  0
  9 28  1  0
 10 29  1  0
 10 30  1  0
 11 31  1  0
 12 32  1  0
 13 33  1  0
 13 34  1  0
 13 35  1  0
 14 36  1  0
 14 37  1  0
 14 38  1  0
 15 39  1  0
 15 40  1  0
 16 41  1  0
 16 42  1  0
M  CHG  1  14   1
M  END
>  <EmbedRMS>  (224) 
0.31072278256227437

$$$$

     RDKit          3D

 39 39  0  0  0  0  0  0  0  0999 V2000
   13.9844    7.0987    1.1852 C   0  0  0  0  0  0  0  0  0  0  0  0
   13.5813    8.3571    1.9535 C   0  0  0  0  0  0  0  0  0  0  0  0
   14.7119    8.8837    2.7303 N   0  0  0  0  0  4  0  0  0  0  0  0
   12.2764    8.3213    2.7731 C   0  0  0  0  0  0  0  0  0  0  0  0
   11.1594    7.3119    2.3952 C   0  0  0  0  0  0  0  0  0  0  0  0
    9.8012    7.9221    2.0807 C   0  0  0  0  0  0  0  0  0  0  0  0
    9.4171    8.9887    3.1032 C   0  0  0  0  0  0  0  0  0  0  0  0
    8.0126    9.4691    2.8593 C   0  0  0  0  0  0  0  0  0  0  0  0
    7.6068    9.6854    1.6829 O   0  0  0  0  0  0  0  0  0  0  0  0
    7.1475    9.7016    3.9728 N   0  0  0  0  0  0  0  0  0  0  0  0
    5.7671   10.1340    3.7917 C   0  0  0  0  0  0  0  0  0  0  0  0
    5.1041   10.2805    5.1224 C   0  0  0  0  0  0  0  0  0  0  0  0
    4.4861    9.3029    5.6225 O   0  0  0  0  0  0  0  0  0  0  0  0
    5.2339   11.4993    5.8568 N   0  0  0  0  0  0  0  0  0  0  0  0
    4.6682   11.6309    7.0797 O   0  0  0  0  0  0  0  0  0  0  0  0
   10.3985   10.1512    3.0055 C   0  0  0  0  0  0  0  0  0  0  0  0
   11.8327    9.7189    3.3043 C   0  0  0  0  0  0  0  0  0  0  0  0
   13.9874    6.2216    1.8663 H   0  0  0  0  0  0  0  0  0  0  0  0
   13.2934    6.9113    0.3368 H   0  0  0  0  0  0  0  0  0  0  0  0
   15.0009    7.2118    0.7517 H   0  0  0  0  0  0  0  0  0  0  0  0
   13.3813    9.1012    1.1484 H   0  0  0  0  0  0  0  0  0  0  0  0
   14.4930    9.7897    3.1976 H   0  0  0  0  0  0  0  0  0  0  0  0
   15.5295    9.0532    2.1000 H   0  0  0  0  0  0  0  0  0  0  0  0
   14.9952    8.1895    3.4598 H   0  0  0  0  0  0  0  0  0  0  0  0
   12.6588    7.8393    3.7041 H   0  0  0  0  0  0  0  0  0  0  0  0
   11.0033    6.5979    3.2375 H   0  0  0  0  0  0  0  0  0  0  0  0
   11.4437    6.6806    1.5333 H   0  0  0  0  0  0  0  0  0  0  0  0
    9.8333    8.3615    1.0581 H   0  0  0  0  0  0  0  0  0  0  0  0
    9.0375    7.1125    2.0748 H   0  0  0  0  0  0  0  0  0  0  0  0
    9.4758    8.5447    4.1227 H   0  0  0  0  0  0  0  0  0  0  0  0
    7.5244    9.5559    4.9379 H   0  0  0  0  0  0  0  0  0  0  0  0
    5.7472   11.1067    3.2549 H   0  0  0  0  0  0  0  0  0  0  0  0
    5.2188    9.3835    3.1817 H   0  0  0  0  0  0  0  0  0  0  0  0
    5.7900   12.2918    5.4642 H   0  0  0  0  0  0  0  0  0  0  0  0
    3.7708   12.0137    6.9045 H   0  0  0  0  0  0  0  0  0  0  0  0
   10.1051   10.9528    3.7197 H   0  0  0  0  0  0  0  0  0  0  0  0
   10.3582   10.5878    1.9818 H   0  0  0  0  0  0  0  0  0  0  0  0
   11.9649    9.7487    4.4103 H   0  0  0  0  0  0  0  0  0  0  0  0
   12.4783   10.5258    2.8994 H   0  0  0  0  0  0  0  0  0  0  0  0
  1  2  1  0
  2  3  1  0
  2  4  1  0
  4  5  1  0
  5  6  1  0
  6  7  1  0
  7  8  1  0
  8  9  2  0
  8 10  1  0
 10 11  1  0
 11 12  1  0
 12 13  2  0
 12 14  1  0
 14 15  1  0
  7 16  1  0
 16 17  1  0
 17  4  1  0
  1 18  1  0
  1 19  1  0
  1 20  1  0
  2 21  1  0
  3 22  1  0
  3 23  1  0
  3 24  1  0
  4 25  1  0
  5 26  1  0
  5 27  1  0
  6 28  1  0
  6 29  1  0
  7 30  1  0
 10 31  1  0
 11 32  1  0
 11 33  1  0
 14 34  1  0
 15 35  1  0
 16 36  1  0
 16 37  1  0
 17 38  1  0
 17 39  1  0
M  CHG  1   3   1
M  END
>  <EmbedRMS>  (225) 
0.20786673572978834

$$$$

     RDKit          3D

 43 43  0  0  0  0  0  0  0  0999 V2000
   14.0286    7.0399    1.2340 C   0  0  0  0  0  0  0  0  0  0  0  0
   13.6698    8.3366    1.9394 C   0  0  0  0  0  0  0  0  0  0  0  0
   14.6138    8.7686    2.9623 N   0  0  0  0  0  4  0  0  0  0  0  0
   12.1585    8.5898    2.2119 C   0  0  0  0  0  0  0  0  0  0  0  0
   11.2421    7.3766    2.4527 C   0  0  0  0  0  0  0  0  0  0  0  0
    9.7901    7.8229    2.2137 C   0  0  0  0  0  0  0  0  0  0  0  0
    9.4140    8.9820    3.1552 C   0  0  0  0  0  0  0  0  0  0  0  0
    8.0174    9.4602    2.8797 C   0  0  0  0  0  0  0  0  0  0  0  0
    7.6301    9.6721    1.6953 O   0  0  0  0  0  0  0  0  0  0  0  0
    7.1364    9.6892    3.9825 N   0  0  0  0  0  0  0  0  0  0  0  0
    5.7700   10.1524    3.8083 C   0  0  0  0  0  0  0  0  0  0  0  0
    5.7620   11.6425    3.4611 C   0  0  0  0  0  0  0  0  0  0  0  0
    4.3334   12.1710    3.3019 C   0  0  0  0  0  0  0  0  0  0  0  0
    3.6197   12.3512    4.6429 C   0  0  0  0  0  0  0  0  0  0  0  0
    4.2392   13.3575    5.3844 O   0  0  0  0  0  1  0  0  0  0  0  0
   10.4068   10.1580    3.0877 C   0  0  0  0  0  0  0  0  0  0  0  0
   11.8565    9.6812    3.2538 C   0  0  0  0  0  0  0  0  0  0  0  0
   13.3774    6.8823    0.3472 H   0  0  0  0  0  0  0  0  0  0  0  0
   13.9086    6.1868    1.9344 H   0  0  0  0  0  0  0  0  0  0  0  0
   15.0836    7.0607    0.8852 H   0  0  0  0  0  0  0  0  0  0  0  0
   13.8836    9.0585    1.1114 H   0  0  0  0  0  0  0  0  0  0  0  0
   14.5964    9.8059    3.0884 H   0  0  0  0  0  0  0  0  0  0  0  0
   15.5901    8.5025    2.6972 H   0  0  0  0  0  0  0  0  0  0  0  0
   14.3783    8.3017    3.8674 H   0  0  0  0  0  0  0  0  0  0  0  0
   11.8030    9.0082    1.2371 H   0  0  0  0  0  0  0  0  0  0  0  0
   11.3724    6.9863    3.4859 H   0  0  0  0  0  0  0  0  0  0  0  0
   11.4645    6.5563    1.7400 H   0  0  0  0  0  0  0  0  0  0  0  0
    9.6596    8.1219    1.1495 H   0  0  0  0  0  0  0  0  0  0  0  0
    9.1153    6.9599    2.4049 H   0  0  0  0  0  0  0  0  0  0  0  0
    9.4505    8.5780    4.1920 H   0  0  0  0  0  0  0  0  0  0  0  0
    7.4613    9.4726    4.9521 H   0  0  0  0  0  0  0  0  0  0  0  0
    5.2719    9.5610    3.0091 H   0  0  0  0  0  0  0  0  0  0  0  0
    5.2203    9.9743    4.7548 H   0  0  0  0  0  0  0  0  0  0  0  0
    6.3049   12.2181    4.2422 H   0  0  0  0  0  0  0  0  0  0  0  0
    6.2972   11.7958    2.4996 H   0  0  0  0  0  0  0  0  0  0  0  0
    4.3704   13.1554    2.7859 H   0  0  0  0  0  0  0  0  0  0  0  0
    3.7427   11.4838    2.6571 H   0  0  0  0  0  0  0  0  0  0  0  0
    3.5948   11.4138    5.2328 H   0  0  0  0  0  0  0  0  0  0  0  0
    2.5685   12.6530    4.4506 H   0  0  0  0  0  0  0  0  0  0  0  0
   10.1723   10.8884    3.8929 H   0  0  0  0  0  0  0  0  0  0  0  0
   10.3024   10.6851    2.1127 H   0  0  0  0  0  0  0  0  0  0  0  0
   12.5089   10.5649    3.0934 H   0  0  0  0  0  0  0  0  0  0  0  0
   12.0225    9.2959    4.2838 H   0  0  0  0  0  0  0  0  0  0  0  0
  1  2  1  0
  2  3  1  0
  2  4  1  0
  4  5  1  0
  5  6  1  0
  6  7  1  0
  7  8  1  0
  8  9  2  0
  8 10  1  0
 10 11  1  0
 11 12  1  0
 12 13  1  0
 13 14  1  0
 14 15  1  0
  7 16  1  0
 16 17  1  0
 17  4  1  0
  1 18  1  0
  1 19  1  0
  1 20  1  0
  2 21  1  0
  3 22  1  0
  3 23  1  0
  3 24  1  0
  4 25  1  0
  5 26  1  0
  5 27  1  0
  6 28  1  0
  6 29  1  0
  7 30  1  0
 10 31  1  0
 11 32  1  0
 11 33  1  0
 12 34  1  0
 12 35  1  0
 13 36  1  0
 13 37  1  0
 14 38  1  0
 14 39  1  0
 16 40  1  0
 16 41  1  0
 17 42  1  0
 17 43  1  0
M  CHG  2   3   1  15  -1
M  END
>  <EmbedRMS>  (226) 
0.18860855158841386

$$$$

     RDKit          3D

 45 46  0  0  0  0  0  0  0  0999 V2000
   13.9234    7.3284    1.0387 C   0  0  0  0  0  0  0  0  0  0  0  0
   13.7078    7.9211    2.4415 C   0  0  0  0  0  0  0  0  0  0  0  0
   14.6425    9.0270    2.6702 N   0  0  0  0  0  4  0  0  0  0  0  0
   12.2296    8.2935    2.8212 C   0  0  0  0  0  0  0  0  0  0  0  0
   11.1748    7.4151    2.1500 C   0  0  0  0  0  0  0  0  0  0  0  0
    9.7363    7.7236    2.5352 C   0  0  0  0  0  0  0  0  0  0  0  0
    9.4519    9.2036    2.6236 C   0  0  0  0  0  0  0  0  0  0  0  0
    7.9915    9.5358    2.7190 C   0  0  0  0  0  0  0  0  0  0  0  0
    7.4120    9.6818    1.6162 O   0  0  0  0  0  0  0  0  0  0  0  0
    7.2350    9.6955    3.9307 N   0  0  0  0  0  0  0  0  0  0  0  0
    5.8469   10.1791    3.8765 C   0  0  0  0  0  0  0  0  0  0  0  0
    5.8178   11.6565    3.5733 C   0  0  0  0  0  0  0  0  0  0  0  0
    5.5838   12.1324    2.2700 C   0  0  0  0  0  0  0  0  0  0  0  0
    5.6158   13.5065    2.0056 C   0  0  0  0  0  0  0  0  0  0  0  0
    5.8776   14.4125    3.0374 C   0  0  0  0  0  0  0  0  0  0  0  0
    6.1100   13.9476    4.3362 C   0  0  0  0  0  0  0  0  0  0  0  0
    6.3690   14.8561    5.3589 O   0  0  0  0  0  0  0  0  0  0  0  0
    6.0842   12.5728    4.6002 C   0  0  0  0  0  0  0  0  0  0  0  0
   10.4238   10.0509    3.4137 C   0  0  0  0  0  0  0  0  0  0  0  0
   11.8790    9.7843    2.9967 C   0  0  0  0  0  0  0  0  0  0  0  0
   13.3792    6.3675    0.9251 H   0  0  0  0  0  0  0  0  0  0  0  0
   13.5736    8.0448    0.2655 H   0  0  0  0  0  0  0  0  0  0  0  0
   15.0005    7.1188    0.8658 H   0  0  0  0  0  0  0  0  0  0  0  0
   14.0115    7.0971    3.1302 H   0  0  0  0  0  0  0  0  0  0  0  0
   15.6234    8.7092    2.4930 H   0  0  0  0  0  0  0  0  0  0  0  0
   14.5979    9.3372    3.6676 H   0  0  0  0  0  0  0  0  0  0  0  0
   14.4336    9.8275    2.0307 H   0  0  0  0  0  0  0  0  0  0  0  0
   12.1629    7.9506    3.8811 H   0  0  0  0  0  0  0  0  0  0  0  0
   11.3811    6.3420    2.3598 H   0  0  0  0  0  0  0  0  0  0  0  0
   11.2480    7.5622    1.0509 H   0  0  0  0  0  0  0  0  0  0  0  0
    9.0518    7.2388    1.8032 H   0  0  0  0  0  0  0  0  0  0  0  0
    9.5317    7.2730    3.5310 H   0  0  0  0  0  0  0  0  0  0  0  0
    9.7032    9.5358    1.5855 H   0  0  0  0  0  0  0  0  0  0  0  0
    7.6851    9.5036    4.8534 H   0  0  0  0  0  0  0  0  0  0  0  0
    5.3598    9.9973    4.8591 H   0  0  0  0  0  0  0  0  0  0  0  0
    5.2687    9.6024    3.1218 H   0  0  0  0  0  0  0  0  0  0  0  0
    5.3778   11.4425    1.4617 H   0  0  0  0  0  0  0  0  0  0  0  0
    5.4362   13.8681    1.0014 H   0  0  0  0  0  0  0  0  0  0  0  0
    5.8995   15.4745    2.8286 H   0  0  0  0  0  0  0  0  0  0  0  0
    6.5423   14.5501    6.3093 H   0  0  0  0  0  0  0  0  0  0  0  0
    6.2787   12.2178    5.6051 H   0  0  0  0  0  0  0  0  0  0  0  0
   10.1917   11.1307    3.2792 H   0  0  0  0  0  0  0  0  0  0  0  0
   10.3070    9.8091    4.4923 H   0  0  0  0  0  0  0  0  0  0  0  0
   12.5374   10.2609    3.7534 H   0  0  0  0  0  0  0  0  0  0  0  0
   12.0585   10.2955    2.0260 H   0  0  0  0  0  0  0  0  0  0  0  0
  1  2  1  0
  2  3  1  0
  2  4  1  0
  4  5  1  0
  5  6  1  0
  6  7  1  0
  7  8  1  0
  8  9  2  0
  8 10  1  0
 10 11  1  0
 11 12  1  0
 12 13  2  0
 13 14  1  0
 14 15  2  0
 15 16  1  0
 16 17  1  0
 16 18  2  0
  7 19  1  0
 19 20  1  0
 20  4  1  0
 18 12  1  0
  1 21  1  0
  1 22  1  0
  1 23  1  0
  2 24  1  0
  3 25  1  0
  3 26  1  0
  3 27  1  0
  4 28  1  0
  5 29  1  0
  5 30  1  0
  6 31  1  0
  6 32  1  0
  7 33  1  0
 10 34  1  0
 11 35  1  0
 11 36  1  0
 13 37  1  0
 14 38  1  0
 15 39  1  0
 17 40  1  0
 18 41  1  0
 19 42  1  0
 19 43  1  0
 20 44  1  0
 20 45  1  0
M  CHG  1   3   1
M  END
>  <EmbedRMS>  (227) 
0.24874902131530774

$$$$

     RDKit          3D

 46 46  0  0  0  0  0  0  0  0999 V2000
    2.3051    7.2496    3.7607 C   0  0  0  0  0  0  0  0  0  0  0  0
    2.5835    8.2584    2.6485 C   0  0  0  0  0  0  0  0  0  0  0  0
    3.4692    9.4106    3.1274 C   0  0  0  0  0  0  0  0  0  0  0  0
    4.9193    8.9668    3.3261 C   0  0  0  0  0  0  0  0  0  0  0  0
    5.7682   10.1363    3.8153 C   0  0  0  0  0  0  0  0  0  0  0  0
    7.1508    9.7119    3.9893 N   0  0  0  0  0  0  0  0  0  0  0  0
    8.0171    9.4692    2.8772 C   0  0  0  0  0  0  0  0  0  0  0  0
    7.6145    9.6885    1.6987 O   0  0  0  0  0  0  0  0  0  0  0  0
    9.4233    8.9852    3.1202 C   0  0  0  0  0  0  0  0  0  0  0  0
    9.7845    7.9361    2.0751 C   0  0  0  0  0  0  0  0  0  0  0  0
   11.1474    7.3156    2.3199 C   0  0  0  0  0  0  0  0  0  0  0  0
   12.2336    8.2986    2.7958 C   0  0  0  0  0  0  0  0  0  0  0  0
   13.7106    7.9146    2.4296 C   0  0  0  0  0  0  0  0  0  0  0  0
   13.9328    7.3323    1.0256 C   0  0  0  0  0  0  0  0  0  0  0  0
   14.6490    9.0162    2.6728 N   0  0  0  0  0  4  0  0  0  0  0  0
   11.8870    9.7889    2.9953 C   0  0  0  0  0  0  0  0  0  0  0  0
   10.3955   10.1685    3.0627 C   0  0  0  0  0  0  0  0  0  0  0  0
    1.9037    7.7594    4.6623 H   0  0  0  0  0  0  0  0  0  0  0  0
    3.2235    6.6882    4.0285 H   0  0  0  0  0  0  0  0  0  0  0  0
    1.5493    6.5163    3.4086 H   0  0  0  0  0  0  0  0  0  0  0  0
    3.0488    7.7435    1.7799 H   0  0  0  0  0  0  0  0  0  0  0  0
    1.6120    8.6795    2.3098 H   0  0  0  0  0  0  0  0  0  0  0  0
    3.0615    9.8339    4.0721 H   0  0  0  0  0  0  0  0  0  0  0  0
    3.4418   10.2134    2.3580 H   0  0  0  0  0  0  0  0  0  0  0  0
    4.9759    8.1564    4.0830 H   0  0  0  0  0  0  0  0  0  0  0  0
    5.3205    8.5813    2.3642 H   0  0  0  0  0  0  0  0  0  0  0  0
    5.3733   10.4943    4.7916 H   0  0  0  0  0  0  0  0  0  0  0  0
    5.7239   10.9832    3.0957 H   0  0  0  0  0  0  0  0  0  0  0  0
    7.5294    9.6311    4.9600 H   0  0  0  0  0  0  0  0  0  0  0  0
    9.4828    8.5150    4.1274 H   0  0  0  0  0  0  0  0  0  0  0  0
    9.7871    8.4043    1.0643 H   0  0  0  0  0  0  0  0  0  0  0  0
    9.0193    7.1276    2.0682 H   0  0  0  0  0  0  0  0  0  0  0  0
   11.0331    6.4805    3.0501 H   0  0  0  0  0  0  0  0  0  0  0  0
   11.4304    6.8346    1.3652 H   0  0  0  0  0  0  0  0  0  0  0  0
   12.2371    8.0287    3.8803 H   0  0  0  0  0  0  0  0  0  0  0  0
   14.0078    7.0847    3.1154 H   0  0  0  0  0  0  0  0  0  0  0  0
   13.5363    6.2977    0.9558 H   0  0  0  0  0  0  0  0  0  0  0  0
   13.4425    7.9753    0.2642 H   0  0  0  0  0  0  0  0  0  0  0  0
   15.0171    7.2740    0.7917 H   0  0  0  0  0  0  0  0  0  0  0  0
   14.5098    9.7861    1.9795 H   0  0  0  0  0  0  0  0  0  0  0  0
   15.6322    8.6695    2.5837 H   0  0  0  0  0  0  0  0  0  0  0  0
   14.5414    9.3805    3.6466 H   0  0  0  0  0  0  0  0  0  0  0  0
   12.3161   10.3468    2.1360 H   0  0  0  0  0  0  0  0  0  0  0  0
   12.3933   10.1917    3.9024 H   0  0  0  0  0  0  0  0  0  0  0  0
   10.1549   10.7898    2.1695 H   0  0  0  0  0  0  0  0  0  0  0  0
   10.2218   10.8161    3.9507 H   0  0  0  0  0  0  0  0  0  0  0  0
  1  2  1  0
  2  3  1  0
  3  4  1  0
  4  5  1  0
  5  6  1  0
  6  7  1  0
  7  8  2  0
  7  9  1  0
  9 10  1  0
 10 11  1  0
 11 12  1  0
 12 13  1  0
 13 14  1  0
 13 15  1  0
 12 16  1  0
 16 17  1  0
 17  9  1  0
  1 18  1  0
  1 19  1  0
  1 20  1  0
  2 21  1  0
  2 22  1  0
  3 23  1  0
  3 24  1  0
  4 25  1  0
  4 26  1  0
  5 27  1  0
  5 28  1  0
  6 29  1  0
  9 30  1  0
 10 31  1  0
 10 32  1  0
 11 33  1  0
 11 34  1  0
 12 35  1  0
 13 36  1  0
 14 37  1  0
 14 38  1  0
 14 39  1  0
 15 40  1  0
 15 41  1  0
 15 42  1  0
 16 43  1  0
 16 44  1  0
 17 45  1  0
 17 46  1  0
M  CHG  1  15   1
M  END
>  <EmbedRMS>  (228) 
0.16933320433084326

$$$$

     RDKit          3D

 44 44  0  0  0  0  0  0  0  0999 V2000
    4.4064   12.2531    4.2498 C   0  0  0  0  0  0  0  0  0  0  0  0
    5.8266   11.7486    3.9808 C   0  0  0  0  0  0  0  0  0  0  0  0
    5.8548   10.2090    3.8957 C   0  0  0  0  0  0  0  0  0  0  0  0
    7.2354    9.7014    3.9320 N   0  0  0  0  0  0  0  0  0  0  0  0
    7.9881    9.5295    2.7199 C   0  0  0  0  0  0  0  0  0  0  0  0
    7.4116    9.6735    1.6153 O   0  0  0  0  0  0  0  0  0  0  0  0
    9.4496    9.2045    2.6326 C   0  0  0  0  0  0  0  0  0  0  0  0
    9.7437    7.7284    2.5428 C   0  0  0  0  0  0  0  0  0  0  0  0
   11.1788    7.4404    2.1344 C   0  0  0  0  0  0  0  0  0  0  0  0
   12.2608    8.3279    2.7668 C   0  0  0  0  0  0  0  0  0  0  0  0
   13.6004    8.3244    1.9897 C   0  0  0  0  0  0  0  0  0  0  0  0
   14.0110    7.0505    1.2531 C   0  0  0  0  0  0  0  0  0  0  0  0
   14.7022    8.8917    2.7697 N   0  0  0  0  0  4  0  0  0  0  0  0
   11.8489    9.7817    3.1205 C   0  0  0  0  0  0  0  0  0  0  0  0
   10.3845   10.0221    3.4799 C   0  0  0  0  0  0  0  0  0  0  0  0
    6.3738   12.3961    2.7325 C   0  0  0  0  0  0  0  0  0  0  0  0
    7.5853   13.1487    2.7860 N   0  0  0  0  0  0  0  0  0  0  0  0
    5.7637   12.2799    1.6344 O   0  0  0  0  0  0  0  0  0  0  0  0
    4.0324   11.8490    5.2147 H   0  0  0  0  0  0  0  0  0  0  0  0
    4.3997   13.3625    4.3157 H   0  0  0  0  0  0  0  0  0  0  0  0
    3.7153   11.9361    3.4391 H   0  0  0  0  0  0  0  0  0  0  0  0
    6.4495   12.0531    4.8510 H   0  0  0  0  0  0  0  0  0  0  0  0
    5.3133    9.7864    4.7700 H   0  0  0  0  0  0  0  0  0  0  0  0
    5.3215    9.8509    2.9877 H   0  0  0  0  0  0  0  0  0  0  0  0
    7.7088    9.5720    4.8539 H   0  0  0  0  0  0  0  0  0  0  0  0
    9.7210    9.5631    1.6087 H   0  0  0  0  0  0  0  0  0  0  0  0
    9.5598    7.2746    3.5411 H   0  0  0  0  0  0  0  0  0  0  0  0
    9.0536    7.2376    1.8201 H   0  0  0  0  0  0  0  0  0  0  0  0
   11.2133    7.5915    1.0333 H   0  0  0  0  0  0  0  0  0  0  0  0
   11.4046    6.3677    2.3244 H   0  0  0  0  0  0  0  0  0  0  0  0
   12.4677    7.8415    3.7468 H   0  0  0  0  0  0  0  0  0  0  0  0
   13.4366    9.0285    1.1408 H   0  0  0  0  0  0  0  0  0  0  0  0
   14.1164    6.2177    1.9798 H   0  0  0  0  0  0  0  0  0  0  0  0
   13.2672    6.7645    0.4814 H   0  0  0  0  0  0  0  0  0  0  0  0
   14.9828    7.1926    0.7338 H   0  0  0  0  0  0  0  0  0  0  0  0
   14.8376    8.3414    3.6486 H   0  0  0  0  0  0  0  0  0  0  0  0
   14.5199    9.8922    3.0078 H   0  0  0  0  0  0  0  0  0  0  0  0
   15.5917    8.8671    2.2199 H   0  0  0  0  0  0  0  0  0  0  0  0
   12.4693   10.1530    3.9652 H   0  0  0  0  0  0  0  0  0  0  0  0
   12.0661   10.4414    2.2515 H   0  0  0  0  0  0  0  0  0  0  0  0
   10.2298    9.7380    4.5436 H   0  0  0  0  0  0  0  0  0  0  0  0
   10.1474   11.1054    3.3830 H   0  0  0  0  0  0  0  0  0  0  0  0
    8.1186   13.2465    3.6782 H   0  0  0  0  0  0  0  0  0  0  0  0
    7.9639   13.5967    1.9222 H   0  0  0  0  0  0  0  0  0  0  0  0
  1  2  1  0
  2  3  1  0
  3  4  1  0
  4  5  1  0
  5  6  2  0
  5  7  1  0
  7  8  1  0
  8  9  1  0
  9 10  1  0
 10 11  1  0
 11 12  1  0
 11 13  1  0
 10 14  1  0
 14 15  1  0
  2 16  1  0
 16 17  1  0
 16 18  2  0
 15  7  1  0
  1 19  1  0
  1 20  1  0
  1 21  1  0
  2 22  1  0
  3 23  1  0
  3 24  1  0
  4 25  1  0
  7 26  1  0
  8 27  1  0
  8 28  1  0
  9 29  1  0
  9 30  1  0
 10 31  1  0
 11 32  1  0
 12 33  1  0
 12 34  1  0
 12 35  1  0
 13 36  1  0
 13 37  1  0
 13 38  1  0
 14 39  1  0
 14 40  1  0
 15 41  1  0
 15 42  1  0
 17 43  1  0
 17 44  1  0
M  CHG  1  13   1
M  END
>  <EmbedRMS>  (229) 
0.29404078451179205

$$$$

     RDKit          3D

 45 45  0  0  0  0  0  0  0  0999 V2000
    1.3162    8.6480    2.4764 C   0  0  0  0  0  0  0  0  0  0  0  0
    2.7690    8.2394    2.6571 C   0  0  0  0  0  0  0  0  0  0  0  0
    3.5588    9.3719    3.1531 N   0  0  0  0  0  0  0  0  0  0  0  0
    4.9457    8.9370    3.3408 C   0  0  0  0  0  0  0  0  0  0  0  0
    5.8111   10.0828    3.8756 C   0  0  0  0  0  0  0  0  0  0  0  0
    7.2212    9.6714    3.9388 N   0  0  0  0  0  0  0  0  0  0  0  0
    7.9871    9.5236    2.7309 C   0  0  0  0  0  0  0  0  0  0  0  0
    7.4226    9.7001    1.6228 O   0  0  0  0  0  0  0  0  0  0  0  0
    9.4479    9.1954    2.6571 C   0  0  0  0  0  0  0  0  0  0  0  0
    9.7662    7.7150    2.4336 C   0  0  0  0  0  0  0  0  0  0  0  0
   11.2648    7.3640    2.5399 C   0  0  0  0  0  0  0  0  0  0  0  0
   12.1448    8.5862    2.2323 C   0  0  0  0  0  0  0  0  0  0  0  0
   13.6556    8.3392    1.9331 C   0  0  0  0  0  0  0  0  0  0  0  0
   14.0143    7.0441    1.2245 C   0  0  0  0  0  0  0  0  0  0  0  0
   14.6184    8.7732    2.9398 N   0  0  0  0  0  4  0  0  0  0  0  0
   11.8922    9.6845    3.2853 C   0  0  0  0  0  0  0  0  0  0  0  0
   10.4083   10.0818    3.4329 C   0  0  0  0  0  0  0  0  0  0  0  0
    1.2358    9.4590    1.7217 H   0  0  0  0  0  0  0  0  0  0  0  0
    0.7229    7.7764    2.1277 H   0  0  0  0  0  0  0  0  0  0  0  0
    0.8974    9.0039    3.4416 H   0  0  0  0  0  0  0  0  0  0  0  0
    2.8047    7.3991    3.3860 H   0  0  0  0  0  0  0  0  0  0  0  0
    3.1635    7.8833    1.6781 H   0  0  0  0  0  0  0  0  0  0  0  0
    3.5555   10.1116    2.4109 H   0  0  0  0  0  0  0  0  0  0  0  0
    5.3566    8.5628    2.3778 H   0  0  0  0  0  0  0  0  0  0  0  0
    4.9851    8.1045    4.0788 H   0  0  0  0  0  0  0  0  0  0  0  0
    5.4617   10.3551    4.8951 H   0  0  0  0  0  0  0  0  0  0  0  0
    5.7127   10.9819    3.2288 H   0  0  0  0  0  0  0  0  0  0  0  0
    7.6863    9.5527    4.8663 H   0  0  0  0  0  0  0  0  0  0  0  0
    9.6891    9.5852    1.6385 H   0  0  0  0  0  0  0  0  0  0  0  0
    9.3835    7.3966    1.4368 H   0  0  0  0  0  0  0  0  0  0  0  0
    9.2157    7.1152    3.1908 H   0  0  0  0  0  0  0  0  0  0  0  0
   11.4737    6.5317    1.8364 H   0  0  0  0  0  0  0  0  0  0  0  0
   11.4958    6.9999    3.5652 H   0  0  0  0  0  0  0  0  0  0  0  0
   11.7524    8.9793    1.2652 H   0  0  0  0  0  0  0  0  0  0  0  0
   13.8459    9.0645    1.1030 H   0  0  0  0  0  0  0  0  0  0  0  0
   13.3413    6.8735    0.3567 H   0  0  0  0  0  0  0  0  0  0  0  0
   13.9244    6.1928    1.9314 H   0  0  0  0  0  0  0  0  0  0  0  0
   15.0594    7.0779    0.8479 H   0  0  0  0  0  0  0  0  0  0  0  0
   15.5937    8.5539    2.6315 H   0  0  0  0  0  0  0  0  0  0  0  0
   14.5676    9.8044    3.1018 H   0  0  0  0  0  0  0  0  0  0  0  0
   14.4339    8.2659    3.8350 H   0  0  0  0  0  0  0  0  0  0  0  0
   12.4575   10.5992    3.0035 H   0  0  0  0  0  0  0  0  0  0  0  0
   12.2747    9.3420    4.2719 H   0  0  0  0  0  0  0  0  0  0  0  0
   10.2702   11.1451    3.1293 H   0  0  0  0  0  0  0  0  0  0  0  0
   10.1366   10.0251    4.5091 H   0  0  0  0  0  0  0  0  0  0  0  0
  1  2  1  0
  2  3  1  0
  3  4  1  0
  4  5  1  0
  5  6  1  0
  6  7  1  0
  7  8  2  0
  7  9  1  0
  9 10  1  0
 10 11  1  0
 11 12  1  0
 12 13  1  0
 13 14  1  0
 13 15  1  0
 12 16  1  0
 16 17  1  0
 17  9  1  0
  1 18  1  0
  1 19  1  0
  1 20  1  0
  2 21  1  0
  2 22  1  0
  3 23  1  0
  4 24  1  0
  4 25  1  0
  5 26  1  0
  5 27  1  0
  6 28  1  0
  9 29  1  0
 10 30  1  0
 10 31  1  0
 11 32  1  0
 11 33  1  0
 12 34  1  0
 13 35  1  0
 14 36  1  0
 14 37  1  0
 14 38  1  0
 15 39  1  0
 15 40  1  0
 15 41  1  0
 16 42  1  0
 16 43  1  0
 17 44  1  0
 17 45  1  0
M  CHG  1  15   1
M  END
>  <EmbedRMS>  (230) 
0.25842907567579826

$$$$

     RDKit          3D

 48 48  0  0  0  0  0  0  0  0999 V2000
    4.8915   13.3074   -0.6287 C   0  0  0  0  0  0  0  0  0  0  0  0
    5.9776   13.0507    0.4086 C   0  0  0  0  0  0  0  0  0  0  0  0
    5.3579   12.5533    1.7080 C   0  0  0  0  0  0  0  0  0  0  0  0
    6.4036   12.3026    2.7032 N   0  0  0  0  0  0  0  0  0  0  0  0
    5.8116   11.7333    3.9200 C   0  0  0  0  0  0  0  0  0  0  0  0
    5.7860   10.2073    3.8470 C   0  0  0  0  0  0  0  0  0  0  0  0
    7.1366    9.6757    3.9898 N   0  0  0  0  0  0  0  0  0  0  0  0
    8.0105    9.4654    2.8768 C   0  0  0  0  0  0  0  0  0  0  0  0
    7.6077    9.6907    1.6997 O   0  0  0  0  0  0  0  0  0  0  0  0
    9.4201    8.9849    3.1181 C   0  0  0  0  0  0  0  0  0  0  0  0
    9.7831    7.9365    2.0731 C   0  0  0  0  0  0  0  0  0  0  0  0
   11.1462    7.3163    2.3190 C   0  0  0  0  0  0  0  0  0  0  0  0
   12.2321    8.2994    2.7953 C   0  0  0  0  0  0  0  0  0  0  0  0
   13.7095    7.9154    2.4297 C   0  0  0  0  0  0  0  0  0  0  0  0
   13.9324    7.3325    1.0260 C   0  0  0  0  0  0  0  0  0  0  0  0
   14.6477    9.0170    2.6729 N   0  0  0  0  0  4  0  0  0  0  0  0
   11.8844    9.7897    2.9954 C   0  0  0  0  0  0  0  0  0  0  0  0
   10.3919   10.1689    3.0610 C   0  0  0  0  0  0  0  0  0  0  0  0
    5.3569   13.6692   -1.5696 H   0  0  0  0  0  0  0  0  0  0  0  0
    4.3344   12.3715   -0.8479 H   0  0  0  0  0  0  0  0  0  0  0  0
    4.1823   14.0816   -0.2653 H   0  0  0  0  0  0  0  0  0  0  0  0
    6.5355   13.9946    0.5930 H   0  0  0  0  0  0  0  0  0  0  0  0
    6.6866   12.2888    0.0173 H   0  0  0  0  0  0  0  0  0  0  0  0
    4.6443   13.3210    2.0876 H   0  0  0  0  0  0  0  0  0  0  0  0
    4.7950   11.6173    1.4970 H   0  0  0  0  0  0  0  0  0  0  0  0
    6.8251   13.2269    2.9588 H   0  0  0  0  0  0  0  0  0  0  0  0
    6.4182   12.0330    4.8044 H   0  0  0  0  0  0  0  0  0  0  0  0
    4.7815   12.1178    4.1022 H   0  0  0  0  0  0  0  0  0  0  0  0
    5.3175    9.8464    2.9071 H   0  0  0  0  0  0  0  0  0  0  0  0
    5.1651    9.8266    4.6866 H   0  0  0  0  0  0  0  0  0  0  0  0
    7.4866    9.4806    4.9551 H   0  0  0  0  0  0  0  0  0  0  0  0
    9.4833    8.5141    4.1248 H   0  0  0  0  0  0  0  0  0  0  0  0
    9.0185    7.1275    2.0651 H   0  0  0  0  0  0  0  0  0  0  0  0
    9.7860    8.4054    1.0626 H   0  0  0  0  0  0  0  0  0  0  0  0
   11.0317    6.4812    3.0491 H   0  0  0  0  0  0  0  0  0  0  0  0
   11.4299    6.8353    1.3644 H   0  0  0  0  0  0  0  0  0  0  0  0
   12.2353    8.0293    3.8797 H   0  0  0  0  0  0  0  0  0  0  0  0
   14.0065    7.0857    3.1159 H   0  0  0  0  0  0  0  0  0  0  0  0
   13.5360    6.2979    0.9564 H   0  0  0  0  0  0  0  0  0  0  0  0
   13.4424    7.9752    0.2641 H   0  0  0  0  0  0  0  0  0  0  0  0
   15.0169    7.2742    0.7926 H   0  0  0  0  0  0  0  0  0  0  0  0
   14.5394    9.3818    3.6465 H   0  0  0  0  0  0  0  0  0  0  0  0
   15.6310    8.6705    2.5844 H   0  0  0  0  0  0  0  0  0  0  0  0
   14.5085    9.7867    1.9794 H   0  0  0  0  0  0  0  0  0  0  0  0
   12.3143   10.3484    2.1371 H   0  0  0  0  0  0  0  0  0  0  0  0
   12.3893   10.1921    3.9034 H   0  0  0  0  0  0  0  0  0  0  0  0
   10.1511   10.7893    2.1673 H   0  0  0  0  0  0  0  0  0  0  0  0
   10.2165   10.8170    3.9483 H   0  0  0  0  0  0  0  0  0  0  0  0
  1  2  1  0
  2  3  1  0
  3  4  1  0
  4  5  1  0
  5  6  1  0
  6  7  1  0
  7  8  1  0
  8  9  2  0
  8 10  1  0
 10 11  1  0
 11 12  1  0
 12 13  1  0
 13 14  1  0
 14 15  1  0
 14 16  1  0
 13 17  1  0
 17 18  1  0
 18 10  1  0
  1 19  1  0
  1 20  1  0
  1 21  1  0
  2 22  1  0
  2 23  1  0
  3 24  1  0
  3 25  1  0
  4 26  1  0
  5 27  1  0
  5 28  1  0
  6 29  1  0
  6 30  1  0
  7 31  1  0
 10 32  1  0
 11 33  1  0
 11 34  1  0
 12 35  1  0
 12 36  1  0
 13 37  1  0
 14 38  1  0
 15 39  1  0
 15 40  1  0
 15 41  1  0
 16 42  1  0
 16 43  1  0
 16 44  1  0
 17 45  1  0
 17 46  1  0
 18 47  1  0
 18 48  1  0
M  CHG  1  16   1
M  END
>  <EmbedRMS>  (231) 
0.16499967102600221

$$$$

     RDKit          3D

 44 45  0  0  0  0  0  0  0  0999 V2000
   14.0488    7.2191    1.1051 C   0  0  0  0  0  0  0  0  0  0  0  0
   13.6497    7.9554    2.3991 C   0  0  0  0  0  0  0  0  0  0  0  0
   14.6291    9.0154    2.6714 N   0  0  0  0  0  4  0  0  0  0  0  0
   12.2004    8.5120    2.2736 C   0  0  0  0  0  0  0  0  0  0  0  0
   11.1802    7.3659    2.4347 C   0  0  0  0  0  0  0  0  0  0  0  0
    9.7717    7.8723    2.1563 C   0  0  0  0  0  0  0  0  0  0  0  0
    9.4105    8.9943    3.1349 C   0  0  0  0  0  0  0  0  0  0  0  0
    8.0151    9.4817    2.8755 C   0  0  0  0  0  0  0  0  0  0  0  0
    7.6261    9.7002    1.6933 O   0  0  0  0  0  0  0  0  0  0  0  0
    7.1363    9.6984    3.9893 N   0  0  0  0  0  0  0  0  0  0  0  0
    5.7492   10.1489    3.8764 C   0  0  0  0  0  0  0  0  0  0  0  0
    4.8893    9.1748    3.0737 C   0  0  0  0  0  0  0  0  0  0  0  0
    3.9086   10.0488    2.3174 C   0  0  0  0  0  0  0  0  0  0  0  0
    4.6374   11.3586    2.0651 C   0  0  0  0  0  0  0  0  0  0  0  0
    5.6401   11.5184    3.2002 C   0  0  0  0  0  0  0  0  0  0  0  0
   10.4245   10.1487    3.0666 C   0  0  0  0  0  0  0  0  0  0  0  0
   11.8592    9.6377    3.2815 C   0  0  0  0  0  0  0  0  0  0  0  0
   13.4177    6.3266    0.9275 H   0  0  0  0  0  0  0  0  0  0  0  0
   15.0961    6.8572    1.1812 H   0  0  0  0  0  0  0  0  0  0  0  0
   13.9786    7.8971    0.2277 H   0  0  0  0  0  0  0  0  0  0  0  0
   13.6910    7.2248    3.2393 H   0  0  0  0  0  0  0  0  0  0  0  0
   14.5437    9.7861    1.9688 H   0  0  0  0  0  0  0  0  0  0  0  0
   15.6005    8.6294    2.6305 H   0  0  0  0  0  0  0  0  0  0  0  0
   14.4966    9.3930    3.6371 H   0  0  0  0  0  0  0  0  0  0  0  0
   12.0885    8.9476    1.2537 H   0  0  0  0  0  0  0  0  0  0  0  0
   11.3816    6.5455    1.7176 H   0  0  0  0  0  0  0  0  0  0  0  0
   11.2343    6.9388    3.4610 H   0  0  0  0  0  0  0  0  0  0  0  0
    9.7093    8.2319    1.1046 H   0  0  0  0  0  0  0  0  0  0  0  0
    9.0558    7.0292    2.2755 H   0  0  0  0  0  0  0  0  0  0  0  0
    9.4484    8.5667    4.1624 H   0  0  0  0  0  0  0  0  0  0  0  0
    7.5044    9.5331    4.9534 H   0  0  0  0  0  0  0  0  0  0  0  0
    5.3151   10.2297    4.8995 H   0  0  0  0  0  0  0  0  0  0  0  0
    5.4874    8.5826    2.3499 H   0  0  0  0  0  0  0  0  0  0  0  0
    4.3538    8.4674    3.7439 H   0  0  0  0  0  0  0  0  0  0  0  0
    3.0135   10.2380    2.9507 H   0  0  0  0  0  0  0  0  0  0  0  0
    3.5893    9.5718    1.3654 H   0  0  0  0  0  0  0  0  0  0  0  0
    3.9259   12.2120    2.0279 H   0  0  0  0  0  0  0  0  0  0  0  0
    5.1796   11.2976    1.0956 H   0  0  0  0  0  0  0  0  0  0  0  0
    6.6142   11.8856    2.8104 H   0  0  0  0  0  0  0  0  0  0  0  0
    5.2621   12.2680    3.9303 H   0  0  0  0  0  0  0  0  0  0  0  0
   10.3586   10.6524    2.0763 H   0  0  0  0  0  0  0  0  0  0  0  0
   10.1861   10.9007    3.8504 H   0  0  0  0  0  0  0  0  0  0  0  0
   12.5384   10.5047    3.1419 H   0  0  0  0  0  0  0  0  0  0  0  0
   11.9744    9.2654    4.3235 H   0  0  0  0  0  0  0  0  0  0  0  0
  1  2  1  0
  2  3  1  0
  2  4  1  0
  4  5  1  0
  5  6  1  0
  6  7  1  0
  7  8  1  0
  8  9  2  0
  8 10  1  0
 10 11  1  0
 11 12  1  0
 12 13  1  0
 13 14  1  0
 14 15  1  0
  7 16  1  0
 16 17  1  0
 17  4  1  0
 15 11  1  0
  1 18  1  0
  1 19  1  0
  1 20  1  0
  2 21  1  0
  3 22  1  0
  3 23  1  0
  3 24  1  0
  4 25  1  0
  5 26  1  0
  5 27  1  0
  6 28  1  0
  6 29  1  0
  7 30  1  0
 10 31  1  0
 11 32  1  0
 12 33  1  0
 12 34  1  0
 13 35  1  0
 13 36  1  0
 14 37  1  0
 14 38  1  0
 15 39  1  0
 15 40  1  0
 16 41  1  0
 16 42  1  0
 17 43  1  0
 17 44  1  0
M  CHG  1   3   1
M  END
>  <EmbedRMS>  (232) 
0.031527461887508344

$$$$

     RDKit          3D

 44 44  0  0  0  0  0  0  0  0999 V2000
    8.2507   13.6510    5.6746 C   0  0  0  0  0  0  0  0  0  0  0  0
    7.6935   12.8559    4.5887 N   0  0  0  0  0  0  0  0  0  0  0  0
    6.3008   12.5270    4.5313 C   0  0  0  0  0  0  0  0  0  0  0  0
    5.5148   12.9236    5.4337 O   0  0  0  0  0  0  0  0  0  0  0  0
    5.7719   11.6768    3.4172 C   0  0  0  0  0  0  0  0  0  0  0  0
    5.7738   10.1969    3.8073 C   0  0  0  0  0  0  0  0  0  0  0  0
    7.1370    9.7021    3.9754 N   0  0  0  0  0  0  0  0  0  0  0  0
    8.0104    9.4682    2.8639 C   0  0  0  0  0  0  0  0  0  0  0  0
    7.6101    9.6812    1.6849 O   0  0  0  0  0  0  0  0  0  0  0  0
    9.4149    8.9869    3.1097 C   0  0  0  0  0  0  0  0  0  0  0  0
    9.7998    7.9227    2.0839 C   0  0  0  0  0  0  0  0  0  0  0  0
   11.1587    7.3120    2.3949 C   0  0  0  0  0  0  0  0  0  0  0  0
   12.2760    8.3207    2.7729 C   0  0  0  0  0  0  0  0  0  0  0  0
   13.5811    8.3565    1.9534 C   0  0  0  0  0  0  0  0  0  0  0  0
   13.9845    7.0979    1.1856 C   0  0  0  0  0  0  0  0  0  0  0  0
   14.7114    8.8838    2.7302 N   0  0  0  0  0  4  0  0  0  0  0  0
   11.8334    9.7183    3.3033 C   0  0  0  0  0  0  0  0  0  0  0  0
   10.3972   10.1495    3.0136 C   0  0  0  0  0  0  0  0  0  0  0  0
    8.0958   13.1276    6.6415 H   0  0  0  0  0  0  0  0  0  0  0  0
    9.3401   13.7955    5.5152 H   0  0  0  0  0  0  0  0  0  0  0  0
    7.7569   14.6450    5.7059 H   0  0  0  0  0  0  0  0  0  0  0  0
    8.3259   12.5394    3.8205 H   0  0  0  0  0  0  0  0  0  0  0  0
    4.7287   11.9858    3.1896 H   0  0  0  0  0  0  0  0  0  0  0  0
    6.3701   11.8408    2.4963 H   0  0  0  0  0  0  0  0  0  0  0  0
    5.2093   10.0617    4.7561 H   0  0  0  0  0  0  0  0  0  0  0  0
    5.2556    9.6021    3.0243 H   0  0  0  0  0  0  0  0  0  0  0  0
    7.4662    9.4783    4.9415 H   0  0  0  0  0  0  0  0  0  0  0  0
    9.4721    8.5420    4.1288 H   0  0  0  0  0  0  0  0  0  0  0  0
    9.8312    8.3648    1.0625 H   0  0  0  0  0  0  0  0  0  0  0  0
    9.0366    7.1126    2.0763 H   0  0  0  0  0  0  0  0  0  0  0  0
   11.0042    6.5959    3.2357 H   0  0  0  0  0  0  0  0  0  0  0  0
   11.4418    6.6832    1.5308 H   0  0  0  0  0  0  0  0  0  0  0  0
   12.6579    7.8385    3.7039 H   0  0  0  0  0  0  0  0  0  0  0  0
   13.3811    9.1000    1.1478 H   0  0  0  0  0  0  0  0  0  0  0  0
   13.2937    6.9100    0.3372 H   0  0  0  0  0  0  0  0  0  0  0  0
   13.9875    6.2210    1.8670 H   0  0  0  0  0  0  0  0  0  0  0  0
   15.0010    7.2110    0.7523 H   0  0  0  0  0  0  0  0  0  0  0  0
   14.9943    8.1904    3.4606 H   0  0  0  0  0  0  0  0  0  0  0  0
   14.4920    9.7904    3.1963 H   0  0  0  0  0  0  0  0  0  0  0  0
   15.5293    9.0527    2.1001 H   0  0  0  0  0  0  0  0  0  0  0  0
   11.9737    9.7510    4.4083 H   0  0  0  0  0  0  0  0  0  0  0  0
   12.4757   10.5250    2.8923 H   0  0  0  0  0  0  0  0  0  0  0  0
   10.1109   10.9432    3.7375 H   0  0  0  0  0  0  0  0  0  0  0  0
   10.3502   10.5947    1.9938 H   0  0  0  0  0  0  0  0  0  0  0  0
  1  2  1  0
  2  3  1  0
  3  4  2  0
  3  5  1  0
  5  6  1  0
  6  7  1  0
  7  8  1  0
  8  9  2  0
  8 10  1  0
 10 11  1  0
 11 12  1  0
 12 13  1  0
 13 14  1  0
 14 15  1  0
 14 16  1  0
 13 17  1  0
 17 18  1  0
 18 10  1  0
  1 19  1  0
  1 20  1  0
  1 21  1  0
  2 22  1  0
  5 23  1  0
  5 24  1  0
  6 25  1  0
  6 26  1  0
  7 27  1  0
 10 28  1  0
 11 29  1  0
 11 30  1  0
 12 31  1  0
 12 32  1  0
 13 33  1  0
 14 34  1  0
 15 35  1  0
 15 36  1  0
 15 37  1  0
 16 38  1  0
 16 39  1  0
 16 40  1  0
 17 41  1  0
 17 42  1  0
 18 43  1  0
 18 44  1  0
M  CHG  1  16   1
M  END
>  <EmbedRMS>  (233) 
0.20180190035783102

$$$$

     RDKit          3D

 45 45  0  0  0  0  0  0  0  0999 V2000
   13.9331    7.3326    1.0255 C   0  0  0  0  0  0  0  0  0  0  0  0
   13.7107    7.9149    2.4295 C   0  0  0  0  0  0  0  0  0  0  0  0
   14.6488    9.0167    2.6728 N   0  0  0  0  0  4  0  0  0  0  0  0
   12.2336    8.2986    2.7956 C   0  0  0  0  0  0  0  0  0  0  0  0
   11.1479    7.3149    2.3200 C   0  0  0  0  0  0  0  0  0  0  0  0
    9.7862    7.9355    2.0709 C   0  0  0  0  0  0  0  0  0  0  0  0
    9.4226    8.9836    3.1152 C   0  0  0  0  0  0  0  0  0  0  0  0
    8.0148    9.4645    2.8707 C   0  0  0  0  0  0  0  0  0  0  0  0
    7.6111    9.6884    1.6939 O   0  0  0  0  0  0  0  0  0  0  0  0
    7.1447    9.6870    3.9796 N   0  0  0  0  0  0  0  0  0  0  0  0
    5.7754   10.1544    3.7907 C   0  0  0  0  0  0  0  0  0  0  0  0
    5.0779   10.3101    5.1377 C   0  0  0  0  0  0  0  0  0  0  0  0
    4.8732    8.9858    5.7602 N   0  0  0  0  0  0  0  0  0  0  0  0
    3.5334    8.4754    5.4313 C   0  0  0  0  0  0  0  0  0  0  0  0
    5.0031    9.0916    7.2195 C   0  0  0  0  0  0  0  0  0  0  0  0
   10.3941   10.1678    3.0611 C   0  0  0  0  0  0  0  0  0  0  0  0
   11.8861    9.7889    2.9950 C   0  0  0  0  0  0  0  0  0  0  0  0
   13.5382    6.2974    0.9560 H   0  0  0  0  0  0  0  0  0  0  0  0
   15.0174    7.2758    0.7911 H   0  0  0  0  0  0  0  0  0  0  0  0
   13.4416    7.9747    0.2642 H   0  0  0  0  0  0  0  0  0  0  0  0
   14.0081    7.0850    3.1153 H   0  0  0  0  0  0  0  0  0  0  0  0
   15.6321    8.6702    2.5841 H   0  0  0  0  0  0  0  0  0  0  0  0
   14.5096    9.7864    1.9793 H   0  0  0  0  0  0  0  0  0  0  0  0
   14.5407    9.3812    3.6464 H   0  0  0  0  0  0  0  0  0  0  0  0
   12.2374    8.0289    3.8802 H   0  0  0  0  0  0  0  0  0  0  0  0
   11.0315    6.4817    3.0520 H   0  0  0  0  0  0  0  0  0  0  0  0
   11.4324    6.8311    1.3672 H   0  0  0  0  0  0  0  0  0  0  0  0
    9.7918    8.4045    1.0604 H   0  0  0  0  0  0  0  0  0  0  0  0
    9.0211    7.1270    2.0614 H   0  0  0  0  0  0  0  0  0  0  0  0
    9.4835    8.5120    4.1217 H   0  0  0  0  0  0  0  0  0  0  0  0
    7.5095    9.5112    4.9440 H   0  0  0  0  0  0  0  0  0  0  0  0
    5.7952   11.1414    3.2797 H   0  0  0  0  0  0  0  0  0  0  0  0
    5.2191    9.4385    3.1486 H   0  0  0  0  0  0  0  0  0  0  0  0
    5.7143   10.9731    5.7693 H   0  0  0  0  0  0  0  0  0  0  0  0
    4.1169   10.8562    4.9938 H   0  0  0  0  0  0  0  0  0  0  0  0
    2.7323    9.1242    5.8524 H   0  0  0  0  0  0  0  0  0  0  0  0
    3.4024    8.4107    4.3301 H   0  0  0  0  0  0  0  0  0  0  0  0
    3.4101    7.4468    5.8336 H   0  0  0  0  0  0  0  0  0  0  0  0
    4.8205    8.1040    7.6961 H   0  0  0  0  0  0  0  0  0  0  0  0
    6.0391    9.3921    7.4875 H   0  0  0  0  0  0  0  0  0  0  0  0
    4.2878    9.8353    7.6379 H   0  0  0  0  0  0  0  0  0  0  0  0
   10.2188   10.8136    3.9500 H   0  0  0  0  0  0  0  0  0  0  0  0
   10.1540   10.7903    2.1687 H   0  0  0  0  0  0  0  0  0  0  0  0
   12.3157   10.3469    2.1360 H   0  0  0  0  0  0  0  0  0  0  0  0
   12.3916   10.1919    3.9024 H   0  0  0  0  0  0  0  0  0  0  0  0
  1  2  1  0
  2  3  1  0
  2  4  1  0
  4  5  1  0
  5  6  1  0
  6  7  1  0
  7  8  1  0
  8  9  2  0
  8 10  1  0
 10 11  1  0
 11 12  1  0
 12 13  1  0
 13 14  1  0
 13 15  1  0
  7 16  1  0
 16 17  1  0
 17  4  1  0
  1 18  1  0
  1 19  1  0
  1 20  1  0
  2 21  1  0
  3 22  1  0
  3 23  1  0
  3 24  1  0
  4 25  1  0
  5 26  1  0
  5 27  1  0
  6 28  1  0
  6 29  1  0
  7 30  1  0
 10 31  1  0
 11 32  1  0
 11 33  1  0
 12 34  1  0
 12 35  1  0
 14 36  1  0
 14 37  1  0
 14 38  1  0
 15 39  1  0
 15 40  1  0
 15 41  1  0
 16 42  1  0
 16 43  1  0
 17 44  1  0
 17 45  1  0
M  CHG  1   3   1
M  END
>  <EmbedRMS>  (234) 
0.1707968305671159

$$$$

     RDKit          3D

 41 41  0  0  0  0  0  0  0  0999 V2000
    4.6460   11.6759    7.1724 C   0  0  0  0  0  0  0  0  0  0  0  0
    5.2633   11.4940    5.8659 N   0  0  0  0  0  0  0  0  0  0  0  0
    5.1493   10.2629    5.1439 C   0  0  0  0  0  0  0  0  0  0  0  0
    4.5014    9.2956    5.6277 O   0  0  0  0  0  0  0  0  0  0  0  0
    5.8086   10.1135    3.8127 C   0  0  0  0  0  0  0  0  0  0  0  0
    7.2095    9.6833    3.9371 N   0  0  0  0  0  0  0  0  0  0  0  0
    7.9808    9.5180    2.7350 C   0  0  0  0  0  0  0  0  0  0  0  0
    7.4142    9.6752    1.6244 O   0  0  0  0  0  0  0  0  0  0  0  0
    9.4440    9.1935    2.6630 C   0  0  0  0  0  0  0  0  0  0  0  0
    9.7658    7.7143    2.4337 C   0  0  0  0  0  0  0  0  0  0  0  0
   11.2644    7.3644    2.5408 C   0  0  0  0  0  0  0  0  0  0  0  0
   12.1433    8.5869    2.2329 C   0  0  0  0  0  0  0  0  0  0  0  0
   13.6544    8.3400    1.9332 C   0  0  0  0  0  0  0  0  0  0  0  0
   14.0135    7.0449    1.2245 C   0  0  0  0  0  0  0  0  0  0  0  0
   14.6174    8.7741    2.9396 N   0  0  0  0  0  4  0  0  0  0  0  0
   11.8904    9.6848    3.2864 C   0  0  0  0  0  0  0  0  0  0  0  0
   10.4058   10.0816    3.4356 C   0  0  0  0  0  0  0  0  0  0  0  0
    3.5459   11.5501    7.0899 H   0  0  0  0  0  0  0  0  0  0  0  0
    4.8632   12.6960    7.5536 H   0  0  0  0  0  0  0  0  0  0  0  0
    5.0530   10.9310    7.8883 H   0  0  0  0  0  0  0  0  0  0  0  0
    5.8124   12.2820    5.4541 H   0  0  0  0  0  0  0  0  0  0  0  0
    5.2457    9.3665    3.2110 H   0  0  0  0  0  0  0  0  0  0  0  0
    5.7655   11.0860    3.2759 H   0  0  0  0  0  0  0  0  0  0  0  0
    7.6527    9.5270    4.8705 H   0  0  0  0  0  0  0  0  0  0  0  0
    9.6833    9.5857    1.6449 H   0  0  0  0  0  0  0  0  0  0  0  0
    9.2152    7.1104    3.1876 H   0  0  0  0  0  0  0  0  0  0  0  0
    9.3851    7.3989    1.4351 H   0  0  0  0  0  0  0  0  0  0  0  0
   11.4740    6.5318    1.8378 H   0  0  0  0  0  0  0  0  0  0  0  0
   11.4952    7.0010    3.5664 H   0  0  0  0  0  0  0  0  0  0  0  0
   11.7498    8.9804    1.2663 H   0  0  0  0  0  0  0  0  0  0  0  0
   13.8441    9.0654    1.1031 H   0  0  0  0  0  0  0  0  0  0  0  0
   15.0584    7.0793    0.8474 H   0  0  0  0  0  0  0  0  0  0  0  0
   13.3402    6.8740    0.3569 H   0  0  0  0  0  0  0  0  0  0  0  0
   13.9243    6.1936    1.9314 H   0  0  0  0  0  0  0  0  0  0  0  0
   15.5927    8.5554    2.6308 H   0  0  0  0  0  0  0  0  0  0  0  0
   14.5660    9.8051    3.1020 H   0  0  0  0  0  0  0  0  0  0  0  0
   14.4336    8.2664    3.8348 H   0  0  0  0  0  0  0  0  0  0  0  0
   12.2736    9.3421    4.2727 H   0  0  0  0  0  0  0  0  0  0  0  0
   12.4550   10.5998    3.0047 H   0  0  0  0  0  0  0  0  0  0  0  0
   10.1351   10.0261    4.5122 H   0  0  0  0  0  0  0  0  0  0  0  0
   10.2667   11.1445    3.1312 H   0  0  0  0  0  0  0  0  0  0  0  0
  1  2  1  0
  2  3  1  0
  3  4  2  0
  3  5  1  0
  5  6  1  0
  6  7  1  0
  7  8  2  0
  7  9  1  0
  9 10  1  0
 10 11  1  0
 11 12  1  0
 12 13  1  0
 13 14  1  0
 13 15  1  0
 12 16  1  0
 16 17  1  0
 17  9  1  0
  1 18  1  0
  1 19  1  0
  1 20  1  0
  2 21  1  0
  5 22  1  0
  5 23  1  0
  6 24  1  0
  9 25  1  0
 10 26  1  0
 10 27  1  0
 11 28  1  0
 11 29  1  0
 12 30  1  0
 13 31  1  0
 14 32  1  0
 14 33  1  0
 14 34  1  0
 15 35  1  0
 15 36  1  0
 15 37  1  0
 16 38  1  0
 16 39  1  0
 17 40  1  0
 17 41  1  0
M  CHG  1  15   1
M  END
>  <EmbedRMS>  (235) 
0.2569057114362328

$$$$

     RDKit          3D

 41 41  0  0  0  0  0  0  0  0999 V2000
   14.0115    7.0506    1.2528 C   0  0  0  0  0  0  0  0  0  0  0  0
   13.6007    8.3244    1.9897 C   0  0  0  0  0  0  0  0  0  0  0  0
   14.7026    8.8917    2.7697 N   0  0  0  0  0  4  0  0  0  0  0  0
   12.2613    8.3272    2.7670 C   0  0  0  0  0  0  0  0  0  0  0  0
   11.1798    7.4395    2.1343 C   0  0  0  0  0  0  0  0  0  0  0  0
    9.7449    7.7260    2.5438 C   0  0  0  0  0  0  0  0  0  0  0  0
    9.4498    9.2016    2.6348 C   0  0  0  0  0  0  0  0  0  0  0  0
    7.9883    9.5247    2.7224 C   0  0  0  0  0  0  0  0  0  0  0  0
    7.4124    9.6708    1.6173 O   0  0  0  0  0  0  0  0  0  0  0  0
    7.2314    9.6900    3.9341 N   0  0  0  0  0  0  0  0  0  0  0  0
    5.8391   10.1600    3.8802 C   0  0  0  0  0  0  0  0  0  0  0  0
    5.7848   11.6424    3.4802 C   0  0  0  0  0  0  0  0  0  0  0  0
    4.4046   12.0986    3.3235 N   0  0  0  0  0  0  0  0  0  0  0  0
    4.0979   13.4521    2.9752 C   0  0  0  0  0  0  0  0  0  0  0  0
    5.0150   14.2987    2.8019 O   0  0  0  0  0  0  0  0  0  0  0  0
   10.3846   10.0200    3.4814 C   0  0  0  0  0  0  0  0  0  0  0  0
   11.8491    9.7807    3.1212 C   0  0  0  0  0  0  0  0  0  0  0  0
   14.9833    7.1928    0.7338 H   0  0  0  0  0  0  0  0  0  0  0  0
   14.1168    6.2176    1.9793 H   0  0  0  0  0  0  0  0  0  0  0  0
   13.2678    6.7648    0.4810 H   0  0  0  0  0  0  0  0  0  0  0  0
   13.4367    9.0286    1.1409 H   0  0  0  0  0  0  0  0  0  0  0  0
   15.5920    8.8676    2.2197 H   0  0  0  0  0  0  0  0  0  0  0  0
   14.5201    9.8921    3.0081 H   0  0  0  0  0  0  0  0  0  0  0  0
   14.8383    8.3412    3.6484 H   0  0  0  0  0  0  0  0  0  0  0  0
   12.4685    7.8405    3.7468 H   0  0  0  0  0  0  0  0  0  0  0  0
   11.4064    6.3669    2.3233 H   0  0  0  0  0  0  0  0  0  0  0  0
   11.2136    7.5916    1.0333 H   0  0  0  0  0  0  0  0  0  0  0  0
    9.5620    7.2714    3.5419 H   0  0  0  0  0  0  0  0  0  0  0  0
    9.0548    7.2351    1.8212 H   0  0  0  0  0  0  0  0  0  0  0  0
    9.7207    9.5606    1.6108 H   0  0  0  0  0  0  0  0  0  0  0  0
    7.6691    9.4627    4.8547 H   0  0  0  0  0  0  0  0  0  0  0  0
    5.2621    9.5419    3.1581 H   0  0  0  0  0  0  0  0  0  0  0  0
    5.3740   10.0392    4.8825 H   0  0  0  0  0  0  0  0  0  0  0  0
    6.3234   11.8023    2.5228 H   0  0  0  0  0  0  0  0  0  0  0  0
    6.2851   12.2470    4.2676 H   0  0  0  0  0  0  0  0  0  0  0  0
    3.6094   11.4357    3.4671 H   0  0  0  0  0  0  0  0  0  0  0  0
    3.0657   13.7552    2.8606 H   0  0  0  0  0  0  0  0  0  0  0  0
   10.1471   11.1031    3.3845 H   0  0  0  0  0  0  0  0  0  0  0  0
   10.2299    9.7359    4.5451 H   0  0  0  0  0  0  0  0  0  0  0  0
   12.4695   10.1520    3.9658 H   0  0  0  0  0  0  0  0  0  0  0  0
   12.0655   10.4407    2.2522 H   0  0  0  0  0  0  0  0  0  0  0  0
  1  2  1  0
  2  3  1  0
  2  4  1  0
  4  5  1  0
  5  6  1  0
  6  7  1  0
  7  8  1  0
  8  9  2  0
  8 10  1  0
 10 11  1  0
 11 12  1  0
 12 13  1  0
 13 14  1  0
 14 15  2  0
  7 16  1  0
 16 17  1  0
 17  4  1  0
  1 18  1  0
  1 19  1  0
  1 20  1  0
  2 21  1  0
  3 22  1  0
  3 23  1  0
  3 24  1  0
  4 25  1  0
  5 26  1  0
  5 27  1  0
  6 28  1  0
  6 29  1  0
  7 30  1  0
 10 31  1  0
 11 32  1  0
 11 33  1  0
 12 34  1  0
 12 35  1  0
 13 36  1  0
 14 37  1  0
 16 38  1  0
 16 39  1  0
 17 40  1  0
 17 41  1  0
M  CHG  1   3   1
M  END
>  <EmbedRMS>  (236) 
0.30207850723488733

$$$$

     RDKit          3D

 47 48  0  0  0  0  0  0  0  0999 V2000
   14.0494    7.2192    1.1048 C   0  0  0  0  0  0  0  0  0  0  0  0
   13.6507    7.9554    2.3990 C   0  0  0  0  0  0  0  0  0  0  0  0
   14.6299    9.0156    2.6710 N   0  0  0  0  0  4  0  0  0  0  0  0
   12.2014    8.5116    2.2741 C   0  0  0  0  0  0  0  0  0  0  0  0
   11.1823    7.3649    2.4364 C   0  0  0  0  0  0  0  0  0  0  0  0
    9.7738    7.8705    2.1601 C   0  0  0  0  0  0  0  0  0  0  0  0
    9.4133    8.9922    3.1398 C   0  0  0  0  0  0  0  0  0  0  0  0
    8.0195    9.4781    2.8777 C   0  0  0  0  0  0  0  0  0  0  0  0
    7.6397    9.6920    1.6939 O   0  0  0  0  0  0  0  0  0  0  0  0
    7.1337    9.6898    3.9864 N   0  0  0  0  0  0  0  0  0  0  0  0
    5.7549   10.1657    3.8718 C   0  0  0  0  0  0  0  0  0  0  0  0
    4.8855    9.1641    3.0829 C   0  0  0  0  0  0  0  0  0  0  0  0
    3.5612    9.8131    2.6829 C   0  0  0  0  0  0  0  0  0  0  0  0
    3.7646   11.0414    1.7722 C   0  0  0  0  0  0  0  0  0  0  0  0
    5.1529   11.6939    1.8949 C   0  0  0  0  0  0  0  0  0  0  0  0
    5.7058   11.6135    3.3223 C   0  0  0  0  0  0  0  0  0  0  0  0
   10.4257   10.1477    3.0686 C   0  0  0  0  0  0  0  0  0  0  0  0
   11.8607    9.6377    3.2819 C   0  0  0  0  0  0  0  0  0  0  0  0
   13.4185    6.3265    0.9274 H   0  0  0  0  0  0  0  0  0  0  0  0
   15.0968    6.8576    1.1805 H   0  0  0  0  0  0  0  0  0  0  0  0
   13.9786    7.8972    0.2274 H   0  0  0  0  0  0  0  0  0  0  0  0
   13.6926    7.2248    3.2391 H   0  0  0  0  0  0  0  0  0  0  0  0
   14.4976    9.3931    3.6368 H   0  0  0  0  0  0  0  0  0  0  0  0
   15.6014    8.6298    2.6298 H   0  0  0  0  0  0  0  0  0  0  0  0
   14.5442    9.7863    1.9684 H   0  0  0  0  0  0  0  0  0  0  0  0
   12.0886    8.9468    1.2541 H   0  0  0  0  0  0  0  0  0  0  0  0
   11.3831    6.5447    1.7191 H   0  0  0  0  0  0  0  0  0  0  0  0
   11.2379    6.9378    3.4627 H   0  0  0  0  0  0  0  0  0  0  0  0
    9.7106    8.2296    1.1083 H   0  0  0  0  0  0  0  0  0  0  0  0
    9.0585    7.0268    2.2801 H   0  0  0  0  0  0  0  0  0  0  0  0
    9.4516    8.5656    4.1677 H   0  0  0  0  0  0  0  0  0  0  0  0
    7.4926    9.5016    4.9499 H   0  0  0  0  0  0  0  0  0  0  0  0
    5.3322   10.2054    4.9021 H   0  0  0  0  0  0  0  0  0  0  0  0
    4.6833    8.2735    3.7169 H   0  0  0  0  0  0  0  0  0  0  0  0
    5.3946    8.8067    2.1647 H   0  0  0  0  0  0  0  0  0  0  0  0
    2.9249    9.0653    2.1618 H   0  0  0  0  0  0  0  0  0  0  0  0
    3.0209   10.1231    3.6049 H   0  0  0  0  0  0  0  0  0  0  0  0
    2.9843   11.7957    2.0149 H   0  0  0  0  0  0  0  0  0  0  0  0
    3.6091   10.7424    0.7126 H   0  0  0  0  0  0  0  0  0  0  0  0
    5.0814   12.7610    1.5920 H   0  0  0  0  0  0  0  0  0  0  0  0
    5.8477   11.2098    1.1824 H   0  0  0  0  0  0  0  0  0  0  0  0
    6.7149   12.0799    3.3499 H   0  0  0  0  0  0  0  0  0  0  0  0
    5.0521   12.2301    3.9787 H   0  0  0  0  0  0  0  0  0  0  0  0
   10.1878   10.9002    3.8521 H   0  0  0  0  0  0  0  0  0  0  0  0
   10.3582   10.6503    2.0779 H   0  0  0  0  0  0  0  0  0  0  0  0
   11.9775    9.2660    4.3239 H   0  0  0  0  0  0  0  0  0  0  0  0
   12.5392   10.5050    3.1410 H   0  0  0  0  0  0  0  0  0  0  0  0
  1  2  1  0
  2  3  1  0
  2  4  1  0
  4  5  1  0
  5  6  1  0
  6  7  1  0
  7  8  1  0
  8  9  2  0
  8 10  1  0
 10 11  1  0
 11 12  1  0
 12 13  1  0
 13 14  1  0
 14 15  1  0
 15 16  1  0
  7 17  1  0
 17 18  1  0
 18  4  1  0
 16 11  1  0
  1 19  1  0
  1 20  1  0
  1 21  1  0
  2 22  1  0
  3 23  1  0
  3 24  1  0
  3 25  1  0
  4 26  1  0
  5 27  1  0
  5 28  1  0
  6 29  1  0
  6 30  1  0
  7 31  1  0
 10 32  1  0
 11 33  1  0
 12 34  1  0
 12 35  1  0
 13 36  1  0
 13 37  1  0
 14 38  1  0
 14 39  1  0
 15 40  1  0
 15 41  1  0
 16 42  1  0
 16 43  1  0
 17 44  1  0
 17 45  1  0
 18 46  1  0
 18 47  1  0
M  CHG  1   3   1
M  END
>  <EmbedRMS>  (237) 
0.03225401817650533

$$$$

     RDKit          3D

 48 48  0  0  0  0  0  0  0  0999 V2000
    4.8915   13.3074   -0.6287 C   0  0  0  0  0  0  0  0  0  0  0  0
    5.9776   13.0507    0.4086 C   0  0  0  0  0  0  0  0  0  0  0  0
    5.3579   12.5533    1.7080 C   0  0  0  0  0  0  0  0  0  0  0  0
    6.4036   12.3026    2.7032 N   0  0  0  0  0  0  0  0  0  0  0  0
    5.8116   11.7333    3.9200 C   0  0  0  0  0  0  0  0  0  0  0  0
    5.7860   10.2073    3.8470 C   0  0  0  0  0  0  0  0  0  0  0  0
    7.1366    9.6757    3.9898 N   0  0  0  0  0  0  0  0  0  0  0  0
    8.0105    9.4654    2.8768 C   0  0  0  0  0  0  0  0  0  0  0  0
    7.6077    9.6907    1.6997 O   0  0  0  0  0  0  0  0  0  0  0  0
    9.4201    8.9849    3.1181 C   0  0  0  0  0  0  0  0  0  0  0  0
    9.7831    7.9365    2.0731 C   0  0  0  0  0  0  0  0  0  0  0  0
   11.1462    7.3163    2.3190 C   0  0  0  0  0  0  0  0  0  0  0  0
   12.2321    8.2994    2.7953 C   0  0  0  0  0  0  0  0  0  0  0  0
   13.7095    7.9154    2.4297 C   0  0  0  0  0  0  0  0  0  0  0  0
   13.9324    7.3325    1.0260 C   0  0  0  0  0  0  0  0  0  0  0  0
   14.6477    9.0170    2.6729 N   0  0  0  0  0  4  0  0  0  0  0  0
   11.8844    9.7897    2.9954 C   0  0  0  0  0  0  0  0  0  0  0  0
   10.3919   10.1689    3.0610 C   0  0  0  0  0  0  0  0  0  0  0  0
    5.3569   13.6692   -1.5696 H   0  0  0  0  0  0  0  0  0  0  0  0
    4.3344   12.3715   -0.8479 H   0  0  0  0  0  0  0  0  0  0  0  0
    4.1823   14.0816   -0.2653 H   0  0  0  0  0  0  0  0  0  0  0  0
    6.5355   13.9946    0.5930 H   0  0  0  0  0  0  0  0  0  0  0  0
    6.6866   12.2888    0.0173 H   0  0  0  0  0  0  0  0  0  0  0  0
    4.6443   13.3210    2.0876 H   0  0  0  0  0  0  0  0  0  0  0  0
    4.7950   11.6173    1.4970 H   0  0  0  0  0  0  0  0  0  0  0  0
    6.8251   13.2269    2.9588 H   0  0  0  0  0  0  0  0  0  0  0  0
    6.4182   12.0330    4.8044 H   0  0  0  0  0  0  0  0  0  0  0  0
    4.7815   12.1178    4.1022 H   0  0  0  0  0  0  0  0  0  0  0  0
    5.3175    9.8464    2.9071 H   0  0  0  0  0  0  0  0  0  0  0  0
    5.1651    9.8266    4.6866 H   0  0  0  0  0  0  0  0  0  0  0  0
    7.4866    9.4806    4.9551 H   0  0  0  0  0  0  0  0  0  0  0  0
    9.4833    8.5141    4.1248 H   0  0  0  0  0  0  0  0  0  0  0  0
    9.0185    7.1275    2.0651 H   0  0  0  0  0  0  0  0  0  0  0  0
    9.7860    8.4054    1.0626 H   0  0  0  0  0  0  0  0  0  0  0  0
   11.0317    6.4812    3.0491 H   0  0  0  0  0  0  0  0  0  0  0  0
   11.4299    6.8353    1.3644 H   0  0  0  0  0  0  0  0  0  0  0  0
   12.2353    8.0293    3.8797 H   0  0  0  0  0  0  0  0  0  0  0  0
   14.0065    7.0857    3.1159 H   0  0  0  0  0  0  0  0  0  0  0  0
   13.5360    6.2979    0.9564 H   0  0  0  0  0  0  0  0  0  0  0  0
   13.4424    7.9752    0.2641 H   0  0  0  0  0  0  0  0  0  0  0  0
   15.0169    7.2742    0.7926 H   0  0  0  0  0  0  0  0  0  0  0  0
   14.5394    9.3818    3.6465 H   0  0  0  0  0  0  0  0  0  0  0  0
   15.6310    8.6705    2.5844 H   0  0  0  0  0  0  0  0  0  0  0  0
   14.5085    9.7867    1.9794 H   0  0  0  0  0  0  0  0  0  0  0  0
   12.3143   10.3484    2.1371 H   0  0  0  0  0  0  0  0  0  0  0  0
   12.3893   10.1921    3.9034 H   0  0  0  0  0  0  0  0  0  0  0  0
   10.1511   10.7893    2.1673 H   0  0  0  0  0  0  0  0  0  0  0  0
   10.2165   10.8170    3.9483 H   0  0  0  0  0  0  0  0  0  0  0  0
  1  2  1  0
  2  3  1  0
  3  4  1  0
  4  5  1  0
  5  6  1  0
  6  7  1  0
  7  8  1  0
  8  9  2  0
  8 10  1  0
 10 11  1  0
 11 12  1  0
 12 13  1  0
 13 14  1  0
 14 15  1  0
 14 16  1  0
 13 17  1  0
 17 18  1  0
 18 10  1  0
  1 19  1  0
  1 20  1  0
  1 21  1  0
  2 22  1  0
  2 23  1  0
  3 24  1  0
  3 25  1  0
  4 26  1  0
  5 27  1  0
  5 28  1  0
  6 29  1  0
  6 30  1  0
  7 31  1  0
 10 32  1  0
 11 33  1  0
 11 34  1  0
 12 35  1  0
 12 36  1  0
 13 37  1  0
 14 38  1  0
 15 39  1  0
 15 40  1  0
 15 41  1  0
 16 42  1  0
 16 43  1  0
 16 44  1  0
 17 45  1  0
 17 46  1  0
 18 47  1  0
 18 48  1  0
M  CHG  1  16   1
M  END
>  <EmbedRMS>  (238) 
0.16499967102600221

$$$$

     RDKit          3D

 40 40  0  0  0  0  0  0  0  0999 V2000
    4.7996    8.8875    5.7514 C   0  0  0  0  0  0  0  0  0  0  0  0
    5.0467   10.2639    5.1374 C   0  0  0  0  0  0  0  0  0  0  0  0
    5.7665   10.1567    3.7915 C   0  0  0  0  0  0  0  0  0  0  0  0
    7.1428    9.7130    3.9787 N   0  0  0  0  0  0  0  0  0  0  0  0
    8.0146    9.4652    2.8756 C   0  0  0  0  0  0  0  0  0  0  0  0
    7.6236    9.6740    1.6923 O   0  0  0  0  0  0  0  0  0  0  0  0
    9.4117    8.9838    3.1514 C   0  0  0  0  0  0  0  0  0  0  0  0
    9.7887    7.8242    2.2110 C   0  0  0  0  0  0  0  0  0  0  0  0
   11.2406    7.3770    2.4518 C   0  0  0  0  0  0  0  0  0  0  0  0
   12.1580    8.5898    2.2119 C   0  0  0  0  0  0  0  0  0  0  0  0
   13.6694    8.3363    1.9396 C   0  0  0  0  0  0  0  0  0  0  0  0
   14.0282    7.0396    1.2342 C   0  0  0  0  0  0  0  0  0  0  0  0
   14.6135    8.7686    2.9623 N   0  0  0  0  0  4  0  0  0  0  0  0
   11.8558    9.6805    3.2543 C   0  0  0  0  0  0  0  0  0  0  0  0
   10.4065   10.1585    3.0871 C   0  0  0  0  0  0  0  0  0  0  0  0
    5.7572    8.3688    5.9654 H   0  0  0  0  0  0  0  0  0  0  0  0
    4.2454    9.0044    6.7064 H   0  0  0  0  0  0  0  0  0  0  0  0
    4.1898    8.2616    5.0655 H   0  0  0  0  0  0  0  0  0  0  0  0
    4.0659   10.7624    4.9797 H   0  0  0  0  0  0  0  0  0  0  0  0
    5.6383   10.8902    5.8402 H   0  0  0  0  0  0  0  0  0  0  0  0
    5.7713   11.1553    3.3036 H   0  0  0  0  0  0  0  0  0  0  0  0
    5.2272    9.4458    3.1277 H   0  0  0  0  0  0  0  0  0  0  0  0
    7.5227    9.5975    4.9460 H   0  0  0  0  0  0  0  0  0  0  0  0
    9.4460    8.5780    4.1877 H   0  0  0  0  0  0  0  0  0  0  0  0
    9.1131    6.9617    2.4015 H   0  0  0  0  0  0  0  0  0  0  0  0
    9.6593    8.1232    1.1467 H   0  0  0  0  0  0  0  0  0  0  0  0
   11.3694    6.9867    3.4850 H   0  0  0  0  0  0  0  0  0  0  0  0
   11.4634    6.5566    1.7393 H   0  0  0  0  0  0  0  0  0  0  0  0
   11.8029    9.0089    1.2373 H   0  0  0  0  0  0  0  0  0  0  0  0
   13.8833    9.0581    1.1114 H   0  0  0  0  0  0  0  0  0  0  0  0
   15.0833    7.0602    0.8857 H   0  0  0  0  0  0  0  0  0  0  0  0
   13.3773    6.8823    0.3472 H   0  0  0  0  0  0  0  0  0  0  0  0
   13.9078    6.1866    1.9345 H   0  0  0  0  0  0  0  0  0  0  0  0
   15.5897    8.5020    2.6974 H   0  0  0  0  0  0  0  0  0  0  0  0
   14.5964    9.8059    3.0880 H   0  0  0  0  0  0  0  0  0  0  0  0
   14.3778    8.3021    3.8677 H   0  0  0  0  0  0  0  0  0  0  0  0
   12.5089   10.5640    3.0952 H   0  0  0  0  0  0  0  0  0  0  0  0
   12.0205    9.2944    4.2841 H   0  0  0  0  0  0  0  0  0  0  0  0
   10.1719   10.8879    3.8931 H   0  0  0  0  0  0  0  0  0  0  0  0
   10.3038   10.6871    2.1128 H   0  0  0  0  0  0  0  0  0  0  0  0
  1  2  1  0
  2  3  1  0
  3  4  1  0
  4  5  1  0
  5  6  2  0
  5  7  1  0
  7  8  1  0
  8  9  1  0
  9 10  1  0
 10 11  1  0
 11 12  1  0
 11 13  1  0
 10 14  1  0
 14 15  1  0
 15  7  1  0
  1 16  1  0
  1 17  1  0
  1 18  1  0
  2 19  1  0
  2 20  1  0
  3 21  1  0
  3 22  1  0
  4 23  1  0
  7 24  1  0
  8 25  1  0
  8 26  1  0
  9 27  1  0
  9 28  1  0
 10 29  1  0
 11 30  1  0
 12 31  1  0
 12 32  1  0
 12 33  1  0
 13 34  1  0
 13 35  1  0
 13 36  1  0
 14 37  1  0
 14 38  1  0
 15 39  1  0
 15 40  1  0
M  CHG  1  13   1
M  END
>  <EmbedRMS>  (239) 
0.2000484947854372

$$$$

     RDKit          3D

 44 44  0  0  0  0  0  0  0  0999 V2000
   14.0122    7.0504    1.2528 C   0  0  0  0  0  0  0  0  0  0  0  0
   13.6014    8.3242    1.9895 C   0  0  0  0  0  0  0  0  0  0  0  0
   14.7031    8.8917    2.7695 N   0  0  0  0  0  4  0  0  0  0  0  0
   12.2621    8.3269    2.7668 C   0  0  0  0  0  0  0  0  0  0  0  0
   11.1808    7.4388    2.1343 C   0  0  0  0  0  0  0  0  0  0  0  0
    9.7461    7.7259    2.5428 C   0  0  0  0  0  0  0  0  0  0  0  0
    9.4521    9.2015    2.6313 C   0  0  0  0  0  0  0  0  0  0  0  0
    7.9916    9.5235    2.7203 C   0  0  0  0  0  0  0  0  0  0  0  0
    7.4126    9.6688    1.6167 O   0  0  0  0  0  0  0  0  0  0  0  0
    7.2400    9.6875    3.9339 N   0  0  0  0  0  0  0  0  0  0  0  0
    5.8476   10.1523    3.8888 C   0  0  0  0  0  0  0  0  0  0  0  0
    5.7866   11.6348    3.4787 C   0  0  0  0  0  0  0  0  0  0  0  0
    4.3465   12.1386    3.3126 C   0  0  0  0  0  0  0  0  0  0  0  0
    3.6290   12.3298    4.6495 C   0  0  0  0  0  0  0  0  0  0  0  0
    4.2413   13.3567    5.3785 O   0  0  0  0  0  0  0  0  0  0  0  0
   10.3855   10.0198    3.4797 C   0  0  0  0  0  0  0  0  0  0  0  0
   11.8500    9.7805    3.1211 C   0  0  0  0  0  0  0  0  0  0  0  0
   13.2687    6.7646    0.4806 H   0  0  0  0  0  0  0  0  0  0  0  0
   14.1172    6.2175    1.9793 H   0  0  0  0  0  0  0  0  0  0  0  0
   14.9842    7.1925    0.7340 H   0  0  0  0  0  0  0  0  0  0  0  0
   13.4373    9.0283    1.1407 H   0  0  0  0  0  0  0  0  0  0  0  0
   14.8388    8.3412    3.6483 H   0  0  0  0  0  0  0  0  0  0  0  0
   15.5925    8.8677    2.2196 H   0  0  0  0  0  0  0  0  0  0  0  0
   14.5205    9.8921    3.0080 H   0  0  0  0  0  0  0  0  0  0  0  0
   12.4694    7.8404    3.7467 H   0  0  0  0  0  0  0  0  0  0  0  0
   11.4072    6.3663    2.3242 H   0  0  0  0  0  0  0  0  0  0  0  0
   11.2151    7.5901    1.0331 H   0  0  0  0  0  0  0  0  0  0  0  0
    9.0562    7.2342    1.8205 H   0  0  0  0  0  0  0  0  0  0  0  0
    9.5628    7.2727    3.5415 H   0  0  0  0  0  0  0  0  0  0  0  0
    9.7228    9.5602    1.6072 H   0  0  0  0  0  0  0  0  0  0  0  0
    7.6837    9.4625    4.8522 H   0  0  0  0  0  0  0  0  0  0  0  0
    5.2667    9.5248    3.1781 H   0  0  0  0  0  0  0  0  0  0  0  0
    5.4038   10.0240    4.8977 H   0  0  0  0  0  0  0  0  0  0  0  0
    6.3284   12.2520    4.2280 H   0  0  0  0  0  0  0  0  0  0  0  0
    6.3039   11.7726    2.5063 H   0  0  0  0  0  0  0  0  0  0  0  0
    3.7695   11.4279    2.6816 H   0  0  0  0  0  0  0  0  0  0  0  0
    4.3660   13.1138    2.7785 H   0  0  0  0  0  0  0  0  0  0  0  0
    3.6223   11.3875    5.2378 H   0  0  0  0  0  0  0  0  0  0  0  0
    2.5718   12.6091    4.4429 H   0  0  0  0  0  0  0  0  0  0  0  0
    3.7359   13.4294    6.2295 H   0  0  0  0  0  0  0  0  0  0  0  0
   10.1480   11.1029    3.3827 H   0  0  0  0  0  0  0  0  0  0  0  0
   10.2298    9.7354    4.5431 H   0  0  0  0  0  0  0  0  0  0  0  0
   12.4697   10.1514    3.9664 H   0  0  0  0  0  0  0  0  0  0  0  0
   12.0674   10.4408    2.2526 H   0  0  0  0  0  0  0  0  0  0  0  0
  1  2  1  0
  2  3  1  0
  2  4  1  0
  4  5  1  0
  5  6  1  0
  6  7  1  0
  7  8  1  0
  8  9  2  0
  8 10  1  0
 10 11  1  0
 11 12  1  0
 12 13  1  0
 13 14  1  0
 14 15  1  0
  7 16  1  0
 16 17  1  0
 17  4  1  0
  1 18  1  0
  1 19  1  0
  1 20  1  0
  2 21  1  0
  3 22  1  0
  3 23  1  0
  3 24  1  0
  4 25  1  0
  5 26  1  0
  5 27  1  0
  6 28  1  0
  6 29  1  0
  7 30  1  0
 10 31  1  0
 11 32  1  0
 11 33  1  0
 12 34  1  0
 12 35  1  0
 13 36  1  0
 13 37  1  0
 14 38  1  0
 14 39  1  0
 15 40  1  0
 16 41  1  0
 16 42  1  0
 17 43  1  0
 17 44  1  0
M  CHG  1   3   1
M  END
>  <EmbedRMS>  (240) 
0.3028787039700591

$$$$
