unknown|pharmsElabsTestPreDocking|sdf|10|dock5
     RDKit          3D

 17 18  0  0  0  0  0  0  0  0999 V2000
   14.5621    8.0434    2.9438 C   0  0  0  0  0  0  0  0  0  0  0  0
   13.2284    7.9389    2.2056 C   0  0  0  0  0  0  0  0  0  0  0  0
   13.1494    8.8636    1.0730 N   0  0  0  0  0  0  0  0  0  0  0  0
   11.9243    7.9113    3.0400 C   0  0  0  0  0  0  0  0  0  0  0  0
   10.7925    7.1040    2.3877 C   0  0  0  0  0  0  0  0  0  0  0  0
    9.3856    7.3900    2.8845 C   0  0  0  0  0  0  0  0  0  0  0  0
    9.1373    8.8595    3.1135 C   0  0  0  0  0  0  0  0  0  0  0  0
    7.6890    9.2150    3.2716 C   0  0  0  0  0  0  0  0  0  0  0  0
    7.4581    9.9651    4.2466 O   0  0  0  0  0  0  0  0  0  0  0  0
    6.6007    8.7783    2.4289 N   0  0  0  0  0  0  0  0  0  0  0  0
    5.2143    9.0796    2.7312 C   0  0  0  0  0  0  0  0  0  0  0  0
    4.6355    9.2845    3.9828 C   0  0  0  0  0  0  0  0  0  0  0  0
    3.2996    9.5225    3.7541 C   0  0  0  0  0  0  0  0  0  0  0  0
    3.0382    9.4694    2.4361 N   0  0  0  0  0  0  0  0  0  0  0  0
    4.1970    9.1994    1.8039 C   0  0  0  0  0  0  0  0  0  0  0  0
   10.1289    9.5853    3.9767 C   0  0  0  0  0  0  0  0  0  0  0  0
   11.5685    9.3410    3.5284 C   0  0  0  0  0  0  0  0  0  0  0  0
  1  2  1  0
  2  3  1  0
  2  4  1  0
  4  5  1  0
  5  6  1  0
  6  7  1  0
  7  8  1  0
  8  9  2  0
  8 10  1  0
 10 11  1  0
 11 12  1  0
 12 13  2  0
 13 14  1  0
 14 15  1  0
  7 16  1  0
 16 17  1  0
 17  4  1  0
 15 11  2  0
M  CHG  1   3   1
M  END
>  <EmbedRMS>  (1) 
0.3005329260886256

>  <Gold.Version>  (1) 
2020.3.0

>  <Gold.Id.Protein>  (1) 
unknown|1q8t_protein|pdb

>  <Gold.PLP.Fitness>  (1) 
49.4086

>  <Gold.PLP.PLP>  (1) 
-41.0675

>  <Gold.PLP.part.hbond>  (1) 
-2.3052

>  <Gold.PLP.part.metal>  (1) 
0.0000

>  <Gold.PLP.part.buried>  (1) 
-4.0602

>  <Gold.PLP.part.nonpolar>  (1) 
-34.5745

>  <Gold.PLP.part.repulsive>  (1) 
0.0942

>  <Gold.PLP.ligand.clash>  (1) 
0.0000

>  <Gold.PLP.ligand.torsion>  (1) 
0.7323

>  <Gold.PLP.Chemscore.Hbond>  (1) 
3.0593

>  <Gold.PLP.Chemscore.CHOScore>  (1) 
0.0000

>  <Gold.PLP.Chemscore.Metal>  (1) 
0.0000

>  <Gold.Chemscore.Hbonds>  (1) 
donor molecule, donor type, donor heavy atom, donor atom, acceptor molecule, acceptor atom, score
      L1  H     3    23       P1  2902  2.00
      L1  H    10    31       P1  2887  0.06
      L1  H    14    34       P1  1855  1.00

>  <Gold.PLP.Chemscore.Internal.Correction>  (1) 
0.6279

>  <Gold.PLP.Constraint>  (1) 
-0.0000

>  <Gold.Protein.RotatedTorsions>  (1) 
[  681  677  676  673 ] final   84.72 input -179.99 | X-H torsion
[  702  698  697  694 ] final  -98.81 input  179.99 | X-H torsion
[ 2577 2569 2568 2566 ] final    3.44 input   -0.13 | X-H torsion
[ 2891 2887 2886 2883 ] final   13.79 input  179.98 | X-H torsion
[ 3175 3171 3170 3167 ] final  -96.91 input -179.99 | X-H torsion
[ 5278 5270 5269 5267 ] final  173.60 input    0.55 | X-H torsion
[  641  637  636  633 ] final  -97.81 input  179.99 | X-H torsion
[ 1886 1878 1877 1875 ] final  -55.65 input    1.60 | X-H torsion
[  965  957  956  954 ] final   23.52 input    0.45 | X-H torsion

>  <Gold.Protein.ActiveResidues>  (1) 
 LYS47   THR48   LEU49   GLY50   THR51   GLY52   SER53   PHE54   GLY55   ARG56  
 VAL57   MET58   LEU59   TYR69   ALA70   MET71   LYS72   ILE73   LEU74   GLU91  
 LEU95   VAL104  LYS105  MET118  VAL119  MET120  GLU121  TYR122  VAL123  PRO124 
 GLY125  GLY126  GLU127  MET128  PHE129  TYR164  ASP166  LEU167  LYS168  PRO169 
 GLU170  ASN171  LEU172  LEU173  ILE174  GLN181  VAL182  THR183  ASP184  PHE185 
 GLY186  PHE187  GLY200  THR201  ASN326  PHE327  TYR330  ARG18   ARG19   ASN20  
 ALA21   ILE22   HIS23  

>  <Gold.Protein.RotatedAtoms>  (1) 
   10.7327   18.9470    7.3103 H   0  0  0  0  0  0  0  0  0  0  0  0  # atno 641  bound_to 637 
   16.9747   12.9647    6.0953 H   0  0  0  0  0  0  0  0  0  0  0  0  # atno 681  bound_to 677 
   20.8249   11.5864   -0.4726 H   0  0  0  0  0  0  0  0  0  0  0  0  # atno 702  bound_to 698 
   -6.8692   15.3840   -0.6716 H   0  0  0  0  0  0  0  0  0  0  0  0  # atno 965  bound_to 957 
    1.7557   10.6395   10.4109 H   0  0  0  0  0  0  0  0  0  0  0  0  # atno 1886 bound_to 1878
    9.7136    3.2478   -3.3587 H   0  0  0  0  0  0  0  0  0  0  0  0  # atno 2577 bound_to 2569
    8.1906    5.5981    0.2733 H   0  0  0  0  0  0  0  0  0  0  0  0  # atno 2891 bound_to 2887
   19.1133    2.9138    0.1139 H   0  0  0  0  0  0  0  0  0  0  0  0  # atno 3175 bound_to 3171
   14.3652   10.1116    9.3008 H   0  0  0  0  0  0  0  0  0  0  0  0  # atno 5278 bound_to 5270
   15.5933   12.8688    6.8818 LP  0  0  0  0  0  0  0  0  0  0  0  0  # atno 5914 bound_to 677 
   16.7145   13.9830    7.2918 LP  0  0  0  0  0  0  0  0  0  0  0  0  # atno 5915 bound_to 677 
   20.5145   11.6547   -2.0335 LP  0  0  0  0  0  0  0  0  0  0  0  0  # atno 5920 bound_to 698 
   19.3223   11.8448   -0.9339 LP  0  0  0  0  0  0  0  0  0  0  0  0  # atno 5921 bound_to 698 
   11.1178    2.6946   -2.8514 LP  0  0  0  0  0  0  0  0  0  0  0  0  # atno 5950 bound_to 2569
    9.7250    1.9500   -2.4364 LP  0  0  0  0  0  0  0  0  0  0  0  0  # atno 5951 bound_to 2569
    7.1652    5.6207    1.4918 LP  0  0  0  0  0  0  0  0  0  0  0  0  # atno 5982 bound_to 2887
    7.8895    6.9925    0.9816 LP  0  0  0  0  0  0  0  0  0  0  0  0  # atno 5983 bound_to 2887
   17.8866    1.9760   -0.2753 LP  0  0  0  0  0  0  0  0  0  0  0  0  # atno 6000 bound_to 3171
   18.8866    2.5663   -1.4235 LP  0  0  0  0  0  0  0  0  0  0  0  0  # atno 6001 bound_to 3171
   12.7951   10.1434    9.0355 LP  0  0  0  0  0  0  0  0  0  0  0  0  # atno 6004 bound_to 5270
   13.3871    9.7848   10.5146 LP  0  0  0  0  0  0  0  0  0  0  0  0  # atno 6005 bound_to 5270
   11.1097   19.6486    8.6889 LP  0  0  0  0  0  0  0  0  0  0  0  0  # atno 6055 bound_to 637 
    9.5514   19.4984    8.2243 LP  0  0  0  0  0  0  0  0  0  0  0  0  # atno 6056 bound_to 637 
    0.5803   11.4718   11.0900 LP  0  0  0  0  0  0  0  0  0  0  0  0  # atno 6063 bound_to 1878
    1.9568   12.2066   10.6085 LP  0  0  0  0  0  0  0  0  0  0  0  0  # atno 6064 bound_to 1878
   -6.4535   16.6097   -1.5989 LP  0  0  0  0  0  0  0  0  0  0  0  0  # atno 6067 bound_to 957 
   -7.1199   16.8599   -0.1293 LP  0  0  0  0  0  0  0  0  0  0  0  0  # atno 6068 bound_to 957 

>  <STRIFE_LigEff_Score>  (1) 
2.9063882352941177

$$$$
unknown|pharmsElabsTestPreDocking|sdf|11|dock4
     RDKit          3D

 17 18  0  0  0  0  0  0  0  0999 V2000
   14.7833    8.9158    1.5800 C   0  0  0  0  0  0  0  0  0  0  0  0
   13.7826    7.8237    1.9546 C   0  0  0  0  0  0  0  0  0  0  0  0
   13.3854    7.0177    0.7984 N   0  0  0  0  0  0  0  0  0  0  0  0
   12.5803    8.2024    2.8539 C   0  0  0  0  0  0  0  0  0  0  0  0
   11.4642    7.1479    2.8666 C   0  0  0  0  0  0  0  0  0  0  0  0
   10.0966    7.6173    3.3332 C   0  0  0  0  0  0  0  0  0  0  0  0
    9.7422    8.9863    2.8101 C   0  0  0  0  0  0  0  0  0  0  0  0
    8.2921    9.3385    2.9593 C   0  0  0  0  0  0  0  0  0  0  0  0
    8.0917   10.3692    3.6406 O   0  0  0  0  0  0  0  0  0  0  0  0
    7.1714    8.6149    2.4064 N   0  0  0  0  0  0  0  0  0  0  0  0
    5.7959    8.9667    2.7040 C   0  0  0  0  0  0  0  0  0  0  0  0
    4.7469    9.1569    1.8058 C   0  0  0  0  0  0  0  0  0  0  0  0
    3.6477    9.4900    2.5637 C   0  0  0  0  0  0  0  0  0  0  0  0
    3.9742    9.5152    3.8680 N   0  0  0  0  0  0  0  0  0  0  0  0
    5.2803    9.1989    3.9648 C   0  0  0  0  0  0  0  0  0  0  0  0
   10.7489   10.0773    3.0372 C   0  0  0  0  0  0  0  0  0  0  0  0
   12.1500    9.6695    2.5861 C   0  0  0  0  0  0  0  0  0  0  0  0
  1  2  1  0
  2  3  1  0
  2  4  1  0
  4  5  1  0
  5  6  1  0
  6  7  1  0
  7  8  1  0
  8  9  2  0
  8 10  1  0
 10 11  1  0
 11 12  1  0
 12 13  2  0
 13 14  1  0
 14 15  1  0
  7 16  1  0
 16 17  1  0
 17  4  1  0
 15 11  2  0
M  CHG  1   3   1
M  END
>  <EmbedRMS>  (2) 
0.3005329260886256

>  <Gold.Version>  (2) 
2020.3.0

>  <Gold.Id.Protein>  (2) 
unknown|1q8t_protein|pdb

>  <Gold.PLP.Fitness>  (2) 
46.3814

>  <Gold.PLP.PLP>  (2) 
-34.7614

>  <Gold.PLP.part.hbond>  (2) 
-2.5392

>  <Gold.PLP.part.metal>  (2) 
0.0000

>  <Gold.PLP.part.buried>  (2) 
-4.1392

>  <Gold.PLP.part.nonpolar>  (2) 
-29.2286

>  <Gold.PLP.part.repulsive>  (2) 
0.1216

>  <Gold.PLP.ligand.clash>  (2) 
0.0000

>  <Gold.PLP.ligand.torsion>  (2) 
1.4126

>  <Gold.PLP.Chemscore.Hbond>  (2) 
3.6080

>  <Gold.PLP.Chemscore.CHOScore>  (2) 
1.0000

>  <Gold.PLP.Chemscore.Metal>  (2) 
0.0000

>  <Gold.Chemscore.Hbonds>  (2) 
donor molecule, donor type, donor heavy atom, donor atom, acceptor molecule, acceptor atom, score
      L1  H     3    23       P1  2902  2.00
      L1  H     3    24       P1  2691  0.61
      L1  H    10    31       P1  2887  1.00
      L1  C    13    33       P1  1855  1.00

>  <Gold.PLP.Chemscore.Internal.Correction>  (2) 
0.6212

>  <Gold.PLP.Constraint>  (2) 
-0.0000

>  <Gold.Protein.RotatedTorsions>  (2) 
[  681  677  676  673 ] final  143.05 input -179.99 | X-H torsion
[  702  698  697  694 ] final -103.68 input  179.99 | X-H torsion
[ 2577 2569 2568 2566 ] final  -30.10 input   -0.13 | X-H torsion
[ 2891 2887 2886 2883 ] final  -26.43 input  179.98 | X-H torsion
[ 3175 3171 3170 3167 ] final  132.01 input -179.99 | X-H torsion
[ 5278 5270 5269 5267 ] final  -67.76 input    0.55 | X-H torsion
[  641  637  636  633 ] final  138.21 input  179.99 | X-H torsion
[ 1886 1878 1877 1875 ] final   -9.17 input    1.60 | X-H torsion
[  965  957  956  954 ] final -122.92 input    0.45 | X-H torsion

>  <Gold.Protein.ActiveResidues>  (2) 
 LYS47   THR48   LEU49   GLY50   THR51   GLY52   SER53   PHE54   GLY55   ARG56  
 VAL57   MET58   LEU59   TYR69   ALA70   MET71   LYS72   ILE73   LEU74   GLU91  
 LEU95   VAL104  LYS105  MET118  VAL119  MET120  GLU121  TYR122  VAL123  PRO124 
 GLY125  GLY126  GLU127  MET128  PHE129  TYR164  ASP166  LEU167  LYS168  PRO169 
 GLU170  ASN171  LEU172  LEU173  ILE174  GLN181  VAL182  THR183  ASP184  PHE185 
 GLY186  PHE187  GLY200  THR201  ASN326  PHE327  TYR330  ARG18   ARG19   ASN20  
 ALA21   ILE22   HIS23  

>  <Gold.Protein.RotatedAtoms>  (2) 
   11.0296   19.6400    8.6999 H   0  0  0  0  0  0  0  0  0  0  0  0  # atno 641  bound_to 637 
   17.2407   13.6318    6.5920 H   0  0  0  0  0  0  0  0  0  0  0  0  # atno 681  bound_to 677 
   20.8782   11.5780   -0.5262 H   0  0  0  0  0  0  0  0  0  0  0  0  # atno 702  bound_to 698 
   -6.5503   16.9302   -1.3401 H   0  0  0  0  0  0  0  0  0  0  0  0  # atno 965  bound_to 957 
    2.2023   11.1771   10.3057 H   0  0  0  0  0  0  0  0  0  0  0  0  # atno 1886 bound_to 1878
   10.2129    3.3714   -3.4080 H   0  0  0  0  0  0  0  0  0  0  0  0  # atno 2577 bound_to 2569
    7.8294    5.2223    0.6016 H   0  0  0  0  0  0  0  0  0  0  0  0  # atno 2891 bound_to 2887
   17.9220    1.9569   -0.4553 H   0  0  0  0  0  0  0  0  0  0  0  0  # atno 3175 bound_to 3171
   13.4150    9.8116   10.4766 H   0  0  0  0  0  0  0  0  0  0  0  0  # atno 5278 bound_to 5270
   16.1403   12.5425    6.2194 LP  0  0  0  0  0  0  0  0  0  0  0  0  # atno 5914 bound_to 677 
   15.8876   13.6072    7.4315 LP  0  0  0  0  0  0  0  0  0  0  0  0  # atno 5915 bound_to 677 
   20.4385   11.6686   -2.0545 LP  0  0  0  0  0  0  0  0  0  0  0  0  # atno 5920 bound_to 698 
   19.3421   11.8398   -0.8565 LP  0  0  0  0  0  0  0  0  0  0  0  0  # atno 5921 bound_to 698 
   10.9730    2.2590   -2.5595 LP  0  0  0  0  0  0  0  0  0  0  0  0  # atno 5950 bound_to 2569
    9.3442    2.2554   -2.6764 LP  0  0  0  0  0  0  0  0  0  0  0  0  # atno 5951 bound_to 2569
    7.1804    6.2547    1.6261 LP  0  0  0  0  0  0  0  0  0  0  0  0  # atno 5982 bound_to 2887
    8.2544    6.7540    0.5018 LP  0  0  0  0  0  0  0  0  0  0  0  0  # atno 5983 bound_to 2887
   19.0194    2.6730   -1.3600 LP  0  0  0  0  0  0  0  0  0  0  0  0  # atno 6000 bound_to 3171
   19.0075    2.8763    0.2602 LP  0  0  0  0  0  0  0  0  0  0  0  0  # atno 6001 bound_to 3171
   14.4006   10.1047    9.2603 LP  0  0  0  0  0  0  0  0  0  0  0  0  # atno 6004 bound_to 5270
   12.7813   10.1391    9.0526 LP  0  0  0  0  0  0  0  0  0  0  0  0  # atno 6005 bound_to 5270
    9.5391   19.4696    8.1666 LP  0  0  0  0  0  0  0  0  0  0  0  0  # atno 6055 bound_to 637 
   10.8094   18.9475    7.2832 LP  0  0  0  0  0  0  0  0  0  0  0  0  # atno 6056 bound_to 637 
    0.7735   10.7825   10.8873 LP  0  0  0  0  0  0  0  0  0  0  0  0  # atno 6063 bound_to 1878
    1.2934   12.3301   10.9220 LP  0  0  0  0  0  0  0  0  0  0  0  0  # atno 6064 bound_to 1878
   -7.2002   16.4709    0.0389 LP  0  0  0  0  0  0  0  0  0  0  0  0  # atno 6067 bound_to 957 
   -6.7092   15.3703   -1.0631 LP  0  0  0  0  0  0  0  0  0  0  0  0  # atno 6068 bound_to 957 

>  <STRIFE_LigEff_Score>  (2) 
2.7283176470588235

$$$$
unknown|pharmsElabsTestPreDocking|sdf|12|dock8
     RDKit          3D

 18 19  0  0  0  0  0  0  0  0999 V2000
   14.7287    9.5640    0.8725 C   0  0  0  0  0  0  0  0  0  0  0  0
   14.0247    8.3262    1.4014 C   0  0  0  0  0  0  0  0  0  0  0  0
   14.3154    7.0920    0.6829 N   0  0  0  0  0  0  0  0  0  0  0  0
   12.5731    8.5188    1.9288 C   0  0  0  0  0  0  0  0  0  0  0  0
   11.9459    7.3999    2.7796 C   0  0  0  0  0  0  0  0  0  0  0  0
   10.4198    7.5880    2.7612 C   0  0  0  0  0  0  0  0  0  0  0  0
   10.0342    8.9720    3.3159 C   0  0  0  0  0  0  0  0  0  0  0  0
    8.5488    9.1832    3.2381 C   0  0  0  0  0  0  0  0  0  0  0  0
    7.9696    9.2184    2.1173 O   0  0  0  0  0  0  0  0  0  0  0  0
    7.8186    9.3711    4.4557 N   0  0  0  0  0  0  0  0  0  0  0  0
    6.4047    9.5587    4.5554 C   0  0  0  0  0  0  0  0  0  0  0  0
    5.6847   10.0997    5.6099 C   0  0  0  0  0  0  0  0  0  0  0  0
    4.3633   10.0496    5.2173 C   0  0  0  0  0  0  0  0  0  0  0  0
    4.2707    9.5199    3.9816 N   0  0  0  0  0  0  0  0  0  0  0  0
    3.0399    9.2716    3.2462 C   0  0  0  0  0  0  0  0  0  0  0  0
    5.5100    9.2023    3.5725 C   0  0  0  0  0  0  0  0  0  0  0  0
   10.7760   10.1278    2.6180 C   0  0  0  0  0  0  0  0  0  0  0  0
   12.2910    9.8840    2.5804 C   0  0  0  0  0  0  0  0  0  0  0  0
  1  2  1  0
  2  3  1  0
  2  4  1  0
  4  5  1  0
  5  6  1  0
  6  7  1  0
  7  8  1  0
  8  9  2  0
  8 10  1  0
 10 11  1  0
 11 12  1  0
 12 13  2  0
 13 14  1  0
 14 15  1  0
 14 16  1  0
  7 17  1  0
 17 18  1  0
 18  4  1  0
 16 11  2  0
M  CHG  1   3   1
M  END
>  <EmbedRMS>  (3) 
0.18278266355164025

>  <Gold.Version>  (3) 
2020.3.0

>  <Gold.Id.Protein>  (3) 
unknown|1q8t_protein|pdb

>  <Gold.PLP.Fitness>  (3) 
53.9064

>  <Gold.PLP.PLP>  (3) 
-45.6240

>  <Gold.PLP.part.hbond>  (3) 
-2.0000

>  <Gold.PLP.part.metal>  (3) 
0.0000

>  <Gold.PLP.part.buried>  (3) 
-2.4181

>  <Gold.PLP.part.nonpolar>  (3) 
-41.5041

>  <Gold.PLP.part.repulsive>  (3) 
0.0779

>  <Gold.PLP.ligand.clash>  (3) 
0.0000

>  <Gold.PLP.ligand.torsion>  (3) 
0.3407

>  <Gold.PLP.Chemscore.Hbond>  (3) 
2.8640

>  <Gold.PLP.Chemscore.CHOScore>  (3) 
0.0000

>  <Gold.PLP.Chemscore.Metal>  (3) 
0.0000

>  <Gold.Chemscore.Hbonds>  (3) 
donor molecule, donor type, donor heavy atom, donor atom, acceptor molecule, acceptor atom, score
      L1  H     3    23       P1  2691  0.98
      L1  H     3    24       P1  2902  1.89

>  <Gold.PLP.Chemscore.Internal.Correction>  (3) 
0.3719

>  <Gold.PLP.Constraint>  (3) 
-0.0000

>  <Gold.Protein.RotatedTorsions>  (3) 
[  681  677  676  673 ] final   72.69 input -179.99 | X-H torsion
[  702  698  697  694 ] final -177.03 input  179.99 | X-H torsion
[ 2577 2569 2568 2566 ] final   15.52 input   -0.13 | X-H torsion
[ 2891 2887 2886 2883 ] final  109.93 input  179.98 | X-H torsion
[ 3175 3171 3170 3167 ] final  150.54 input -179.99 | X-H torsion
[ 5278 5270 5269 5267 ] final  -31.97 input    0.55 | X-H torsion
[  641  637  636  633 ] final   68.56 input  179.99 | X-H torsion
[ 1886 1878 1877 1875 ] final  -52.41 input    1.60 | X-H torsion
[  965  957  956  954 ] final  116.24 input    0.45 | X-H torsion

>  <Gold.Protein.ActiveResidues>  (3) 
 LYS47   THR48   LEU49   GLY50   THR51   GLY52   SER53   PHE54   GLY55   ARG56  
 VAL57   MET58   LEU59   TYR69   ALA70   MET71   LYS72   ILE73   LEU74   GLU91  
 LEU95   VAL104  LYS105  MET118  VAL119  MET120  GLU121  TYR122  VAL123  PRO124 
 GLY125  GLY126  GLU127  MET128  PHE129  TYR164  ASP166  LEU167  LYS168  PRO169 
 GLU170  ASN171  LEU172  LEU173  ILE174  GLN181  VAL182  THR183  ASP184  PHE185 
 GLY186  PHE187  GLY200  THR201  ASN326  PHE327  TYR330  ARG18   ARG19   ASN20  
 ALA21   ILE22   HIS23  

>  <Gold.Protein.RotatedAtoms>  (3) 
   10.0107   19.7177    8.7406 H   0  0  0  0  0  0  0  0  0  0  0  0  # atno 641  bound_to 637 
   16.8346   12.8441    6.0626 H   0  0  0  0  0  0  0  0  0  0  0  0  # atno 681  bound_to 677 
   20.9942   11.5780   -1.5906 H   0  0  0  0  0  0  0  0  0  0  0  0  # atno 702  bound_to 698 
   -7.1674   16.4478    0.0058 H   0  0  0  0  0  0  0  0  0  0  0  0  # atno 965  bound_to 957 
    1.7979   10.6636   10.3964 H   0  0  0  0  0  0  0  0  0  0  0  0  # atno 1886 bound_to 1878
    9.5640    3.1487   -3.3009 H   0  0  0  0  0  0  0  0  0  0  0  0  # atno 2577 bound_to 2569
    8.0957    6.8621    0.6861 H   0  0  0  0  0  0  0  0  0  0  0  0  # atno 2891 bound_to 2887
   17.9574    2.0196   -0.1760 H   0  0  0  0  0  0  0  0  0  0  0  0  # atno 3175 bound_to 3171
   12.9172    9.8630   10.2471 H   0  0  0  0  0  0  0  0  0  0  0  0  # atno 5278 bound_to 5270
   15.5763   13.0033    7.0256 LP  0  0  0  0  0  0  0  0  0  0  0  0  # atno 5914 bound_to 677 
   16.8790   13.9755    7.1825 LP  0  0  0  0  0  0  0  0  0  0  0  0  # atno 5915 bound_to 677 
   19.4229   11.8398   -1.5987 LP  0  0  0  0  0  0  0  0  0  0  0  0  # atno 5920 bound_to 698 
   20.2357   11.6686   -0.1927 LP  0  0  0  0  0  0  0  0  0  0  0  0  # atno 5921 bound_to 698 
   11.0925    2.8555   -2.9649 LP  0  0  0  0  0  0  0  0  0  0  0  0  # atno 5950 bound_to 2569
    9.9079    1.8934   -2.3837 LP  0  0  0  0  0  0  0  0  0  0  0  0  # atno 5951 bound_to 2569
    8.0171    5.2927    0.4265 LP  0  0  0  0  0  0  0  0  0  0  0  0  # atno 5982 bound_to 2887
    7.1375    5.9902    1.6125 LP  0  0  0  0  0  0  0  0  0  0  0  0  # atno 5983 bound_to 2887
   18.7914    2.4927   -1.4473 LP  0  0  0  0  0  0  0  0  0  0  0  0  # atno 6000 bound_to 3171
   19.1983    2.9906    0.0537 LP  0  0  0  0  0  0  0  0  0  0  0  0  # atno 6001 bound_to 3171
   14.4483    9.9669    9.8210 LP  0  0  0  0  0  0  0  0  0  0  0  0  # atno 6004 bound_to 5270
   13.2575   10.2228    8.7333 LP  0  0  0  0  0  0  0  0  0  0  0  0  # atno 6005 bound_to 5270
   10.0103   19.0085    7.3152 LP  0  0  0  0  0  0  0  0  0  0  0  0  # atno 6055 bound_to 637 
   11.4111   19.3268    8.0917 LP  0  0  0  0  0  0  0  0  0  0  0  0  # atno 6056 bound_to 637 
    0.5759   11.4191   11.0830 LP  0  0  0  0  0  0  0  0  0  0  0  0  # atno 6063 bound_to 1878
    1.9168   12.2340   10.6308 LP  0  0  0  0  0  0  0  0  0  0  0  0  # atno 6064 bound_to 1878
   -6.7036   15.3747   -1.0751 LP  0  0  0  0  0  0  0  0  0  0  0  0  # atno 6067 bound_to 957 
   -6.5557   16.9746   -1.3665 LP  0  0  0  0  0  0  0  0  0  0  0  0  # atno 6068 bound_to 957 

>  <STRIFE_LigEff_Score>  (3) 
2.9947999999999997

$$$$
unknown|pharmsElabsTestPreDocking|sdf|13|dock3
     RDKit          3D

 13 13  0  0  0  0  0  0  0  0999 V2000
    4.8074    8.8968    2.9394 C   0  0  0  0  0  0  0  0  0  0  0  0
    6.1964    8.9015    2.4742 N   0  0  0  0  0  0  0  0  0  0  0  0
    7.2665    9.0099    3.4240 C   0  0  0  0  0  0  0  0  0  0  0  0
    6.9907    9.1822    4.6371 O   0  0  0  0  0  0  0  0  0  0  0  0
    8.7283    8.9092    3.1035 C   0  0  0  0  0  0  0  0  0  0  0  0
    9.3001    7.4898    3.1467 C   0  0  0  0  0  0  0  0  0  0  0  0
   10.8347    7.4165    3.0051 C   0  0  0  0  0  0  0  0  0  0  0  0
   11.3824    8.6424    2.2572 C   0  0  0  0  0  0  0  0  0  0  0  0
   12.8385    8.5665    1.7029 C   0  0  0  0  0  0  0  0  0  0  0  0
   13.4271    9.8473    1.1360 C   0  0  0  0  0  0  0  0  0  0  0  0
   13.2246    7.3500    0.9958 N   0  0  0  0  0  0  0  0  0  0  0  0
   11.0946    9.9182    3.0745 C   0  0  0  0  0  0  0  0  0  0  0  0
    9.6074   10.1026    3.4439 C   0  0  0  0  0  0  0  0  0  0  0  0
  1  2  1  0
  2  3  1  0
  3  4  2  0
  3  5  1  0
  5  6  1  0
  6  7  1  0
  7  8  1  0
  8  9  1  0
  9 10  1  0
  9 11  1  0
  8 12  1  0
 12 13  1  0
 13  5  1  0
M  CHG  1  11   1
M  END
>  <EmbedRMS>  (4) 
0.29639754771625826

>  <Gold.Version>  (4) 
2020.3.0

>  <Gold.Id.Protein>  (4) 
unknown|1q8t_protein|pdb

>  <Gold.PLP.Fitness>  (4) 
34.2265

>  <Gold.PLP.PLP>  (4) 
-26.1382

>  <Gold.PLP.part.hbond>  (4) 
-2.0000

>  <Gold.PLP.part.metal>  (4) 
0.0000

>  <Gold.PLP.part.buried>  (4) 
-2.7299

>  <Gold.PLP.part.nonpolar>  (4) 
-20.4363

>  <Gold.PLP.part.repulsive>  (4) 
0.0510

>  <Gold.PLP.ligand.clash>  (4) 
0.0000

>  <Gold.PLP.ligand.torsion>  (4) 
0.5263

>  <Gold.PLP.Chemscore.Hbond>  (4) 
2.7040

>  <Gold.PLP.Chemscore.CHOScore>  (4) 
0.0000

>  <Gold.PLP.Chemscore.Metal>  (4) 
0.0000

>  <Gold.Chemscore.Hbonds>  (4) 
donor molecule, donor type, donor heavy atom, donor atom, acceptor molecule, acceptor atom, score
      L1  H    11    28       P1  2691  0.70
      L1  H    11    29       P1  2902  2.00

>  <Gold.PLP.Chemscore.Internal.Correction>  (4) 
1.0290

>  <Gold.PLP.Constraint>  (4) 
-0.0000

>  <Gold.Protein.RotatedTorsions>  (4) 
[  681  677  676  673 ] final   77.42 input -179.99 | X-H torsion
[  702  698  697  694 ] final   16.30 input  179.99 | X-H torsion
[ 2577 2569 2568 2566 ] final  119.25 input   -0.13 | X-H torsion
[ 2891 2887 2886 2883 ] final  134.59 input  179.98 | X-H torsion
[ 3175 3171 3170 3167 ] final  -98.83 input -179.99 | X-H torsion
[ 5278 5270 5269 5267 ] final    5.94 input    0.55 | X-H torsion
[  641  637  636  633 ] final  -63.98 input  179.99 | X-H torsion
[ 1886 1878 1877 1875 ] final  105.48 input    1.60 | X-H torsion
[  965  957  956  954 ] final  113.30 input    0.45 | X-H torsion

>  <Gold.Protein.ActiveResidues>  (4) 
 LYS47   THR48   LEU49   GLY50   THR51   GLY52   SER53   PHE54   GLY55   ARG56  
 VAL57   MET58   LEU59   TYR69   ALA70   MET71   LYS72   ILE73   LEU74   GLU91  
 LEU95   VAL104  LYS105  MET118  VAL119  MET120  GLU121  TYR122  VAL123  PRO124 
 GLY125  GLY126  GLU127  MET128  PHE129  TYR164  ASP166  LEU167  LYS168  PRO169 
 GLU170  ASN171  LEU172  LEU173  ILE174  GLN181  VAL182  THR183  ASP184  PHE185 
 GLY186  PHE187  GLY200  THR201  ASN326  PHE327  TYR330  ARG18   ARG19   ASN20  
 ALA21   ILE22   HIS23  

>  <Gold.Protein.RotatedAtoms>  (4) 
   10.2125   18.9690    7.2964 H   0  0  0  0  0  0  0  0  0  0  0  0  # atno 641  bound_to 637 
   16.8922   12.8895    6.0720 H   0  0  0  0  0  0  0  0  0  0  0  0  # atno 681  bound_to 677 
   19.3889   11.8486   -0.8697 H   0  0  0  0  0  0  0  0  0  0  0  0  # atno 702  bound_to 698 
   -7.1711   16.4026    0.0130 H   0  0  0  0  0  0  0  0  0  0  0  0  # atno 965  bound_to 957 
    1.3700   12.3029   10.8647 H   0  0  0  0  0  0  0  0  0  0  0  0  # atno 1886 bound_to 1878
    9.6927    2.0009   -2.4945 H   0  0  0  0  0  0  0  0  0  0  0  0  # atno 2577 bound_to 2569
    7.8626    6.9490    0.9768 H   0  0  0  0  0  0  0  0  0  0  0  0  # atno 2891 bound_to 2887
   19.0946    2.9026    0.1347 H   0  0  0  0  0  0  0  0  0  0  0  0  # atno 3175 bound_to 3171
   12.6450    9.9836    9.7468 H   0  0  0  0  0  0  0  0  0  0  0  0  # atno 5278 bound_to 5270
   15.5785   12.9487    6.9702 LP  0  0  0  0  0  0  0  0  0  0  0  0  # atno 5914 bound_to 677 
   16.8162   13.9822    7.2280 LP  0  0  0  0  0  0  0  0  0  0  0  0  # atno 5915 bound_to 677 
   20.9091   11.5551   -0.4951 LP  0  0  0  0  0  0  0  0  0  0  0  0  # atno 5920 bound_to 698 
   20.4382   11.6686   -2.0546 LP  0  0  0  0  0  0  0  0  0  0  0  0  # atno 5921 bound_to 698 
    9.7480    3.3194   -3.3855 LP  0  0  0  0  0  0  0  0  0  0  0  0  # atno 5950 bound_to 2569
   11.1169    2.6381   -2.8122 LP  0  0  0  0  0  0  0  0  0  0  0  0  # atno 5951 bound_to 2569
    8.2318    5.5823    0.2472 LP  0  0  0  0  0  0  0  0  0  0  0  0  # atno 5982 bound_to 2887
    7.1680    5.6092    1.4858 LP  0  0  0  0  0  0  0  0  0  0  0  0  # atno 5983 bound_to 2887
   17.8824    1.9689   -0.3059 LP  0  0  0  0  0  0  0  0  0  0  0  0  # atno 6000 bound_to 3171
   18.9105    2.5851   -1.4148 LP  0  0  0  0  0  0  0  0  0  0  0  0  # atno 6001 bound_to 3171
   14.1226    9.8395   10.3238 LP  0  0  0  0  0  0  0  0  0  0  0  0  # atno 6004 bound_to 5270
   13.8695   10.2233    8.7569 LP  0  0  0  0  0  0  0  0  0  0  0  0  # atno 6005 bound_to 5270
   11.3858   19.4209    8.2732 LP  0  0  0  0  0  0  0  0  0  0  0  0  # atno 6055 bound_to 637 
    9.8232   19.7029    8.6546 LP  0  0  0  0  0  0  0  0  0  0  0  0  # atno 6056 bound_to 637 
    2.2183   11.0791   10.3009 LP  0  0  0  0  0  0  0  0  0  0  0  0  # atno 6063 bound_to 1878
    0.7249   10.8483   10.9199 LP  0  0  0  0  0  0  0  0  0  0  0  0  # atno 6064 bound_to 1878
   -6.6847   15.3911   -1.1164 LP  0  0  0  0  0  0  0  0  0  0  0  0  # atno 6067 bound_to 957 
   -6.5708   17.0057   -1.3328 LP  0  0  0  0  0  0  0  0  0  0  0  0  # atno 6068 bound_to 957 

>  <STRIFE_LigEff_Score>  (4) 
2.6328076923076926

$$$$
unknown|pharmsElabsTestPreDocking|sdf|14|dock6
     RDKit          3D

 18 19  0  0  0  0  0  0  0  0999 V2000
   14.7762    7.9794    3.0900 C   0  0  0  0  0  0  0  0  0  0  0  0
   13.7196    8.2210    2.0015 C   0  0  0  0  0  0  0  0  0  0  0  0
   13.8189    7.1881    0.9641 N   0  0  0  0  0  0  0  0  0  0  0  0
   12.2454    8.4252    2.4984 C   0  0  0  0  0  0  0  0  0  0  0  0
   11.1855    7.5246    1.8373 C   0  0  0  0  0  0  0  0  0  0  0  0
    9.7890    8.1124    1.7894 C   0  0  0  0  0  0  0  0  0  0  0  0
    9.4238    8.8585    3.0687 C   0  0  0  0  0  0  0  0  0  0  0  0
    7.9902    9.3131    2.9821 C   0  0  0  0  0  0  0  0  0  0  0  0
    7.6304   10.0190    2.0019 O   0  0  0  0  0  0  0  0  0  0  0  0
    7.0706    8.9611    4.0275 N   0  0  0  0  0  0  0  0  0  0  0  0
    5.6711    9.2889    4.1040 C   0  0  0  0  0  0  0  0  0  0  0  0
    5.0272    9.6727    5.3007 C   0  0  0  0  0  0  0  0  0  0  0  0
    3.6671    9.9675    5.2870 C   0  0  0  0  0  0  0  0  0  0  0  0
    2.9485    9.8835    4.0987 C   0  0  0  0  0  0  0  0  0  0  0  0
    3.6064    9.5027    2.9304 C   0  0  0  0  0  0  0  0  0  0  0  0
    4.9348    9.2177    2.9596 N   0  0  0  0  0  0  0  0  0  0  0  0
   10.3384   10.0723    3.2708 C   0  0  0  0  0  0  0  0  0  0  0  0
   11.8404    9.8044    3.0587 C   0  0  0  0  0  0  0  0  0  0  0  0
  1  2  1  0
  2  3  1  0
  2  4  1  0
  4  5  1  0
  5  6  1  0
  6  7  1  0
  7  8  1  0
  8  9  2  0
  8 10  1  0
 10 11  1  0
 11 12  2  0
 12 13  1  0
 13 14  2  0
 14 15  1  0
 15 16  2  0
  7 17  1  0
 17 18  1  0
 18  4  1  0
 16 11  1  0
M  CHG  1   3   1
M  END
>  <EmbedRMS>  (5) 
0.16489371128598093

>  <Gold.Version>  (5) 
2020.3.0

>  <Gold.Id.Protein>  (5) 
unknown|1q8t_protein|pdb

>  <Gold.PLP.Fitness>  (5) 
51.7939

>  <Gold.PLP.PLP>  (5) 
-43.8790

>  <Gold.PLP.part.hbond>  (5) 
-2.0000

>  <Gold.PLP.part.metal>  (5) 
0.0000

>  <Gold.PLP.part.buried>  (5) 
-2.0490

>  <Gold.PLP.part.nonpolar>  (5) 
-40.4744

>  <Gold.PLP.part.repulsive>  (5) 
0.0609

>  <Gold.PLP.ligand.clash>  (5) 
0.0000

>  <Gold.PLP.ligand.torsion>  (5) 
1.3668

>  <Gold.PLP.Chemscore.Hbond>  (5) 
3.0000

>  <Gold.PLP.Chemscore.CHOScore>  (5) 
0.3641

>  <Gold.PLP.Chemscore.Metal>  (5) 
0.0000

>  <Gold.Chemscore.Hbonds>  (5) 
donor molecule, donor type, donor heavy atom, donor atom, acceptor molecule, acceptor atom, score
      L1  H     3    23       P1  2902  2.00
      L1  H     3    25       P1  2691  1.00
      L1  C    15    36       P1  1855  0.36

>  <Gold.PLP.Chemscore.Internal.Correction>  (5) 
0.5562

>  <Gold.PLP.Constraint>  (5) 
-0.0000

>  <Gold.Protein.RotatedTorsions>  (5) 
[  681  677  676  673 ] final   41.91 input -179.99 | X-H torsion
[  702  698  697  694 ] final  -47.56 input  179.99 | X-H torsion
[ 2577 2569 2568 2566 ] final  124.07 input   -0.13 | X-H torsion
[ 2891 2887 2886 2883 ] final  103.93 input  179.98 | X-H torsion
[ 3175 3171 3170 3167 ] final  -86.49 input -179.99 | X-H torsion
[ 5278 5270 5269 5267 ] final   52.21 input    0.55 | X-H torsion
[  641  637  636  633 ] final -136.01 input  179.99 | X-H torsion
[ 1886 1878 1877 1875 ] final   73.94 input    1.60 | X-H torsion
[  965  957  956  954 ] final -108.60 input    0.45 | X-H torsion

>  <Gold.Protein.ActiveResidues>  (5) 
 LYS47   THR48   LEU49   GLY50   THR51   GLY52   SER53   PHE54   GLY55   ARG56  
 VAL57   MET58   LEU59   TYR69   ALA70   MET71   LYS72   ILE73   LEU74   GLU91  
 LEU95   VAL104  LYS105  MET118  VAL119  MET120  GLU121  TYR122  VAL123  PRO124 
 GLY125  GLY126  GLU127  MET128  PHE129  TYR164  ASP166  LEU167  LYS168  PRO169 
 GLU170  ASN171  LEU172  LEU173  ILE174  GLN181  VAL182  THR183  ASP184  PHE185 
 GLY186  PHE187  GLY200  THR201  ASN326  PHE327  TYR330  ARG18   ARG19   ASN20  
 ALA21   ILE22   HIS23  

>  <Gold.Protein.RotatedAtoms>  (5) 
   11.2045   19.0838    7.6297 H   0  0  0  0  0  0  0  0  0  0  0  0  # atno 641  bound_to 637 
   16.4124   12.6317    6.1136 H   0  0  0  0  0  0  0  0  0  0  0  0  # atno 681  bound_to 677 
   20.0931   11.7118   -0.2497 H   0  0  0  0  0  0  0  0  0  0  0  0  # atno 702  bound_to 698 
   -6.4916   16.7603   -1.4726 H   0  0  0  0  0  0  0  0  0  0  0  0  # atno 965  bound_to 957 
    1.8076   12.2398   10.6610 H   0  0  0  0  0  0  0  0  0  0  0  0  # atno 1886 bound_to 1878
    9.7574    1.9718   -2.4695 H   0  0  0  0  0  0  0  0  0  0  0  0  # atno 2577 bound_to 2569
    8.1442    6.8177    0.6192 H   0  0  0  0  0  0  0  0  0  0  0  0  # atno 2891 bound_to 2887
   19.2047    2.9652   -0.0103 H   0  0  0  0  0  0  0  0  0  0  0  0  # atno 3175 bound_to 3171
   12.8180   10.1487    9.0846 H   0  0  0  0  0  0  0  0  0  0  0  0  # atno 5278 bound_to 5270
   15.7027   13.3839    7.3247 LP  0  0  0  0  0  0  0  0  0  0  0  0  # atno 5914 bound_to 677 
   17.1970   13.8183    6.8296 LP  0  0  0  0  0  0  0  0  0  0  0  0  # atno 5915 bound_to 677 
   21.0971   11.5406   -1.4745 LP  0  0  0  0  0  0  0  0  0  0  0  0  # atno 5920 bound_to 698 
   19.5095   11.8269   -1.7274 LP  0  0  0  0  0  0  0  0  0  0  0  0  # atno 5921 bound_to 698 
    9.6792    3.2849   -3.3667 LP  0  0  0  0  0  0  0  0  0  0  0  0  # atno 5950 bound_to 2569
   11.1175    2.7032   -2.8573 LP  0  0  0  0  0  0  0  0  0  0  0  0  # atno 5951 bound_to 2569
    7.9560    5.2419    0.4852 LP  0  0  0  0  0  0  0  0  0  0  0  0  # atno 5982 bound_to 2887
    7.1475    6.0877    1.6242 LP  0  0  0  0  0  0  0  0  0  0  0  0  # atno 5983 bound_to 2887
   17.9241    2.0247   -0.1156 LP  0  0  0  0  0  0  0  0  0  0  0  0  # atno 6000 bound_to 3171
   18.7529    2.4635   -1.4525 LP  0  0  0  0  0  0  0  0  0  0  0  0  # atno 6001 bound_to 3171
   13.4096    9.7843   10.5177 LP  0  0  0  0  0  0  0  0  0  0  0  0  # atno 6004 bound_to 5270
   14.4005   10.1048    9.2599 LP  0  0  0  0  0  0  0  0  0  0  0  0  # atno 6005 bound_to 5270
   10.5455   19.7865    8.8973 LP  0  0  0  0  0  0  0  0  0  0  0  0  # atno 6055 bound_to 637 
    9.6187   19.2165    7.6796 LP  0  0  0  0  0  0  0  0  0  0  0  0  # atno 6056 bound_to 637 
    1.9072   10.6776   10.3696 LP  0  0  0  0  0  0  0  0  0  0  0  0  # atno 6063 bound_to 1878
    0.5753   11.3162   11.0657 LP  0  0  0  0  0  0  0  0  0  0  0  0  # atno 6064 bound_to 1878
   -7.1659   16.6924   -0.0318 LP  0  0  0  0  0  0  0  0  0  0  0  0  # atno 6067 bound_to 957 
   -6.8053   15.3276   -0.8528 LP  0  0  0  0  0  0  0  0  0  0  0  0  # atno 6068 bound_to 957 

>  <STRIFE_LigEff_Score>  (5) 
2.877438888888889

$$$$
unknown|pharmsElabsTestPreDocking|sdf|15|dock4
     RDKit          3D

 18 18  0  0  0  0  0  0  0  0999 V2000
    5.2060    9.2043    1.4046 C   0  0  0  0  0  0  0  0  0  0  0  0
    4.7787    9.1253    2.6676 C   0  0  0  0  0  0  0  0  0  0  0  0
    3.3010    9.0065    2.9437 C   0  0  0  0  0  0  0  0  0  0  0  0
    5.7552    9.3024    3.7828 C   0  0  0  0  0  0  0  0  0  0  0  0
    5.4139   10.0402    4.8561 C   0  0  0  0  0  0  0  0  0  0  0  0
    6.3441   10.2928    6.0019 C   0  0  0  0  0  0  0  0  0  0  0  0
    7.1011    8.7949    3.6759 N   0  0  0  0  0  0  0  0  0  0  0  0
    8.0841    9.2721    2.7494 C   0  0  0  0  0  0  0  0  0  0  0  0
    7.7698   10.1021    1.8494 O   0  0  0  0  0  0  0  0  0  0  0  0
    9.5079    8.7813    2.8674 C   0  0  0  0  0  0  0  0  0  0  0  0
    9.8994    8.0311    1.6001 C   0  0  0  0  0  0  0  0  0  0  0  0
   11.2804    7.4074    1.6954 C   0  0  0  0  0  0  0  0  0  0  0  0
   12.3387    8.2734    2.4048 C   0  0  0  0  0  0  0  0  0  0  0  0
   13.8264    8.0332    1.9649 C   0  0  0  0  0  0  0  0  0  0  0  0
   14.8168    7.6782    3.0843 C   0  0  0  0  0  0  0  0  0  0  0  0
   13.9340    7.0620    0.8702 N   0  0  0  0  0  0  0  0  0  0  0  0
   11.9490    9.6581    2.9633 C   0  0  0  0  0  0  0  0  0  0  0  0
   10.4466    9.9684    3.1093 C   0  0  0  0  0  0  0  0  0  0  0  0
  1  2  2  0
  2  3  1  0
  2  4  1  0
  4  5  2  0
  5  6  1  0
  4  7  1  0
  7  8  1  0
  8  9  2  0
  8 10  1  0
 10 11  1  0
 11 12  1  0
 12 13  1  0
 13 14  1  0
 14 15  1  0
 14 16  1  0
 13 17  1  0
 17 18  1  0
 18 10  1  0
M  CHG  1  16   1
M  END
>  <EmbedRMS>  (6) 
0.16480955270904202

>  <Gold.Version>  (6) 
2020.3.0

>  <Gold.Id.Protein>  (6) 
unknown|1q8t_protein|pdb

>  <Gold.PLP.Fitness>  (6) 
47.4377

>  <Gold.PLP.PLP>  (6) 
-41.3176

>  <Gold.PLP.part.hbond>  (6) 
-2.0000

>  <Gold.PLP.part.metal>  (6) 
0.0000

>  <Gold.PLP.part.buried>  (6) 
-2.6708

>  <Gold.PLP.part.nonpolar>  (6) 
-37.0969

>  <Gold.PLP.part.repulsive>  (6) 
0.0683

>  <Gold.PLP.ligand.clash>  (6) 
0.0000

>  <Gold.PLP.ligand.torsion>  (6) 
2.2266

>  <Gold.PLP.Chemscore.Hbond>  (6) 
3.0000

>  <Gold.PLP.Chemscore.CHOScore>  (6) 
0.0000

>  <Gold.PLP.Chemscore.Metal>  (6) 
0.0000

>  <Gold.Chemscore.Hbonds>  (6) 
donor molecule, donor type, donor heavy atom, donor atom, acceptor molecule, acceptor atom, score
      L1  H    16    39       P1  2902  2.00
      L1  H    16    41       P1  2691  1.00

>  <Gold.PLP.Chemscore.Internal.Correction>  (6) 
1.5733

>  <Gold.PLP.Constraint>  (6) 
-0.0000

>  <Gold.Protein.RotatedTorsions>  (6) 
[  681  677  676  673 ] final  147.63 input -179.99 | X-H torsion
[  702  698  697  694 ] final -138.63 input  179.99 | X-H torsion
[ 2577 2569 2568 2566 ] final  127.07 input   -0.13 | X-H torsion
[ 2891 2887 2886 2883 ] final  -33.91 input  179.98 | X-H torsion
[ 3175 3171 3170 3167 ] final  120.75 input -179.99 | X-H torsion
[ 5278 5270 5269 5267 ] final -173.00 input    0.55 | X-H torsion
[  641  637  636  633 ] final   20.23 input  179.99 | X-H torsion
[ 1886 1878 1877 1875 ] final  -88.03 input    1.60 | X-H torsion
[  965  957  956  954 ] final  122.26 input    0.45 | X-H torsion

>  <Gold.Protein.ActiveResidues>  (6) 
 LYS47   THR48   LEU49   GLY50   THR51   GLY52   SER53   PHE54   GLY55   ARG56  
 VAL57   MET58   LEU59   TYR69   ALA70   MET71   LYS72   ILE73   LEU74   GLU91  
 LEU95   VAL104  LYS105  MET118  VAL119  MET120  GLU121  TYR122  VAL123  PRO124 
 GLY125  GLY126  GLU127  MET128  PHE129  TYR164  ASP166  LEU167  LYS168  PRO169 
 GLU170  ASN171  LEU172  LEU173  ILE174  GLN181  VAL182  THR183  ASP184  PHE185 
 GLY186  PHE187  GLY200  THR201  ASN326  PHE327  TYR330  ARG18   ARG19   ASN20  
 ALA21   ILE22   HIS23  

>  <Gold.Protein.RotatedAtoms>  (6) 
    9.5906   19.4635    8.1966 H   0  0  0  0  0  0  0  0  0  0  0  0  # atno 641  bound_to 637 
   17.2270   13.6773    6.6456 H   0  0  0  0  0  0  0  0  0  0  0  0  # atno 681  bound_to 677 
   21.1065   11.5469   -1.0127 H   0  0  0  0  0  0  0  0  0  0  0  0  # atno 702  bound_to 698 
   -7.1569   16.5388   -0.0154 H   0  0  0  0  0  0  0  0  0  0  0  0  # atno 965  bound_to 957 
    1.3012   10.5462   10.5954 H   0  0  0  0  0  0  0  0  0  0  0  0  # atno 1886 bound_to 1878
    9.7993    1.9560   -2.4555 H   0  0  0  0  0  0  0  0  0  0  0  0  # atno 2577 bound_to 2569
    7.7520    5.1938    0.6845 H   0  0  0  0  0  0  0  0  0  0  0  0  # atno 2891 bound_to 2887
   17.9372    1.9452   -0.6300 H   0  0  0  0  0  0  0  0  0  0  0  0  # atno 3175 bound_to 3171
   14.4178   10.0636    9.4974 H   0  0  0  0  0  0  0  0  0  0  0  0  # atno 5278 bound_to 5270
   16.2059   12.5463    6.1825 LP  0  0  0  0  0  0  0  0  0  0  0  0  # atno 5914 bound_to 677 
   15.8363   13.5555    7.4120 LP  0  0  0  0  0  0  0  0  0  0  0  0  # atno 5915 bound_to 677 
   19.8826   11.7662   -2.0084 LP  0  0  0  0  0  0  0  0  0  0  0  0  # atno 5920 bound_to 698 
   19.6578   11.7748   -0.3910 LP  0  0  0  0  0  0  0  0  0  0  0  0  # atno 5921 bound_to 698 
    9.6381    3.2612   -3.3532 LP  0  0  0  0  0  0  0  0  0  0  0  0  # atno 5950 bound_to 2569
   11.1146    2.7436   -2.8856 LP  0  0  0  0  0  0  0  0  0  0  0  0  # atno 5951 bound_to 2569
    7.2161    6.3717    1.6128 LP  0  0  0  0  0  0  0  0  0  0  0  0  # atno 5982 bound_to 2887
    8.3002    6.6669    0.4278 LP  0  0  0  0  0  0  0  0  0  0  0  0  # atno 5983 bound_to 2887
   19.1398    2.7749   -1.2633 LP  0  0  0  0  0  0  0  0  0  0  0  0  # atno 6000 bound_to 3171
   18.8711    2.7867    0.3474 LP  0  0  0  0  0  0  0  0  0  0  0  0  # atno 6001 bound_to 3171
   12.9518   10.1819    8.8860 LP  0  0  0  0  0  0  0  0  0  0  0  0  # atno 6004 bound_to 5270
   13.1750    9.7967   10.4572 LP  0  0  0  0  0  0  0  0  0  0  0  0  # atno 6005 bound_to 5270
   10.7782   18.9437    7.2723 LP  0  0  0  0  0  0  0  0  0  0  0  0  # atno 6055 bound_to 637 
   11.0858   19.6594    8.7075 LP  0  0  0  0  0  0  0  0  0  0  0  0  # atno 6056 bound_to 637 
    0.7685   11.9626   11.0907 LP  0  0  0  0  0  0  0  0  0  0  0  0  # atno 6063 bound_to 1878
    2.2471   11.8141   10.4136 LP  0  0  0  0  0  0  0  0  0  0  0  0  # atno 6064 bound_to 1878
   -6.7434   15.3482   -0.9883 LP  0  0  0  0  0  0  0  0  0  0  0  0  # atno 6067 bound_to 957 
   -6.5270   16.9051   -1.4311 LP  0  0  0  0  0  0  0  0  0  0  0  0  # atno 6068 bound_to 957 

>  <STRIFE_LigEff_Score>  (6) 
2.6354277777777777

$$$$
unknown|pharmsElabsTestPreDocking|sdf|16|dock3
     RDKit          3D

 18 19  0  0  0  0  0  0  0  0999 V2000
   14.7836    7.4859    3.4523 C   0  0  0  0  0  0  0  0  0  0  0  0
   13.8754    8.0827    2.3667 C   0  0  0  0  0  0  0  0  0  0  0  0
   13.9796    7.2955    1.1329 N   0  0  0  0  0  0  0  0  0  0  0  0
   12.3850    8.3489    2.7782 C   0  0  0  0  0  0  0  0  0  0  0  0
   11.3560    7.3245    2.2653 C   0  0  0  0  0  0  0  0  0  0  0  0
    9.9550    7.8700    2.0722 C   0  0  0  0  0  0  0  0  0  0  0  0
    9.5437    8.8306    3.1826 C   0  0  0  0  0  0  0  0  0  0  0  0
    8.1080    9.2371    2.9766 C   0  0  0  0  0  0  0  0  0  0  0  0
    7.7894    9.8447    1.9193 O   0  0  0  0  0  0  0  0  0  0  0  0
    7.1392    8.9530    3.9973 N   0  0  0  0  0  0  0  0  0  0  0  0
    5.7283    9.2483    3.9644 C   0  0  0  0  0  0  0  0  0  0  0  0
    5.0697    9.2232    2.7256 C   0  0  0  0  0  0  0  0  0  0  0  0
    3.7054    9.4958    2.6450 C   0  0  0  0  0  0  0  0  0  0  0  0
    2.9989    9.7942    3.8079 C   0  0  0  0  0  0  0  0  0  0  0  0
    3.6388    9.8178    5.0032 N   0  0  0  0  0  0  0  0  0  0  0  0
    4.9653    9.5571    5.1125 C   0  0  0  0  0  0  0  0  0  0  0  0
   10.4367   10.0767    3.1841 C   0  0  0  0  0  0  0  0  0  0  0  0
   11.9474    9.8004    3.0651 C   0  0  0  0  0  0  0  0  0  0  0  0
  1  2  1  0
  2  3  1  0
  2  4  1  0
  4  5  1  0
  5  6  1  0
  6  7  1  0
  7  8  1  0
  8  9  2  0
  8 10  1  0
 10 11  1  0
 11 12  2  0
 12 13  1  0
 13 14  2  0
 14 15  1  0
 15 16  2  0
  7 17  1  0
 17 18  1  0
 18  4  1  0
 16 11  1  0
M  CHG  1   3   1
M  END
>  <EmbedRMS>  (7) 
0.16496192233382964

>  <Gold.Version>  (7) 
2020.3.0

>  <Gold.Id.Protein>  (7) 
unknown|1q8t_protein|pdb

>  <Gold.PLP.Fitness>  (7) 
52.0894

>  <Gold.PLP.PLP>  (7) 
-42.3470

>  <Gold.PLP.part.hbond>  (7) 
-2.0430

>  <Gold.PLP.part.metal>  (7) 
0.0000

>  <Gold.PLP.part.buried>  (7) 
-3.5047

>  <Gold.PLP.part.nonpolar>  (7) 
-36.7704

>  <Gold.PLP.part.repulsive>  (7) 
0.1393

>  <Gold.PLP.ligand.clash>  (7) 
0.0000

>  <Gold.PLP.ligand.torsion>  (7) 
1.4209

>  <Gold.PLP.Chemscore.Hbond>  (7) 
3.0000

>  <Gold.PLP.Chemscore.CHOScore>  (7) 
1.0000

>  <Gold.PLP.Chemscore.Metal>  (7) 
0.0000

>  <Gold.Chemscore.Hbonds>  (7) 
donor molecule, donor type, donor heavy atom, donor atom, acceptor molecule, acceptor atom, score
      L1  H     3    24       P1  2902  2.00
      L1  H     3    25       P1  2691  1.00
      L1  C    14    35       P1  1855  1.00

>  <Gold.PLP.Chemscore.Internal.Correction>  (7) 
0.5841

>  <Gold.PLP.Constraint>  (7) 
-0.0000

>  <Gold.Protein.RotatedTorsions>  (7) 
[  681  677  676  673 ] final  -57.85 input -179.99 | X-H torsion
[  702  698  697  694 ] final  -47.15 input  179.99 | X-H torsion
[ 2577 2569 2568 2566 ] final -173.33 input   -0.13 | X-H torsion
[ 2891 2887 2886 2883 ] final  -23.54 input  179.98 | X-H torsion
[ 3175 3171 3170 3167 ] final  116.01 input -179.99 | X-H torsion
[ 5278 5270 5269 5267 ] final  -57.68 input    0.55 | X-H torsion
[  641  637  636  633 ] final  -30.22 input  179.99 | X-H torsion
[ 1886 1878 1877 1875 ] final -167.04 input    1.60 | X-H torsion
[  965  957  956  954 ] final -106.78 input    0.45 | X-H torsion

>  <Gold.Protein.ActiveResidues>  (7) 
 LYS47   THR48   LEU49   GLY50   THR51   GLY52   SER53   PHE54   GLY55   ARG56  
 VAL57   MET58   LEU59   TYR69   ALA70   MET71   LYS72   ILE73   LEU74   GLU91  
 LEU95   VAL104  LYS105  MET118  VAL119  MET120  GLU121  TYR122  VAL123  PRO124 
 GLY125  GLY126  GLU127  MET128  PHE129  TYR164  ASP166  LEU167  LYS168  PRO169 
 GLU170  ASN171  LEU172  LEU173  ILE174  GLN181  VAL182  THR183  ASP184  PHE185 
 GLY186  PHE187  GLY200  THR201  ASN326  PHE327  TYR330  ARG18   ARG19   ASN20  
 ALA21   ILE22   HIS23  

>  <Gold.Protein.RotatedAtoms>  (7) 
    9.7796   19.1188    7.5424 H   0  0  0  0  0  0  0  0  0  0  0  0  # atno 641  bound_to 637 
   15.6281   13.1480    7.1113 H   0  0  0  0  0  0  0  0  0  0  0  0  # atno 681  bound_to 677 
   20.0867   11.7130   -0.2508 H   0  0  0  0  0  0  0  0  0  0  0  0  # atno 702  bound_to 698 
   -6.4855   16.7364   -1.4865 H   0  0  0  0  0  0  0  0  0  0  0  0  # atno 965  bound_to 957 
    0.6112   11.3393   11.0349 H   0  0  0  0  0  0  0  0  0  0  0  0  # atno 1886 bound_to 1878
   10.6846    2.0467   -2.4536 H   0  0  0  0  0  0  0  0  0  0  0  0  # atno 2577 bound_to 2569
    7.8589    5.2372    0.5710 H   0  0  0  0  0  0  0  0  0  0  0  0  # atno 2891 bound_to 2887
   17.9518    1.9465   -0.7026 H   0  0  0  0  0  0  0  0  0  0  0  0  # atno 3175 bound_to 3171
   13.2612    9.8182   10.4433 H   0  0  0  0  0  0  0  0  0  0  0  0  # atno 5278 bound_to 5270
   17.0073   13.9431    7.0709 LP  0  0  0  0  0  0  0  0  0  0  0  0  # atno 5914 bound_to 677 
   16.7178   12.7158    6.0334 LP  0  0  0  0  0  0  0  0  0  0  0  0  # atno 5915 bound_to 677 
   21.0995   11.5401   -1.4681 LP  0  0  0  0  0  0  0  0  0  0  0  0  # atno 5920 bound_to 698 
   19.5137   11.8263   -1.7328 LP  0  0  0  0  0  0  0  0  0  0  0  0  # atno 5921 bound_to 698 
    9.2388    2.5514   -2.8896 LP  0  0  0  0  0  0  0  0  0  0  0  0  # atno 5950 bound_to 2569
   10.5817    3.3578   -3.3512 LP  0  0  0  0  0  0  0  0  0  0  0  0  # atno 5951 bound_to 2569
    7.1693    6.2086    1.6279 LP  0  0  0  0  0  0  0  0  0  0  0  0  # atno 5982 bound_to 2887
    8.2344    6.7844    0.5322 LP  0  0  0  0  0  0  0  0  0  0  0  0  # atno 5983 bound_to 2887
   19.1849    2.8147   -1.2137 LP  0  0  0  0  0  0  0  0  0  0  0  0  # atno 6000 bound_to 3171
   18.8106    2.7455    0.3743 LP  0  0  0  0  0  0  0  0  0  0  0  0  # atno 6001 bound_to 3171
   14.4507   10.0674    9.4138 LP  0  0  0  0  0  0  0  0  0  0  0  0  # atno 6004 bound_to 5270
   12.8931   10.1695    8.9341 LP  0  0  0  0  0  0  0  0  0  0  0  0  # atno 6005 bound_to 5270
   11.3521   19.1738    7.7857 LP  0  0  0  0  0  0  0  0  0  0  0  0  # atno 6055 bound_to 637 
   10.3128   19.7922    8.8830 LP  0  0  0  0  0  0  0  0  0  0  0  0  # atno 6056 bound_to 637 
    1.8473   12.2736   10.6682 LP  0  0  0  0  0  0  0  0  0  0  0  0  # atno 6063 bound_to 1878
    1.8946   10.6681   10.3735 LP  0  0  0  0  0  0  0  0  0  0  0  0  # atno 6064 bound_to 1878
   -7.1600   16.7189   -0.0443 LP  0  0  0  0  0  0  0  0  0  0  0  0  # atno 6067 bound_to 957 
   -6.8176   15.3264   -0.8257 LP  0  0  0  0  0  0  0  0  0  0  0  0  # atno 6068 bound_to 957 

>  <STRIFE_LigEff_Score>  (7) 
2.8938555555555556

$$$$
unknown|pharmsElabsTestPreDocking|sdf|17|dock8
     RDKit          3D

 19 20  0  0  0  0  0  0  0  0999 V2000
   14.6409    7.2826    2.7282 C   0  0  0  0  0  0  0  0  0  0  0  0
   13.3838    7.5310    1.8946 C   0  0  0  0  0  0  0  0  0  0  0  0
   13.4913    8.7891    1.1433 N   0  0  0  0  0  0  0  0  0  0  0  0
   12.0129    7.3775    2.5829 C   0  0  0  0  0  0  0  0  0  0  0  0
   10.7297    7.2495    1.7188 C   0  0  0  0  0  0  0  0  0  0  0  0
    9.6523    8.2918    1.9829 C   0  0  0  0  0  0  0  0  0  0  0  0
    9.4298    8.5020    3.4792 C   0  0  0  0  0  0  0  0  0  0  0  0
    8.2628    9.4232    3.7129 C   0  0  0  0  0  0  0  0  0  0  0  0
    7.7862   10.0995    2.7584 O   0  0  0  0  0  0  0  0  0  0  0  0
    7.7073    9.5397    5.0284 N   0  0  0  0  0  0  0  0  0  0  0  0
    6.5983   10.4350    5.3336 C   0  0  0  0  0  0  0  0  0  0  0  0
    5.3447    9.9228    4.7073 C   0  0  0  0  0  0  0  0  0  0  0  0
    4.1364    9.6829    5.3318 C   0  0  0  0  0  0  0  0  0  0  0  0
    3.2717    9.1806    4.4295 N   0  0  0  0  0  0  0  0  0  0  0  0
    3.9103    9.0860    3.2726 N   0  0  0  0  0  0  0  0  0  0  0  0
    3.2993    8.6035    2.0435 C   0  0  0  0  0  0  0  0  0  0  0  0
    5.1736    9.5287    3.3990 C   0  0  0  0  0  0  0  0  0  0  0  0
   10.6972    9.0863    4.0937 C   0  0  0  0  0  0  0  0  0  0  0  0
   11.8980    8.1561    3.9293 C   0  0  0  0  0  0  0  0  0  0  0  0
  1  2  1  0
  2  3  1  0
  2  4  1  0
  4  5  1  0
  5  6  1  0
  6  7  1  0
  7  8  1  0
  8  9  2  0
  8 10  1  0
 10 11  1  0
 11 12  1  0
 12 13  1  0
 13 14  2  0
 14 15  1  0
 15 16  1  0
 15 17  1  0
  7 18  1  0
 18 19  1  0
 19  4  1  0
 17 12  2  0
M  CHG  1   3   1
M  END
>  <EmbedRMS>  (8) 
0.19659211194601114

>  <Gold.Version>  (8) 
2020.3.0

>  <Gold.Id.Protein>  (8) 
unknown|1q8t_protein|pdb

>  <Gold.PLP.Fitness>  (8) 
60.0624

>  <Gold.PLP.PLP>  (8) 
-51.8298

>  <Gold.PLP.part.hbond>  (8) 
-2.0000

>  <Gold.PLP.part.metal>  (8) 
0.0000

>  <Gold.PLP.part.buried>  (8) 
-3.9662

>  <Gold.PLP.part.nonpolar>  (8) 
-44.8305

>  <Gold.PLP.part.repulsive>  (8) 
0.1320

>  <Gold.PLP.ligand.clash>  (8) 
0.0031

>  <Gold.PLP.ligand.torsion>  (8) 
0.6047

>  <Gold.PLP.Chemscore.Hbond>  (8) 
3.0000

>  <Gold.PLP.Chemscore.CHOScore>  (8) 
0.0000

>  <Gold.PLP.Chemscore.Metal>  (8) 
0.0000

>  <Gold.Chemscore.Hbonds>  (8) 
donor molecule, donor type, donor heavy atom, donor atom, acceptor molecule, acceptor atom, score
      L1  H     3    26       P1  2902  2.00
      P1  H  1888  1903       L1    14  1.00

>  <Gold.PLP.Chemscore.Internal.Correction>  (8) 
0.4451

>  <Gold.PLP.Constraint>  (8) 
-0.0000

>  <Gold.Protein.RotatedTorsions>  (8) 
[  681  677  676  673 ] final -148.62 input -179.99 | X-H torsion
[  702  698  697  694 ] final -111.96 input  179.99 | X-H torsion
[ 2577 2569 2568 2566 ] final -152.89 input   -0.13 | X-H torsion
[ 2891 2887 2886 2883 ] final   -5.85 input  179.98 | X-H torsion
[ 3175 3171 3170 3167 ] final   65.20 input -179.99 | X-H torsion
[ 5278 5270 5269 5267 ] final -130.32 input    0.55 | X-H torsion
[  641  637  636  633 ] final  120.99 input  179.99 | X-H torsion
[ 1886 1878 1877 1875 ] final -174.93 input    1.60 | X-H torsion
[  965  957  956  954 ] final   80.58 input    0.45 | X-H torsion

>  <Gold.Protein.ActiveResidues>  (8) 
 LYS47   THR48   LEU49   GLY50   THR51   GLY52   SER53   PHE54   GLY55   ARG56  
 VAL57   MET58   LEU59   TYR69   ALA70   MET71   LYS72   ILE73   LEU74   GLU91  
 LEU95   VAL104  LYS105  MET118  VAL119  MET120  GLU121  TYR122  VAL123  PRO124 
 GLY125  GLY126  GLU127  MET128  PHE129  TYR164  ASP166  LEU167  LYS168  PRO169 
 GLU170  ASN171  LEU172  LEU173  ILE174  GLN181  VAL182  THR183  ASP184  PHE185 
 GLY186  PHE187  GLY200  THR201  ASN326  PHE327  TYR330  ARG18   ARG19   ASN20  
 ALA21   ILE22   HIS23  

>  <Gold.Protein.RotatedAtoms>  (8) 
   10.7983   19.7116    8.8148 H   0  0  0  0  0  0  0  0  0  0  0  0  # atno 641  bound_to 637 
   16.6022   13.9488    7.3019 H   0  0  0  0  0  0  0  0  0  0  0  0  # atno 681  bound_to 677 
   20.9582   11.5657   -0.6273 H   0  0  0  0  0  0  0  0  0  0  0  0  # atno 702  bound_to 698 
   -7.1468   15.9027   -0.0509 H   0  0  0  0  0  0  0  0  0  0  0  0  # atno 965  bound_to 957 
    0.6154   11.4610   11.0538 H   0  0  0  0  0  0  0  0  0  0  0  0  # atno 1886 bound_to 1878
   10.9099    2.2382   -2.5700 H   0  0  0  0  0  0  0  0  0  0  0  0  # atno 2577 bound_to 2569
    8.0313    5.3723    0.4037 H   0  0  0  0  0  0  0  0  0  0  0  0  # atno 2891 bound_to 2887
   18.3657    2.1737   -1.3091 H   0  0  0  0  0  0  0  0  0  0  0  0  # atno 3175 bound_to 3171
   14.2657    9.9102   10.1128 H   0  0  0  0  0  0  0  0  0  0  0  0  # atno 5278 bound_to 5270
   17.0811   13.0145    6.1045 LP  0  0  0  0  0  0  0  0  0  0  0  0  # atno 5914 bound_to 677 
   15.6188   12.8015    6.7993 LP  0  0  0  0  0  0  0  0  0  0  0  0  # atno 5915 bound_to 677 
   20.3060   11.6925   -2.0750 LP  0  0  0  0  0  0  0  0  0  0  0  0  # atno 5920 bound_to 698 
   19.3905   11.8288   -0.7297 LP  0  0  0  0  0  0  0  0  0  0  0  0  # atno 5921 bound_to 698 
    9.3238    2.2886   -2.7009 LP  0  0  0  0  0  0  0  0  0  0  0  0  # atno 5950 bound_to 2569
   10.2595    3.4190   -3.4173 LP  0  0  0  0  0  0  0  0  0  0  0  0  # atno 5951 bound_to 2569
    7.1346    5.9222    1.5996 LP  0  0  0  0  0  0  0  0  0  0  0  0  # atno 5982 bound_to 2887
    8.0878    6.9287    0.7366 LP  0  0  0  0  0  0  0  0  0  0  0  0  # atno 5983 bound_to 2887
   19.3872    3.0619   -0.4705 LP  0  0  0  0  0  0  0  0  0  0  0  0  # atno 6000 bound_to 3171
   18.1727    2.2592    0.2692 LP  0  0  0  0  0  0  0  0  0  0  0  0  # atno 6001 bound_to 3171
   13.6097   10.2351    8.6982 LP  0  0  0  0  0  0  0  0  0  0  0  0  # atno 6004 bound_to 5270
   12.6772    9.9049    9.9974 LP  0  0  0  0  0  0  0  0  0  0  0  0  # atno 6005 bound_to 5270
    9.5379   19.3413    7.9152 LP  0  0  0  0  0  0  0  0  0  0  0  0  # atno 6055 bound_to 637 
   11.0541   19.0004    7.4135 LP  0  0  0  0  0  0  0  0  0  0  0  0  # atno 6056 bound_to 637 
    1.9480   12.2129   10.6134 LP  0  0  0  0  0  0  0  0  0  0  0  0  # atno 6063 bound_to 1878
    1.7895   10.6007   10.4083 LP  0  0  0  0  0  0  0  0  0  0  0  0  # atno 6064 bound_to 1878
   -6.5082   15.7165   -1.4975 LP  0  0  0  0  0  0  0  0  0  0  0  0  # atno 6067 bound_to 957 
   -6.7729   17.2067   -0.8845 LP  0  0  0  0  0  0  0  0  0  0  0  0  # atno 6068 bound_to 957 

>  <STRIFE_LigEff_Score>  (8) 
3.161178947368421

$$$$
unknown|pharmsElabsTestPreDocking|sdf|18|dock1
     RDKit          3D

 17 17  0  0  0  0  0  0  0  0999 V2000
    5.7878   10.1010    5.6774 C   0  0  0  0  0  0  0  0  0  0  0  0
    5.0507    9.7975    4.6013 C   0  0  0  0  0  0  0  0  0  0  0  0
    3.5618   10.0746    4.6846 C   0  0  0  0  0  0  0  0  0  0  0  0
    5.6592    9.2202    3.3473 C   0  0  0  0  0  0  0  0  0  0  0  0
    4.8417    9.0579    2.2811 C   0  0  0  0  0  0  0  0  0  0  0  0
    7.0897    8.8971    3.2806 N   0  0  0  0  0  0  0  0  0  0  0  0
    8.0179    9.3899    2.2856 C   0  0  0  0  0  0  0  0  0  0  0  0
    7.6117   10.0668    1.3174 O   0  0  0  0  0  0  0  0  0  0  0  0
    9.4984    9.1528    2.2631 C   0  0  0  0  0  0  0  0  0  0  0  0
    9.8730    7.7238    1.9003 C   0  0  0  0  0  0  0  0  0  0  0  0
   11.3484    7.3988    2.0945 C   0  0  0  0  0  0  0  0  0  0  0  0
   12.2714    8.6244    1.9684 C   0  0  0  0  0  0  0  0  0  0  0  0
   13.7599    8.1544    2.0723 C   0  0  0  0  0  0  0  0  0  0  0  0
   14.0514    7.5958    3.4770 C   0  0  0  0  0  0  0  0  0  0  0  0
   14.0995    7.1374    1.0678 N   0  0  0  0  0  0  0  0  0  0  0  0
   11.8885    9.6606    3.0571 C   0  0  0  0  0  0  0  0  0  0  0  0
   10.3847   10.0030    3.1503 C   0  0  0  0  0  0  0  0  0  0  0  0
  1  2  2  0
  2  3  1  0
  2  4  1  0
  4  5  2  0
  4  6  1  0
  6  7  1  0
  7  8  2  0
  7  9  1  0
  9 10  1  0
 10 11  1  0
 11 12  1  0
 12 13  1  0
 13 14  1  0
 13 15  1  0
 12 16  1  0
 16 17  1  0
 17  9  1  0
M  CHG  1  15   1
M  END
>  <EmbedRMS>  (9) 
0.18263911859618057

>  <Gold.Version>  (9) 
2020.3.0

>  <Gold.Id.Protein>  (9) 
unknown|1q8t_protein|pdb

>  <Gold.PLP.Fitness>  (9) 
50.0344

>  <Gold.PLP.PLP>  (9) 
-42.0929

>  <Gold.PLP.part.hbond>  (9) 
-2.0000

>  <Gold.PLP.part.metal>  (9) 
0.0000

>  <Gold.PLP.part.buried>  (9) 
-2.5462

>  <Gold.PLP.part.nonpolar>  (9) 
-37.5020

>  <Gold.PLP.part.repulsive>  (9) 
0.0602

>  <Gold.PLP.ligand.clash>  (9) 
0.0000

>  <Gold.PLP.ligand.torsion>  (9) 
0.9290

>  <Gold.PLP.Chemscore.Hbond>  (9) 
3.0000

>  <Gold.PLP.Chemscore.CHOScore>  (9) 
0.0000

>  <Gold.PLP.Chemscore.Metal>  (9) 
0.0000

>  <Gold.Chemscore.Hbonds>  (9) 
donor molecule, donor type, donor heavy atom, donor atom, acceptor molecule, acceptor atom, score
      L1  H    15    37       P1  2691  1.00
      L1  H    15    38       P1  2902  2.00

>  <Gold.PLP.Chemscore.Internal.Correction>  (9) 
0.7995

>  <Gold.PLP.Constraint>  (9) 
-0.0000

>  <Gold.Protein.RotatedTorsions>  (9) 
[  681  677  676  673 ] final   46.15 input -179.99 | X-H torsion
[  702  698  697  694 ] final  144.38 input  179.99 | X-H torsion
[ 2577 2569 2568 2566 ] final -144.78 input   -0.13 | X-H torsion
[ 2891 2887 2886 2883 ] final  179.86 input  179.98 | X-H torsion
[ 3175 3171 3170 3167 ] final    4.52 input -179.99 | X-H torsion
[ 5278 5270 5269 5267 ] final -156.75 input    0.55 | X-H torsion
[  641  637  636  633 ] final    1.73 input  179.99 | X-H torsion
[ 1886 1878 1877 1875 ] final -172.01 input    1.60 | X-H torsion
[  965  957  956  954 ] final   -2.80 input    0.45 | X-H torsion

>  <Gold.Protein.ActiveResidues>  (9) 
 LYS47   THR48   LEU49   GLY50   THR51   GLY52   SER53   PHE54   GLY55   ARG56  
 VAL57   MET58   LEU59   TYR69   ALA70   MET71   LYS72   ILE73   LEU74   GLU91  
 LEU95   VAL104  LYS105  MET118  VAL119  MET120  GLU121  TYR122  VAL123  PRO124 
 GLY125  GLY126  GLU127  MET128  PHE129  TYR164  ASP166  LEU167  LYS168  PRO169 
 GLU170  ASN171  LEU172  LEU173  ILE174  GLN181  VAL182  THR183  ASP184  PHE185 
 GLY186  PHE187  GLY200  THR201  ASN326  PHE327  TYR330  ARG18   ARG19   ASN20  
 ALA21   ILE22   HIS23  

>  <Gold.Protein.RotatedAtoms>  (9) 
    9.5825   19.3330    7.9402 H   0  0  0  0  0  0  0  0  0  0  0  0  # atno 641  bound_to 637 
   16.4730   12.6511    6.0953 H   0  0  0  0  0  0  0  0  0  0  0  0  # atno 681  bound_to 677 
   20.5497   11.6641   -1.9724 H   0  0  0  0  0  0  0  0  0  0  0  0  # atno 702  bound_to 698 
   -6.7006   15.4149   -1.0414 H   0  0  0  0  0  0  0  0  0  0  0  0  # atno 965  bound_to 957 
    0.6120   11.4158   11.0476 H   0  0  0  0  0  0  0  0  0  0  0  0  # atno 1886 bound_to 1878
   10.9750    2.3296   -2.6288 H   0  0  0  0  0  0  0  0  0  0  0  0  # atno 2577 bound_to 2569
    7.4140    6.6973    1.4361 H   0  0  0  0  0  0  0  0  0  0  0  0  # atno 2891 bound_to 2887
   19.0885    2.7157   -1.2582 H   0  0  0  0  0  0  0  0  0  0  0  0  # atno 3175 bound_to 3171
   14.4166   10.0029    9.7434 H   0  0  0  0  0  0  0  0  0  0  0  0  # atno 5278 bound_to 5270
   15.6715   13.3311    7.2917 LP  0  0  0  0  0  0  0  0  0  0  0  0  # atno 5914 bound_to 677 
   17.1644   13.8508    6.8820 LP  0  0  0  0  0  0  0  0  0  0  0  0  # atno 5915 bound_to 677 
   19.3128   11.8475   -0.9855 LP  0  0  0  0  0  0  0  0  0  0  0  0  # atno 5920 bound_to 698 
   20.8134   11.5702   -0.4043 LP  0  0  0  0  0  0  0  0  0  0  0  0  # atno 5921 bound_to 698 
    9.3884    2.1950   -2.6312 LP  0  0  0  0  0  0  0  0  0  0  0  0  # atno 5950 bound_to 2569
   10.1264    3.4163   -3.4252 LP  0  0  0  0  0  0  0  0  0  0  0  0  # atno 5951 bound_to 2569
    8.3845    6.2917    0.2403 LP  0  0  0  0  0  0  0  0  0  0  0  0  # atno 5982 bound_to 2887
    7.4874    5.1647    1.0094 LP  0  0  0  0  0  0  0  0  0  0  0  0  # atno 5983 bound_to 2887
   18.9181    2.8182    0.3217 LP  0  0  0  0  0  0  0  0  0  0  0  0  # atno 6000 bound_to 3171
   17.8812    1.9325   -0.5766 LP  0  0  0  0  0  0  0  0  0  0  0  0  # atno 6001 bound_to 3171
   13.1833   10.2159    8.7583 LP  0  0  0  0  0  0  0  0  0  0  0  0  # atno 6004 bound_to 5270
   12.9448    9.8267   10.3261 LP  0  0  0  0  0  0  0  0  0  0  0  0  # atno 6005 bound_to 5270
   11.0446   18.9974    7.4067 LP  0  0  0  0  0  0  0  0  0  0  0  0  # atno 6055 bound_to 637 
   10.8280   19.7431    8.8432 LP  0  0  0  0  0  0  0  0  0  0  0  0  # atno 6056 bound_to 637 
    1.9117   12.2372   10.6336 LP  0  0  0  0  0  0  0  0  0  0  0  0  # atno 6063 bound_to 1878
    1.8294   10.6239   10.3947 LP  0  0  0  0  0  0  0  0  0  0  0  0  # atno 6064 bound_to 1878
   -6.5510   16.9641   -1.3772 LP  0  0  0  0  0  0  0  0  0  0  0  0  # atno 6067 bound_to 957 
   -7.2000   16.4730    0.0385 LP  0  0  0  0  0  0  0  0  0  0  0  0  # atno 6068 bound_to 957 

>  <STRIFE_LigEff_Score>  (9) 
2.9432

$$$$
unknown|pharmsElabsTestPreDocking|sdf|19|dock1
     RDKit          3D

 16 16  0  0  0  0  0  0  0  0999 V2000
    4.9633    9.0869    3.1580 C   0  0  0  0  0  0  0  0  0  0  0  0
    5.0006    9.4788    4.6251 C   0  0  0  0  0  0  0  0  0  0  0  0
    3.6449    9.8212    5.2222 C   0  0  0  0  0  0  0  0  0  0  0  0
    6.1232   10.3831    5.1493 C   0  0  0  0  0  0  0  0  0  0  0  0
    7.4678    9.8391    5.0144 N   0  0  0  0  0  0  0  0  0  0  0  0
    8.0064    9.5263    3.7234 C   0  0  0  0  0  0  0  0  0  0  0  0
    7.5198   10.0552    2.6839 O   0  0  0  0  0  0  0  0  0  0  0  0
    9.1843    8.5982    3.6144 C   0  0  0  0  0  0  0  0  0  0  0  0
    9.4091    8.1835    2.1608 C   0  0  0  0  0  0  0  0  0  0  0  0
   10.5075    7.1364    2.0419 C   0  0  0  0  0  0  0  0  0  0  0  0
   11.7869    7.4085    2.8782 C   0  0  0  0  0  0  0  0  0  0  0  0
   13.1554    7.4922    2.1742 C   0  0  0  0  0  0  0  0  0  0  0  0
   14.4140    7.3052    3.0213 C   0  0  0  0  0  0  0  0  0  0  0  0
   13.2693    8.6815    1.3188 N   0  0  0  0  0  0  0  0  0  0  0  0
   11.6555    8.3639    4.1034 C   0  0  0  0  0  0  0  0  0  0  0  0
   10.4396    9.2864    4.1361 C   0  0  0  0  0  0  0  0  0  0  0  0
  1  2  1  0
  2  3  1  0
  2  4  1  0
  4  5  1  0
  5  6  1  0
  6  7  2  0
  6  8  1  0
  8  9  1  0
  9 10  1  0
 10 11  1  0
 11 12  1  0
 12 13  1  0
 12 14  1  0
 11 15  1  0
 15 16  1  0
 16  8  1  0
M  CHG  1  14   1
M  END
>  <EmbedRMS>  (10) 
0.28373172213554615

>  <Gold.Version>  (10) 
2020.3.0

>  <Gold.Id.Protein>  (10) 
unknown|1q8t_protein|pdb

>  <Gold.PLP.Fitness>  (10) 
45.8123

>  <Gold.PLP.PLP>  (10) 
-40.4042

>  <Gold.PLP.part.hbond>  (10) 
-1.0000

>  <Gold.PLP.part.metal>  (10) 
0.0000

>  <Gold.PLP.part.buried>  (10) 
-2.8511

>  <Gold.PLP.part.nonpolar>  (10) 
-36.7309

>  <Gold.PLP.part.repulsive>  (10) 
0.0000

>  <Gold.PLP.ligand.clash>  (10) 
0.0000

>  <Gold.PLP.ligand.torsion>  (10) 
0.5621

>  <Gold.PLP.Chemscore.Hbond>  (10) 
2.0000

>  <Gold.PLP.Chemscore.CHOScore>  (10) 
0.0000

>  <Gold.PLP.Chemscore.Metal>  (10) 
0.0000

>  <Gold.Chemscore.Hbonds>  (10) 
donor molecule, donor type, donor heavy atom, donor atom, acceptor molecule, acceptor atom, score
      L1  H    14    37       P1  2902  2.00

>  <Gold.PLP.Chemscore.Internal.Correction>  (10) 
0.5323

>  <Gold.PLP.Constraint>  (10) 
-0.0000

>  <Gold.Protein.RotatedTorsions>  (10) 
[  681  677  676  673 ] final    0.40 input -179.99 | X-H torsion
[  702  698  697  694 ] final  148.24 input  179.99 | X-H torsion
[ 2577 2569 2568 2566 ] final   65.16 input   -0.13 | X-H torsion
[ 2891 2887 2886 2883 ] final   27.03 input  179.98 | X-H torsion
[ 3175 3171 3170 3167 ] final  -96.31 input -179.99 | X-H torsion
[ 5278 5270 5269 5267 ] final  141.25 input    0.55 | X-H torsion
[  641  637  636  633 ] final  123.31 input  179.99 | X-H torsion
[ 1886 1878 1877 1875 ] final  -80.91 input    1.60 | X-H torsion
[  965  957  956  954 ] final  -63.68 input    0.45 | X-H torsion

>  <Gold.Protein.ActiveResidues>  (10) 
 LYS47   THR48   LEU49   GLY50   THR51   GLY52   SER53   PHE54   GLY55   ARG56  
 VAL57   MET58   LEU59   TYR69   ALA70   MET71   LYS72   ILE73   LEU74   GLU91  
 LEU95   VAL104  LYS105  MET118  VAL119  MET120  GLU121  TYR122  VAL123  PRO124 
 GLY125  GLY126  GLU127  MET128  PHE129  TYR164  ASP166  LEU167  LYS168  PRO169 
 GLU170  ASN171  LEU172  LEU173  ILE174  GLN181  VAL182  THR183  ASP184  PHE185 
 GLY186  PHE187  GLY200  THR201  ASN326  PHE327  TYR330  ARG18   ARG19   ASN20  
 ALA21   ILE22   HIS23  

>  <Gold.Protein.RotatedAtoms>  (10) 
   10.8317   19.7038    8.8031 H   0  0  0  0  0  0  0  0  0  0  0  0  # atno 641  bound_to 637 
   15.8742   12.6351    6.4504 H   0  0  0  0  0  0  0  0  0  0  0  0  # atno 681  bound_to 677 
   20.6044   11.6540   -1.9490 H   0  0  0  0  0  0  0  0  0  0  0  0  # atno 702  bound_to 698 
   -6.4436   16.0886   -1.5922 H   0  0  0  0  0  0  0  0  0  0  0  0  # atno 965  bound_to 957 
    1.4026   10.5429   10.5501 H   0  0  0  0  0  0  0  0  0  0  0  0  # atno 1886 bound_to 1878
    9.2854    2.5659   -2.9166 H   0  0  0  0  0  0  0  0  0  0  0  0  # atno 2577 bound_to 2569
    8.2698    5.7828    0.2258 H   0  0  0  0  0  0  0  0  0  0  0  0  # atno 2891 bound_to 2887
   19.1191    2.9171    0.1072 H   0  0  0  0  0  0  0  0  0  0  0  0  # atno 3175 bound_to 3171
   14.0619   10.2035    8.9152 H   0  0  0  0  0  0  0  0  0  0  0  0  # atno 5278 bound_to 5270
   16.1858   13.8247    7.4624 LP  0  0  0  0  0  0  0  0  0  0  0  0  # atno 5914 bound_to 677 
   17.2804   13.3740    6.3375 LP  0  0  0  0  0  0  0  0  0  0  0  0  # atno 5915 bound_to 677 
   19.3052   11.8501   -1.0486 LP  0  0  0  0  0  0  0  0  0  0  0  0  # atno 5920 bound_to 698 
   20.7635   11.5784   -0.3658 LP  0  0  0  0  0  0  0  0  0  0  0  0  # atno 5921 bound_to 698 
   10.6040    3.3495   -3.3438 LP  0  0  0  0  0  0  0  0  0  0  0  0  # atno 5950 bound_to 2569
   10.6898    2.0130   -2.4095 LP  0  0  0  0  0  0  0  0  0  0  0  0  # atno 5951 bound_to 2569
    7.2255    5.4445    1.3797 LP  0  0  0  0  0  0  0  0  0  0  0  0  # atno 5982 bound_to 2887
    7.7458    6.9743    1.1436 LP  0  0  0  0  0  0  0  0  0  0  0  0  # atno 5983 bound_to 2887
   17.8881    1.9784   -0.2658 LP  0  0  0  0  0  0  0  0  0  0  0  0  # atno 6000 bound_to 3171
   18.8790    2.5604   -1.4260 LP  0  0  0  0  0  0  0  0  0  0  0  0  # atno 6001 bound_to 3171
   12.5935   10.0253    9.5059 LP  0  0  0  0  0  0  0  0  0  0  0  0  # atno 6004 bound_to 5270
   13.9078    9.8062   10.4499 LP  0  0  0  0  0  0  0  0  0  0  0  0  # atno 6005 bound_to 5270
    9.5332   19.3587    7.9489 LP  0  0  0  0  0  0  0  0  0  0  0  0  # atno 6055 bound_to 637 
   11.0237   18.9912    7.3923 LP  0  0  0  0  0  0  0  0  0  0  0  0  # atno 6056 bound_to 637 
    0.7061   11.8643   11.1015 LP  0  0  0  0  0  0  0  0  0  0  0  0  # atno 6063 bound_to 1878
    2.2028   11.9159   10.4505 LP  0  0  0  0  0  0  0  0  0  0  0  0  # atno 6064 bound_to 1878
   -6.9365   17.1635   -0.5261 LP  0  0  0  0  0  0  0  0  0  0  0  0  # atno 6067 bound_to 957 
   -7.0852   15.5640   -0.2327 LP  0  0  0  0  0  0  0  0  0  0  0  0  # atno 6068 bound_to 957 

>  <STRIFE_LigEff_Score>  (10) 
2.86326875

$$$$
unknown|pharmsElabsTestPreDocking|sdf|1|dock6
     RDKit          3D

 18 19  0  0  0  0  0  0  0  0999 V2000
   14.8190    7.5776    3.4637 C   0  0  0  0  0  0  0  0  0  0  0  0
   13.9019    8.0920    2.3439 C   0  0  0  0  0  0  0  0  0  0  0  0
   14.0308    7.2411    1.1556 N   0  0  0  0  0  0  0  0  0  0  0  0
   12.4037    8.3444    2.7351 C   0  0  0  0  0  0  0  0  0  0  0  0
   11.3812    7.3597    2.1381 C   0  0  0  0  0  0  0  0  0  0  0  0
    9.9885    7.9259    1.9446 C   0  0  0  0  0  0  0  0  0  0  0  0
    9.5564    8.8222    3.1001 C   0  0  0  0  0  0  0  0  0  0  0  0
    8.1285    9.2507    2.8846 C   0  0  0  0  0  0  0  0  0  0  0  0
    7.8420    9.9364    1.8666 O   0  0  0  0  0  0  0  0  0  0  0  0
    7.1303    8.8976    3.8541 N   0  0  0  0  0  0  0  0  0  0  0  0
    5.7219    9.2023    3.8037 C   0  0  0  0  0  0  0  0  0  0  0  0
    5.0769    9.5771    4.9922 C   0  0  0  0  0  0  0  0  0  0  0  0
    3.7182    9.8868    4.9915 C   0  0  0  0  0  0  0  0  0  0  0  0
    3.0036    9.8211    3.7975 C   0  0  0  0  0  0  0  0  0  0  0  0
    3.6301    9.4582    2.6511 N   0  0  0  0  0  0  0  0  0  0  0  0
    4.9508    9.1510    2.6210 C   0  0  0  0  0  0  0  0  0  0  0  0
   10.4565   10.0594    3.1966 C   0  0  0  0  0  0  0  0  0  0  0  0
   11.9680    9.7795    3.0972 C   0  0  0  0  0  0  0  0  0  0  0  0
  1  2  1  0
  2  3  1  0
  2  4  1  0
  4  5  1  0
  5  6  1  0
  6  7  1  0
  7  8  1  0
  8  9  2  0
  8 10  1  0
 10 11  1  0
 11 12  2  0
 12 13  1  0
 13 14  2  0
 14 15  1  0
 15 16  2  0
  7 17  1  0
 17 18  1  0
 18  4  1  0
 16 11  1  0
M  CHG  1   3   1
M  END
>  <EmbedRMS>  (11) 
0.16496192233382964

>  <Gold.Version>  (11) 
2020.3.0

>  <Gold.Id.Protein>  (11) 
unknown|1q8t_protein|pdb

>  <Gold.PLP.Fitness>  (11) 
52.1049

>  <Gold.PLP.PLP>  (11) 
-42.6967

>  <Gold.PLP.part.hbond>  (11) 
-2.0000

>  <Gold.PLP.part.metal>  (11) 
0.0000

>  <Gold.PLP.part.buried>  (11) 
-3.0008

>  <Gold.PLP.part.nonpolar>  (11) 
-37.8366

>  <Gold.PLP.part.repulsive>  (11) 
0.1315

>  <Gold.PLP.ligand.clash>  (11) 
0.0000

>  <Gold.PLP.ligand.torsion>  (11) 
1.5287

>  <Gold.PLP.Chemscore.Hbond>  (11) 
3.0000

>  <Gold.PLP.Chemscore.CHOScore>  (11) 
0.9656

>  <Gold.PLP.Chemscore.Metal>  (11) 
0.0000

>  <Gold.Chemscore.Hbonds>  (11) 
donor molecule, donor type, donor heavy atom, donor atom, acceptor molecule, acceptor atom, score
      L1  H     3    23       P1  2691  1.00
      L1  H     3    25       P1  2902  2.00
      L1  C    14    35       P1  1855  0.97

>  <Gold.PLP.Chemscore.Internal.Correction>  (11) 
0.5687

>  <Gold.PLP.Constraint>  (11) 
-0.0000

>  <Gold.Protein.RotatedTorsions>  (11) 
[  681  677  676  673 ] final    9.49 input -179.99 | X-H torsion
[  702  698  697  694 ] final -147.66 input  179.99 | X-H torsion
[ 2577 2569 2568 2566 ] final   89.98 input   -0.13 | X-H torsion
[ 2891 2887 2886 2883 ] final  -31.97 input  179.98 | X-H torsion
[ 3175 3171 3170 3167 ] final  100.06 input -179.99 | X-H torsion
[ 5278 5270 5269 5267 ] final  -27.18 input    0.55 | X-H torsion
[  641  637  636  633 ] final   28.53 input  179.99 | X-H torsion
[ 1886 1878 1877 1875 ] final   17.51 input    1.60 | X-H torsion
[  965  957  956  954 ] final   -9.39 input    0.45 | X-H torsion

>  <Gold.Protein.ActiveResidues>  (11) 
 LYS47   THR48   LEU49   GLY50   THR51   GLY52   SER53   PHE54   GLY55   ARG56  
 VAL57   MET58   LEU59   TYR69   ALA70   MET71   LYS72   ILE73   LEU74   GLU91  
 LEU95   VAL104  LYS105  MET118  VAL119  MET120  GLU121  TYR122  VAL123  PRO124 
 GLY125  GLY126  GLU127  MET128  PHE129  TYR164  ASP166  LEU167  LYS168  PRO169 
 GLU170  ASN171  LEU172  LEU173  ILE174  GLN181  VAL182  THR183  ASP184  PHE185 
 GLY186  PHE187  GLY200  THR201  ASN326  PHE327  TYR330  ARG18   ARG19   ASN20  
 ALA21   ILE22   HIS23  

>  <Gold.Protein.RotatedAtoms>  (11) 
    9.6241   19.5189    8.3088 H   0  0  0  0  0  0  0  0  0  0  0  0  # atno 641  bound_to 637 
   15.9761   12.6041    6.3565 H   0  0  0  0  0  0  0  0  0  0  0  0  # atno 681  bound_to 677 
   21.1151   11.5481   -1.1535 H   0  0  0  0  0  0  0  0  0  0  0  0  # atno 702  bound_to 698 
   -6.6605   15.4515   -1.1289 H   0  0  0  0  0  0  0  0  0  0  0  0  # atno 965  bound_to 957 
    2.2483   11.5847   10.3550 H   0  0  0  0  0  0  0  0  0  0  0  0  # atno 1886 bound_to 1878
    9.3876    2.2647   -2.7000 H   0  0  0  0  0  0  0  0  0  0  0  0  # atno 2577 bound_to 2569
    7.7721    5.1998    0.6626 H   0  0  0  0  0  0  0  0  0  0  0  0  # atno 2891 bound_to 2887
   18.0349    1.9776   -0.9348 H   0  0  0  0  0  0  0  0  0  0  0  0  # atno 3175 bound_to 3171
   12.8647    9.8753   10.1950 H   0  0  0  0  0  0  0  0  0  0  0  0  # atno 5278 bound_to 5270
   16.0586   13.7462    7.4633 LP  0  0  0  0  0  0  0  0  0  0  0  0  # atno 5914 bound_to 677 
   17.3003   13.4852    6.4354 LP  0  0  0  0  0  0  0  0  0  0  0  0  # atno 5915 bound_to 677 
   19.7518   11.7881   -1.9418 LP  0  0  0  0  0  0  0  0  0  0  0  0  # atno 5920 bound_to 698 
   19.7796   11.7517   -0.3094 LP  0  0  0  0  0  0  0  0  0  0  0  0  # atno 5921 bound_to 698 
   10.2125    3.4199   -3.4213 LP  0  0  0  0  0  0  0  0  0  0  0  0  # atno 5950 bound_to 2569
   10.9737    2.2599   -2.5601 LP  0  0  0  0  0  0  0  0  0  0  0  0  # atno 5951 bound_to 2569
    7.2059    6.3418    1.6174 LP  0  0  0  0  0  0  0  0  0  0  0  0  # atno 5982 bound_to 2887
    8.2892    6.6906    0.4463 LP  0  0  0  0  0  0  0  0  0  0  0  0  # atno 5983 bound_to 2887
   19.3074    2.9316   -1.0143 LP  0  0  0  0  0  0  0  0  0  0  0  0  # atno 6000 bound_to 3171
   18.6008    2.5959    0.4191 LP  0  0  0  0  0  0  0  0  0  0  0  0  # atno 6001 bound_to 3171
   14.4271    9.9485    9.8947 LP  0  0  0  0  0  0  0  0  0  0  0  0  # atno 6004 bound_to 5270
   13.3339   10.2282    8.7144 LP  0  0  0  0  0  0  0  0  0  0  0  0  # atno 6005 bound_to 5270
   10.6466   18.9335    7.2379 LP  0  0  0  0  0  0  0  0  0  0  0  0  # atno 6055 bound_to 637 
   11.1821   19.6112    8.6237 LP  0  0  0  0  0  0  0  0  0  0  0  0  # atno 6056 bound_to 637 
    1.0923   10.5479   10.7067 LP  0  0  0  0  0  0  0  0  0  0  0  0  # atno 6063 bound_to 1878
    0.9263   12.1355   11.0507 LP  0  0  0  0  0  0  0  0  0  0  0  0  # atno 6064 bound_to 1878
   -6.5853   17.0326   -1.3005 LP  0  0  0  0  0  0  0  0  0  0  0  0  # atno 6067 bound_to 957 
   -7.2080   16.3659    0.0539 LP  0  0  0  0  0  0  0  0  0  0  0  0  # atno 6068 bound_to 957 

>  <STRIFE_LigEff_Score>  (11) 
2.8947166666666666

$$$$
unknown|pharmsElabsTestPreDocking|sdf|20|dock6
     RDKit          3D

 17 17  0  0  0  0  0  0  0  0999 V2000
   14.7774    9.0388    1.3995 C   0  0  0  0  0  0  0  0  0  0  0  0
   13.8620    7.8541    1.6578 C   0  0  0  0  0  0  0  0  0  0  0  0
   14.0836    6.7077    0.7828 N   0  0  0  0  0  0  0  0  0  0  0  0
   12.3894    8.1727    2.0640 C   0  0  0  0  0  0  0  0  0  0  0  0
   11.6377    7.1320    2.9086 C   0  0  0  0  0  0  0  0  0  0  0  0
   10.1181    7.3999    2.9008 C   0  0  0  0  0  0  0  0  0  0  0  0
    9.7334    8.8582    2.6351 C   0  0  0  0  0  0  0  0  0  0  0  0
    8.2728    9.1686    2.7984 C   0  0  0  0  0  0  0  0  0  0  0  0
    8.0145   10.1939    3.4758 O   0  0  0  0  0  0  0  0  0  0  0  0
    7.1799    8.3966    2.2825 N   0  0  0  0  0  0  0  0  0  0  0  0
    5.8709    8.7825    2.6407 N   0  0  0  0  0  0  0  0  0  0  0  0
    5.5305    9.0769    3.8568 C   0  0  0  0  0  0  0  0  0  0  0  0
    4.1832    9.4744    4.1738 N   0  0  0  0  0  0  0  0  0  0  0  0
    3.7853    9.8090    5.5396 C   0  0  0  0  0  0  0  0  0  0  0  0
    3.2212    9.5411    3.1526 N   0  0  0  0  0  0  0  0  0  0  0  0
   10.7299    9.9775    2.8934 C   0  0  0  0  0  0  0  0  0  0  0  0
   12.2052    9.5729    2.6841 C   0  0  0  0  0  0  0  0  0  0  0  0
  1  2  1  0
  2  3  1  0
  2  4  1  0
  4  5  1  0
  5  6  1  0
  6  7  1  0
  7  8  1  0
  8  9  2  0
  8 10  1  0
 10 11  1  0
 11 12  2  0
 12 13  1  0
 13 14  1  0
 13 15  1  0
  7 16  1  0
 16 17  1  0
 17  4  1  0
M  CHG  1   3   1
M  END
>  <EmbedRMS>  (12) 
0.2570984896337683

>  <Gold.Version>  (12) 
2020.3.0

>  <Gold.Id.Protein>  (12) 
unknown|1q8t_protein|pdb

>  <Gold.PLP.Fitness>  (12) 
46.8672

>  <Gold.PLP.PLP>  (12) 
-36.0163

>  <Gold.PLP.part.hbond>  (12) 
-3.2936

>  <Gold.PLP.part.metal>  (12) 
0.0000

>  <Gold.PLP.part.buried>  (12) 
-3.7190

>  <Gold.PLP.part.nonpolar>  (12) 
-29.7619

>  <Gold.PLP.part.repulsive>  (12) 
0.1037

>  <Gold.PLP.ligand.clash>  (12) 
0.0000

>  <Gold.PLP.ligand.torsion>  (12) 
1.0599

>  <Gold.PLP.Chemscore.Hbond>  (12) 
3.9920

>  <Gold.PLP.Chemscore.CHOScore>  (12) 
0.0000

>  <Gold.PLP.Chemscore.Metal>  (12) 
0.0000

>  <Gold.Chemscore.Hbonds>  (12) 
donor molecule, donor type, donor heavy atom, donor atom, acceptor molecule, acceptor atom, score
      L1  H     3    22       P1  2691  0.99
      L1  H     3    24       P1  2902  2.00
      L1  H    10    31       P1  2887  1.00

>  <Gold.PLP.Chemscore.Internal.Correction>  (12) 
0.9947

>  <Gold.PLP.Constraint>  (12) 
-0.0000

>  <Gold.Protein.RotatedTorsions>  (12) 
[  681  677  676  673 ] final  -17.96 input -179.99 | X-H torsion
[  702  698  697  694 ] final  128.56 input  179.99 | X-H torsion
[ 2577 2569 2568 2566 ] final  -38.74 input   -0.13 | X-H torsion
[ 2891 2887 2886 2883 ] final   37.38 input  179.98 | X-H torsion
[ 3175 3171 3170 3167 ] final  -11.43 input -179.99 | X-H torsion
[ 5278 5270 5269 5267 ] final -167.63 input    0.55 | X-H torsion
[  641  637  636  633 ] final -158.25 input  179.99 | X-H torsion
[ 1886 1878 1877 1875 ] final  144.76 input    1.60 | X-H torsion
[  965  957  956  954 ] final   89.79 input    0.45 | X-H torsion

>  <Gold.Protein.ActiveResidues>  (12) 
 LYS47   THR48   LEU49   GLY50   THR51   GLY52   SER53   PHE54   GLY55   ARG56  
 VAL57   MET58   LEU59   TYR69   ALA70   MET71   LYS72   ILE73   LEU74   GLU91  
 LEU95   VAL104  LYS105  MET118  VAL119  MET120  GLU121  TYR122  VAL123  PRO124 
 GLY125  GLY126  GLU127  MET128  PHE129  TYR164  ASP166  LEU167  LYS168  PRO169 
 GLU170  ASN171  LEU172  LEU173  ILE174  GLN181  VAL182  THR183  ASP184  PHE185 
 GLY186  PHE187  GLY200  THR201  ASN326  PHE327  TYR330  ARG18   ARG19   ASN20  
 ALA21   ILE22   HIS23  

>  <Gold.Protein.RotatedAtoms>  (12) 
   11.3421   19.2217    7.9148 H   0  0  0  0  0  0  0  0  0  0  0  0  # atno 641  bound_to 637 
   15.7134   12.7455    6.6594 H   0  0  0  0  0  0  0  0  0  0  0  0  # atno 681  bound_to 677 
   20.3131   11.7071   -2.0277 H   0  0  0  0  0  0  0  0  0  0  0  0  # atno 702  bound_to 698 
   -7.1657   16.0383   -0.0067 H   0  0  0  0  0  0  0  0  0  0  0  0  # atno 965  bound_to 957 
    0.8655   12.0249   11.0397 H   0  0  0  0  0  0  0  0  0  0  0  0  # atno 1886 bound_to 1878
   10.3466    3.3634   -3.3926 H   0  0  0  0  0  0  0  0  0  0  0  0  # atno 2577 bound_to 2569
    8.3126    5.9382    0.2135 H   0  0  0  0  0  0  0  0  0  0  0  0  # atno 2891 bound_to 2887
   19.2277    2.8403   -1.0942 H   0  0  0  0  0  0  0  0  0  0  0  0  # atno 3175 bound_to 3171
   14.4254   10.0436    9.5787 H   0  0  0  0  0  0  0  0  0  0  0  0  # atno 5278 bound_to 5270
   16.4585   13.9385    7.4063 LP  0  0  0  0  0  0  0  0  0  0  0  0  # atno 5914 bound_to 677 
   17.1768   13.1440    6.1736 LP  0  0  0  0  0  0  0  0  0  0  0  0  # atno 5915 bound_to 677 
   19.3869   11.8296   -0.7374 LP  0  0  0  0  0  0  0  0  0  0  0  0  # atno 5920 bound_to 698 
   20.9882   11.5429   -0.5942 LP  0  0  0  0  0  0  0  0  0  0  0  0  # atno 5921 bound_to 698 
   10.8886    2.1624   -2.4986 LP  0  0  0  0  0  0  0  0  0  0  0  0  # atno 5950 bound_to 2569
    9.2878    2.3605   -2.7535 LP  0  0  0  0  0  0  0  0  0  0  0  0  # atno 5951 bound_to 2569
    7.2927    5.3291    1.2743 LP  0  0  0  0  0  0  0  0  0  0  0  0  # atno 5982 bound_to 2887
    7.6336    6.9261    1.2621 LP  0  0  0  0  0  0  0  0  0  0  0  0  # atno 5983 bound_to 2887
   18.7136    2.6775    0.4041 LP  0  0  0  0  0  0  0  0  0  0  0  0  # atno 6000 bound_to 3171
   17.9393    1.9422   -0.8314 LP  0  0  0  0  0  0  0  0  0  0  0  0  # atno 6001 bound_to 3171
   13.0241   10.1948    8.8368 LP  0  0  0  0  0  0  0  0  0  0  0  0  # atno 6004 bound_to 5270
   13.0948    9.8048   10.4209 LP  0  0  0  0  0  0  0  0  0  0  0  0  # atno 6005 bound_to 5270
   10.1846   19.7838    8.8525 LP  0  0  0  0  0  0  0  0  0  0  0  0  # atno 6055 bound_to 637 
    9.8347   19.0739    7.4241 LP  0  0  0  0  0  0  0  0  0  0  0  0  # atno 6056 bound_to 637 
    2.2792   11.7048   10.3808 LP  0  0  0  0  0  0  0  0  0  0  0  0  # atno 6063 bound_to 1878
    1.1950   10.5151   10.6558 LP  0  0  0  0  0  0  0  0  0  0  0  0  # atno 6064 bound_to 1878
   -6.5498   15.6013   -1.4084 LP  0  0  0  0  0  0  0  0  0  0  0  0  # atno 6067 bound_to 957 
   -6.7114   17.1792   -1.0202 LP  0  0  0  0  0  0  0  0  0  0  0  0  # atno 6068 bound_to 957 

>  <STRIFE_LigEff_Score>  (12) 
2.7568941176470587

$$$$
unknown|pharmsElabsTestPreDocking|sdf|21|dock3
     RDKit          3D

 19 20  0  0  0  0  0  0  0  0999 V2000
   14.1017    6.5499    3.2351 C   0  0  0  0  0  0  0  0  0  0  0  0
   13.7767    7.9757    3.7158 C   0  0  0  0  0  0  0  0  0  0  0  0
   14.8180    8.8956    3.2378 N   0  0  0  0  0  0  0  0  0  0  0  0
   12.3438    8.3978    3.2488 C   0  0  0  0  0  0  0  0  0  0  0  0
   11.3886    7.2017    3.4144 C   0  0  0  0  0  0  0  0  0  0  0  0
    9.9814    7.4648    2.8901 C   0  0  0  0  0  0  0  0  0  0  0  0
    9.5720    8.9299    2.9101 C   0  0  0  0  0  0  0  0  0  0  0  0
    8.1129    9.1510    2.6372 C   0  0  0  0  0  0  0  0  0  0  0  0
    7.5550    8.2391    1.9787 O   0  0  0  0  0  0  0  0  0  0  0  0
    7.3316   10.2857    3.0522 N   0  0  0  0  0  0  0  0  0  0  0  0
    5.9348   10.3726    2.5986 C   0  0  0  0  0  0  0  0  0  0  0  0
    4.9713    9.9911    3.6754 C   0  0  0  0  0  0  0  0  0  0  0  0
    5.0154   10.3759    4.9961 C   0  0  0  0  0  0  0  0  0  0  0  0
    3.9366    9.8446    5.6073 N   0  0  0  0  0  0  0  0  0  0  0  0
    3.2601    9.1625    4.6922 N   0  0  0  0  0  0  0  0  0  0  0  0
    3.8661    9.2429    3.5195 N   0  0  0  0  0  0  0  0  0  0  0  0
    3.3919    8.6015    2.2997 C   0  0  0  0  0  0  0  0  0  0  0  0
   10.2971    9.9390    3.7797 C   0  0  0  0  0  0  0  0  0  0  0  0
   11.7826    9.6054    4.0422 C   0  0  0  0  0  0  0  0  0  0  0  0
  1  2  1  0
  2  3  1  0
  2  4  1  0
  4  5  1  0
  5  6  1  0
  6  7  1  0
  7  8  1  0
  8  9  2  0
  8 10  1  0
 10 11  1  0
 11 12  1  0
 12 13  2  0
 13 14  1  0
 14 15  2  0
 15 16  1  0
 16 17  1  0
  7 18  1  0
 18 19  1  0
 19  4  1  0
 16 12  1  0
M  CHG  1   3   1
M  END
>  <EmbedRMS>  (13) 
0.17105475656711175

>  <Gold.Version>  (13) 
2020.3.0

>  <Gold.Id.Protein>  (13) 
unknown|1q8t_protein|pdb

>  <Gold.PLP.Fitness>  (13) 
49.7505

>  <Gold.PLP.PLP>  (13) 
-42.0255

>  <Gold.PLP.part.hbond>  (13) 
-2.6168

>  <Gold.PLP.part.metal>  (13) 
0.0000

>  <Gold.PLP.part.buried>  (13) 
-3.4577

>  <Gold.PLP.part.nonpolar>  (13) 
-37.0540

>  <Gold.PLP.part.repulsive>  (13) 
0.2478

>  <Gold.PLP.ligand.clash>  (13) 
0.0000

>  <Gold.PLP.ligand.torsion>  (13) 
0.9991

>  <Gold.PLP.Chemscore.Hbond>  (13) 
3.0000

>  <Gold.PLP.Chemscore.CHOScore>  (13) 
0.0000

>  <Gold.PLP.Chemscore.Metal>  (13) 
0.0000

>  <Gold.Chemscore.Hbonds>  (13) 
donor molecule, donor type, donor heavy atom, donor atom, acceptor molecule, acceptor atom, score
      L1  H     3    25       P1   675  1.00
      P1  H  2887  2891       L1     9  1.00
      P1  H  1888  1903       L1    15  1.00

>  <Gold.PLP.Chemscore.Internal.Correction>  (13) 
0.7232

>  <Gold.PLP.Constraint>  (13) 
-0.0000

>  <Gold.Protein.RotatedTorsions>  (13) 
[  681  677  676  673 ] final -129.06 input -179.99 | X-H torsion
[  702  698  697  694 ] final  -98.40 input  179.99 | X-H torsion
[ 2577 2569 2568 2566 ] final -165.93 input   -0.13 | X-H torsion
[ 2891 2887 2886 2883 ] final  142.46 input  179.98 | X-H torsion
[ 3175 3171 3170 3167 ] final  171.38 input -179.99 | X-H torsion
[ 5278 5270 5269 5267 ] final -144.58 input    0.55 | X-H torsion
[  641  637  636  633 ] final  -56.43 input  179.99 | X-H torsion
[ 1886 1878 1877 1875 ] final   80.32 input    1.60 | X-H torsion
[  965  957  956  954 ] final  120.17 input    0.45 | X-H torsion

>  <Gold.Protein.ActiveResidues>  (13) 
 LYS47   THR48   LEU49   GLY50   THR51   GLY52   SER53   PHE54   GLY55   ARG56  
 VAL57   MET58   LEU59   TYR69   ALA70   MET71   LYS72   ILE73   LEU74   GLU91  
 LEU95   VAL104  LYS105  MET118  VAL119  MET120  GLU121  TYR122  VAL123  PRO124 
 GLY125  GLY126  GLU127  MET128  PHE129  TYR164  ASP166  LEU167  LYS168  PRO169 
 GLU170  ASN171  LEU172  LEU173  ILE174  GLN181  VAL182  THR183  ASP184  PHE185 
 GLY186  PHE187  GLY200  THR201  ASN326  PHE327  TYR330  ARG18   ARG19   ASN20  
 ALA21   ILE22   HIS23  

>  <Gold.Protein.RotatedAtoms>  (13) 
   10.1021   18.9926    7.3305 H   0  0  0  0  0  0  0  0  0  0  0  0  # atno 641  bound_to 637 
   16.3237   13.8707    7.3969 H   0  0  0  0  0  0  0  0  0  0  0  0  # atno 681  bound_to 677 
   20.8201   11.5871   -0.4683 H   0  0  0  0  0  0  0  0  0  0  0  0  # atno 702  bound_to 698 
   -7.1610   16.5075   -0.0070 H   0  0  0  0  0  0  0  0  0  0  0  0  # atno 965  bound_to 957 
    1.7240   12.2737   10.7036 H   0  0  0  0  0  0  0  0  0  0  0  0  # atno 1886 bound_to 1878
   10.7752    2.1086   -2.4899 H   0  0  0  0  0  0  0  0  0  0  0  0  # atno 2577 bound_to 2569
    7.7816    6.9426    1.0692 H   0  0  0  0  0  0  0  0  0  0  0  0  # atno 2891 bound_to 2887
   18.0817    2.1471    0.0946 H   0  0  0  0  0  0  0  0  0  0  0  0  # atno 3175 bound_to 3171
   14.3691    9.9584    9.9219 H   0  0  0  0  0  0  0  0  0  0  0  0  # atno 5278 bound_to 5270
   17.2372   13.2555    6.2467 LP  0  0  0  0  0  0  0  0  0  0  0  0  # atno 5914 bound_to 677 
   15.7557   12.6427    6.5570 LP  0  0  0  0  0  0  0  0  0  0  0  0  # atno 5915 bound_to 677 
   20.5209   11.6535   -2.0314 LP  0  0  0  0  0  0  0  0  0  0  0  0  # atno 5920 bound_to 698 
   19.3209   11.8452   -0.9406 LP  0  0  0  0  0  0  0  0  0  0  0  0  # atno 5921 bound_to 698 
    9.2562    2.4531   -2.8201 LP  0  0  0  0  0  0  0  0  0  0  0  0  # atno 5950 bound_to 2569
   10.4689    3.3910   -3.3825 LP  0  0  0  0  0  0  0  0  0  0  0  0  # atno 5951 bound_to 2569
    8.2838    5.6962    0.2143 LP  0  0  0  0  0  0  0  0  0  0  0  0  # atno 5982 bound_to 2887
    7.2014    5.5019    1.4215 LP  0  0  0  0  0  0  0  0  0  0  0  0  # atno 5983 bound_to 2887
   18.5167    2.2914   -1.4304 LP  0  0  0  0  0  0  0  0  0  0  0  0  # atno 6000 bound_to 3171
   19.3422    3.0577   -0.2481 LP  0  0  0  0  0  0  0  0  0  0  0  0  # atno 6001 bound_to 3171
   13.3759   10.2306    8.7068 LP  0  0  0  0  0  0  0  0  0  0  0  0  # atno 6004 bound_to 5270
   12.8022    9.8588   10.1898 LP  0  0  0  0  0  0  0  0  0  0  0  0  # atno 6005 bound_to 5270
   11.4064   19.3643    8.1647 LP  0  0  0  0  0  0  0  0  0  0  0  0  # atno 6055 bound_to 637 
    9.9188   19.7346    8.7272 LP  0  0  0  0  0  0  0  0  0  0  0  0  # atno 6056 bound_to 637 
    1.9852   10.7441   10.3465 LP  0  0  0  0  0  0  0  0  0  0  0  0  # atno 6063 bound_to 1878
    0.5853   11.2140   11.0438 LP  0  0  0  0  0  0  0  0  0  0  0  0  # atno 6064 bound_to 1878
   -6.7295   15.3563   -1.0187 LP  0  0  0  0  0  0  0  0  0  0  0  0  # atno 6067 bound_to 957 
   -6.5367   16.9301   -1.4094 LP  0  0  0  0  0  0  0  0  0  0  0  0  # atno 6068 bound_to 957 

>  <STRIFE_LigEff_Score>  (13) 
2.618447368421053

$$$$
unknown|pharmsElabsTestPreDocking|sdf|22|dock4
     RDKit          3D

 17 18  0  0  0  0  0  0  0  0999 V2000
   14.8877    9.0104    1.3504 C   0  0  0  0  0  0  0  0  0  0  0  0
   13.9400    7.9165    1.8401 C   0  0  0  0  0  0  0  0  0  0  0  0
   13.5154    7.0273    0.7569 N   0  0  0  0  0  0  0  0  0  0  0  0
   12.7691    8.3177    2.7705 C   0  0  0  0  0  0  0  0  0  0  0  0
   11.6811    7.2408    2.8910 C   0  0  0  0  0  0  0  0  0  0  0  0
   10.3240    7.7047    3.3922 C   0  0  0  0  0  0  0  0  0  0  0  0
    9.9131    9.0342    2.8115 C   0  0  0  0  0  0  0  0  0  0  0  0
    8.4626    9.3615    3.0062 C   0  0  0  0  0  0  0  0  0  0  0  0
    8.2620   10.3064    3.8023 O   0  0  0  0  0  0  0  0  0  0  0  0
    7.3417    8.7021    2.3786 N   0  0  0  0  0  0  0  0  0  0  0  0
    5.9665    9.0123    2.7204 C   0  0  0  0  0  0  0  0  0  0  0  0
    4.8902    9.2008    1.8546 C   0  0  0  0  0  0  0  0  0  0  0  0
    3.8036    9.4868    2.6488 C   0  0  0  0  0  0  0  0  0  0  0  0
    4.1631    9.4852    3.9447 N   0  0  0  0  0  0  0  0  0  0  0  0
    5.4784    9.1982    3.9997 C   0  0  0  0  0  0  0  0  0  0  0  0
   10.9013   10.1584    2.9331 C   0  0  0  0  0  0  0  0  0  0  0  0
   12.2911    9.7576    2.4424 C   0  0  0  0  0  0  0  0  0  0  0  0
  1  2  1  0
  2  3  1  0
  2  4  1  0
  4  5  1  0
  5  6  1  0
  6  7  1  0
  7  8  1  0
  8  9  2  0
  8 10  1  0
 10 11  1  0
 11 12  1  0
 12 13  2  0
 13 14  1  0
 14 15  1  0
  7 16  1  0
 16 17  1  0
 17  4  1  0
 15 11  2  0
M  CHG  1   3   1
M  END
>  <EmbedRMS>  (14) 
0.3005329260886256

>  <Gold.Version>  (14) 
2020.3.0

>  <Gold.Id.Protein>  (14) 
unknown|1q8t_protein|pdb

>  <Gold.PLP.Fitness>  (14) 
47.1467

>  <Gold.PLP.PLP>  (14) 
-35.2967

>  <Gold.PLP.part.hbond>  (14) 
-2.7018

>  <Gold.PLP.part.metal>  (14) 
0.0000

>  <Gold.PLP.part.buried>  (14) 
-5.3410

>  <Gold.PLP.part.nonpolar>  (14) 
-28.2619

>  <Gold.PLP.part.repulsive>  (14) 
0.1216

>  <Gold.PLP.ligand.clash>  (14) 
0.0000

>  <Gold.PLP.ligand.torsion>  (14) 
1.5189

>  <Gold.PLP.Chemscore.Hbond>  (14) 
3.7520

>  <Gold.PLP.Chemscore.CHOScore>  (14) 
1.0000

>  <Gold.PLP.Chemscore.Metal>  (14) 
0.0000

>  <Gold.Chemscore.Hbonds>  (14) 
donor molecule, donor type, donor heavy atom, donor atom, acceptor molecule, acceptor atom, score
      L1  H     3    22       P1  2902  2.00
      L1  H     3    23       P1  2691  0.75
      L1  H    10    31       P1  2887  1.00
      L1  C    13    33       P1  1855  1.00

>  <Gold.PLP.Chemscore.Internal.Correction>  (14) 
0.6318

>  <Gold.PLP.Constraint>  (14) 
-0.0000

>  <Gold.Protein.RotatedTorsions>  (14) 
[  681  677  676  673 ] final   92.16 input -179.99 | X-H torsion
[  702  698  697  694 ] final -146.33 input  179.99 | X-H torsion
[ 2577 2569 2568 2566 ] final  174.20 input   -0.13 | X-H torsion
[ 2891 2887 2886 2883 ] final  -59.41 input  179.98 | X-H torsion
[ 3175 3171 3170 3167 ] final  157.31 input -179.99 | X-H torsion
[ 5278 5270 5269 5267 ] final -158.65 input    0.55 | X-H torsion
[  641  637  636  633 ] final  -88.11 input  179.99 | X-H torsion
[ 1886 1878 1877 1875 ] final   10.67 input    1.60 | X-H torsion
[  965  957  956  954 ] final    1.57 input    0.45 | X-H torsion

>  <Gold.Protein.ActiveResidues>  (14) 
 LYS47   THR48   LEU49   GLY50   THR51   GLY52   SER53   PHE54   GLY55   ARG56  
 VAL57   MET58   LEU59   TYR69   ALA70   MET71   LYS72   ILE73   LEU74   GLU91  
 LEU95   VAL104  LYS105  MET118  VAL119  MET120  GLU121  TYR122  VAL123  PRO124 
 GLY125  GLY126  GLU127  MET128  PHE129  TYR164  ASP166  LEU167  LYS168  PRO169 
 GLU170  ASN171  LEU172  LEU173  ILE174  GLN181  VAL182  THR183  ASP184  PHE185 
 GLY186  PHE187  GLY200  THR201  ASN326  PHE327  TYR330  ARG18   ARG19   ASN20  
 ALA21   ILE22   HIS23  

>  <Gold.Protein.RotatedAtoms>  (14) 
   10.5851   18.9389    7.2782 H   0  0  0  0  0  0  0  0  0  0  0  0  # atno 641  bound_to 637 
   17.0498   13.0464    6.1299 H   0  0  0  0  0  0  0  0  0  0  0  0  # atno 681  bound_to 677 
   21.1152   11.5477   -1.1327 H   0  0  0  0  0  0  0  0  0  0  0  0  # atno 702  bound_to 698 
   -6.7280   15.3969   -0.9816 H   0  0  0  0  0  0  0  0  0  0  0  0  # atno 965  bound_to 957 
    2.2533   11.4799   10.3349 H   0  0  0  0  0  0  0  0  0  0  0  0  # atno 1886 bound_to 1878
   10.5136    1.9651   -2.4094 H   0  0  0  0  0  0  0  0  0  0  0  0  # atno 2577 bound_to 2569
    7.4955    5.2089    0.9852 H   0  0  0  0  0  0  0  0  0  0  0  0  # atno 2891 bound_to 2887
   17.9885    2.0550   -0.0813 H   0  0  0  0  0  0  0  0  0  0  0  0  # atno 3175 bound_to 3171
   14.4204   10.0100    9.7148 H   0  0  0  0  0  0  0  0  0  0  0  0  # atno 5278 bound_to 5270
   15.6225   12.7940    6.7895 LP  0  0  0  0  0  0  0  0  0  0  0  0  # atno 5914 bound_to 677 
   16.6063   13.9718    7.3477 LP  0  0  0  0  0  0  0  0  0  0  0  0  # atno 5915 bound_to 677 
   19.7705   11.7850   -1.9529 LP  0  0  0  0  0  0  0  0  0  0  0  0  # atno 5920 bound_to 698 
   19.7609   11.7552   -0.3202 LP  0  0  0  0  0  0  0  0  0  0  0  0  # atno 5921 bound_to 698 
    9.2449    2.7198   -3.0061 LP  0  0  0  0  0  0  0  0  0  0  0  0  # atno 5950 bound_to 2569
   10.7556    3.2754   -3.2812 LP  0  0  0  0  0  0  0  0  0  0  0  0  # atno 5951 bound_to 2569
    7.4023    6.7197    1.4805 LP  0  0  0  0  0  0  0  0  0  0  0  0  # atno 5982 bound_to 2887
    8.3839    6.3032    0.2437 LP  0  0  0  0  0  0  0  0  0  0  0  0  # atno 5983 bound_to 2887
   18.7026    2.4259   -1.4554 LP  0  0  0  0  0  0  0  0  0  0  0  0  # atno 6000 bound_to 3171
   19.2543    3.0201   -0.0380 LP  0  0  0  0  0  0  0  0  0  0  0  0  # atno 6001 bound_to 3171
   13.1545   10.2127    8.7698 LP  0  0  0  0  0  0  0  0  0  0  0  0  # atno 6004 bound_to 5270
   12.9696    9.8223   10.3446 LP  0  0  0  0  0  0  0  0  0  0  0  0  # atno 6005 bound_to 5270
   11.2168   19.5903    8.5865 LP  0  0  0  0  0  0  0  0  0  0  0  0  # atno 6055 bound_to 637 
    9.5997   19.5653    8.3606 LP  0  0  0  0  0  0  0  0  0  0  0  0  # atno 6056 bound_to 637 
    1.0004   10.5916   10.7547 LP  0  0  0  0  0  0  0  0  0  0  0  0  # atno 6063 bound_to 1878
    1.0129   12.2022   11.0239 LP  0  0  0  0  0  0  0  0  0  0  0  0  # atno 6064 bound_to 1878
   -6.5302   16.9136   -1.4239 LP  0  0  0  0  0  0  0  0  0  0  0  0  # atno 6067 bound_to 957 
   -7.1919   16.5425    0.0222 LP  0  0  0  0  0  0  0  0  0  0  0  0  # atno 6068 bound_to 957 

>  <STRIFE_LigEff_Score>  (14) 
2.773335294117647

$$$$
unknown|pharmsElabsTestPreDocking|sdf|23|dock2
     RDKit          3D

 18 19  0  0  0  0  0  0  0  0999 V2000
   14.3785    9.5703    1.0951 C   0  0  0  0  0  0  0  0  0  0  0  0
   13.6545    8.3102    1.5385 C   0  0  0  0  0  0  0  0  0  0  0  0
   14.0180    7.1043    0.8025 N   0  0  0  0  0  0  0  0  0  0  0  0
   12.1631    8.4656    1.9665 C   0  0  0  0  0  0  0  0  0  0  0  0
   11.4711    7.2503    2.6036 C   0  0  0  0  0  0  0  0  0  0  0  0
    9.9401    7.4255    2.6125 C   0  0  0  0  0  0  0  0  0  0  0  0
    9.4743    8.8836    2.6089 C   0  0  0  0  0  0  0  0  0  0  0  0
    7.9963    9.0647    2.7636 C   0  0  0  0  0  0  0  0  0  0  0  0
    7.4181    9.3517    1.6928 O   0  0  0  0  0  0  0  0  0  0  0  0
    7.2414    8.9336    3.9905 N   0  0  0  0  0  0  0  0  0  0  0  0
    5.8218    9.2425    4.1236 C   0  0  0  0  0  0  0  0  0  0  0  0
    4.9521    8.9614    3.0522 C   0  0  0  0  0  0  0  0  0  0  0  0
    3.5800    9.2338    3.1507 C   0  0  0  0  0  0  0  0  0  0  0  0
    3.0545    9.7990    4.3133 C   0  0  0  0  0  0  0  0  0  0  0  0
    3.8924   10.0832    5.3836 C   0  0  0  0  0  0  0  0  0  0  0  0
    5.2518    9.7991    5.3018 C   0  0  0  0  0  0  0  0  0  0  0  0
   10.3917    9.9967    3.0786 C   0  0  0  0  0  0  0  0  0  0  0  0
   11.8888    9.7248    2.8169 C   0  0  0  0  0  0  0  0  0  0  0  0
  1  2  1  0
  2  3  1  0
  2  4  1  0
  4  5  1  0
  5  6  1  0
  6  7  1  0
  7  8  1  0
  8  9  2  0
  8 10  1  0
 10 11  1  0
 11 12  2  0
 12 13  1  0
 13 14  2  0
 14 15  1  0
 15 16  2  0
  7 17  1  0
 17 18  1  0
 18  4  1  0
 16 11  1  0
M  CHG  1   3   1
M  END
>  <EmbedRMS>  (15) 
0.24964892458419108

>  <Gold.Version>  (15) 
2020.3.0

>  <Gold.Id.Protein>  (15) 
unknown|1q8t_protein|pdb

>  <Gold.PLP.Fitness>  (15) 
56.4590

>  <Gold.PLP.PLP>  (15) 
-48.2102

>  <Gold.PLP.part.hbond>  (15) 
-2.0306

>  <Gold.PLP.part.metal>  (15) 
0.0000

>  <Gold.PLP.part.buried>  (15) 
-0.4762

>  <Gold.PLP.part.nonpolar>  (15) 
-45.5954

>  <Gold.PLP.part.repulsive>  (15) 
0.0683

>  <Gold.PLP.ligand.clash>  (15) 
0.0000

>  <Gold.PLP.ligand.torsion>  (15) 
0.8361

>  <Gold.PLP.Chemscore.Hbond>  (15) 
2.9920

>  <Gold.PLP.Chemscore.CHOScore>  (15) 
0.0000

>  <Gold.PLP.Chemscore.Metal>  (15) 
0.0000

>  <Gold.Chemscore.Hbonds>  (15) 
donor molecule, donor type, donor heavy atom, donor atom, acceptor molecule, acceptor atom, score
      L1  H     3    23       P1  2691  0.99
      L1  H     3    25       P1  2902  2.00

>  <Gold.PLP.Chemscore.Internal.Correction>  (15) 
0.9451

>  <Gold.PLP.Constraint>  (15) 
-0.0000

>  <Gold.Protein.RotatedTorsions>  (15) 
[  681  677  676  673 ] final  116.89 input -179.99 | X-H torsion
[  702  698  697  694 ] final  126.07 input  179.99 | X-H torsion
[ 2577 2569 2568 2566 ] final   53.97 input   -0.13 | X-H torsion
[ 2891 2887 2886 2883 ] final  112.62 input  179.98 | X-H torsion
[ 3175 3171 3170 3167 ] final   97.91 input -179.99 | X-H torsion
[ 5278 5270 5269 5267 ] final   84.09 input    0.55 | X-H torsion
[  641  637  636  633 ] final  159.15 input  179.99 | X-H torsion
[ 1886 1878 1877 1875 ] final   87.32 input    1.60 | X-H torsion
[  965  957  956  954 ] final   -2.22 input    0.45 | X-H torsion

>  <Gold.Protein.ActiveResidues>  (15) 
 LYS47   THR48   LEU49   GLY50   THR51   GLY52   SER53   PHE54   GLY55   ARG56  
 VAL57   MET58   LEU59   TYR69   ALA70   MET71   LYS72   ILE73   LEU74   GLU91  
 LEU95   VAL104  LYS105  MET118  VAL119  MET120  GLU121  TYR122  VAL123  PRO124 
 GLY125  GLY126  GLU127  MET128  PHE129  TYR164  ASP166  LEU167  LYS168  PRO169 
 GLU170  ASN171  LEU172  LEU173  ILE174  GLN181  VAL182  THR183  ASP184  PHE185 
 GLY186  PHE187  GLY200  THR201  ASN326  PHE327  TYR330  ARG18   ARG19   ASN20  
 ALA21   ILE22   HIS23  

>  <Gold.Protein.RotatedAtoms>  (15) 
   11.2414   19.5184    8.4849 H   0  0  0  0  0  0  0  0  0  0  0  0  # atno 641  bound_to 637 
   17.2190   13.3376    6.3138 H   0  0  0  0  0  0  0  0  0  0  0  0  # atno 681  bound_to 677 
   20.2749   11.7139   -2.0302 H   0  0  0  0  0  0  0  0  0  0  0  0  # atno 702  bound_to 698 
   -6.7043   15.4122   -1.0336 H   0  0  0  0  0  0  0  0  0  0  0  0  # atno 965  bound_to 957 
    1.6283   12.2988   10.7501 H   0  0  0  0  0  0  0  0  0  0  0  0  # atno 1886 bound_to 1878
    9.2932    2.7094   -3.0157 H   0  0  0  0  0  0  0  0  0  0  0  0  # atno 2577 bound_to 2569
    8.0727    6.8791    0.7168 H   0  0  0  0  0  0  0  0  0  0  0  0  # atno 2891 bound_to 2887
   18.0498    1.9849   -0.9640 H   0  0  0  0  0  0  0  0  0  0  0  0  # atno 3175 bound_to 3171
   13.2125   10.2231    8.8000 H   0  0  0  0  0  0  0  0  0  0  0  0  # atno 5278 bound_to 5270
   15.8140   12.6080    6.4865 LP  0  0  0  0  0  0  0  0  0  0  0  0  # atno 5914 bound_to 677 
   16.2367   13.8513    7.4572 LP  0  0  0  0  0  0  0  0  0  0  0  0  # atno 5915 bound_to 677 
   19.4046   11.8257   -0.7007 LP  0  0  0  0  0  0  0  0  0  0  0  0  # atno 5920 bound_to 698 
   21.0107   11.5396   -0.6282 LP  0  0  0  0  0  0  0  0  0  0  0  0  # atno 5921 bound_to 698 
   10.7586    3.2736   -3.2797 LP  0  0  0  0  0  0  0  0  0  0  0  0  # atno 5950 bound_to 2569
   10.5269    1.9379   -2.3692 LP  0  0  0  0  0  0  0  0  0  0  0  0  # atno 5951 bound_to 2569
    8.0436    5.3182    0.4020 LP  0  0  0  0  0  0  0  0  0  0  0  0  # atno 5982 bound_to 2887
    7.1352    5.9468    1.6047 LP  0  0  0  0  0  0  0  0  0  0  0  0  # atno 5983 bound_to 2887
   19.3201    2.9449   -0.9841 LP  0  0  0  0  0  0  0  0  0  0  0  0  # atno 6000 bound_to 3171
   18.5723    2.5749    0.4197 LP  0  0  0  0  0  0  0  0  0  0  0  0  # atno 6001 bound_to 3171
   12.9341    9.8286   10.3177 LP  0  0  0  0  0  0  0  0  0  0  0  0  # atno 6004 bound_to 5270
   14.4609    9.9823    9.7593 LP  0  0  0  0  0  0  0  0  0  0  0  0  # atno 6005 bound_to 5270
    9.6522   19.6116    8.4572 LP  0  0  0  0  0  0  0  0  0  0  0  0  # atno 6055 bound_to 637 
   10.4731   18.9335    7.2190 LP  0  0  0  0  0  0  0  0  0  0  0  0  # atno 6056 bound_to 637 
    2.0627   10.8267   10.3264 LP  0  0  0  0  0  0  0  0  0  0  0  0  # atno 6063 bound_to 1878
    0.6085   11.1051   11.0150 LP  0  0  0  0  0  0  0  0  0  0  0  0  # atno 6064 bound_to 1878
   -6.5481   16.9576   -1.3836 LP  0  0  0  0  0  0  0  0  0  0  0  0  # atno 6067 bound_to 957 
   -7.1990   16.4823    0.0366 LP  0  0  0  0  0  0  0  0  0  0  0  0  # atno 6068 bound_to 957 

>  <STRIFE_LigEff_Score>  (15) 
3.1366111111111112

$$$$
unknown|pharmsElabsTestPreDocking|sdf|24|dock3
     RDKit          3D

 17 18  0  0  0  0  0  0  0  0999 V2000
   13.9910    9.5212    1.1148 C   0  0  0  0  0  0  0  0  0  0  0  0
   13.4860    8.2770    1.8453 C   0  0  0  0  0  0  0  0  0  0  0  0
   13.3791    7.1351    0.9268 N   0  0  0  0  0  0  0  0  0  0  0  0
   12.2444    8.4181    2.7478 C   0  0  0  0  0  0  0  0  0  0  0  0
   11.2884    7.2095    2.9337 C   0  0  0  0  0  0  0  0  0  0  0  0
    9.8361    7.4561    2.5524 C   0  0  0  0  0  0  0  0  0  0  0  0
    9.3335    8.7923    3.0952 C   0  0  0  0  0  0  0  0  0  0  0  0
    7.8602    8.9447    2.8311 C   0  0  0  0  0  0  0  0  0  0  0  0
    7.4297    8.9040    1.6462 O   0  0  0  0  0  0  0  0  0  0  0  0
    6.9683    9.1591    3.9340 N   0  0  0  0  0  0  0  0  0  0  0  0
    5.5454    9.3013    3.8384 C   0  0  0  0  0  0  0  0  0  0  0  0
    4.7302    8.9396    2.7769 C   0  0  0  0  0  0  0  0  0  0  0  0
    3.4668    9.2946    3.1953 C   0  0  0  0  0  0  0  0  0  0  0  0
    3.5475    9.8293    4.4263 N   0  0  0  0  0  0  0  0  0  0  0  0
    4.8070    9.8385    4.8270 N   0  0  0  0  0  0  0  0  0  0  0  0
   10.1090    9.9240    2.4297 C   0  0  0  0  0  0  0  0  0  0  0  0
   11.6069    9.8409    2.7167 C   0  0  0  0  0  0  0  0  0  0  0  0
  1  2  1  0
  2  3  1  0
  2  4  1  0
  4  5  1  0
  5  6  1  0
  6  7  1  0
  7  8  1  0
  8  9  2  0
  8 10  1  0
 10 11  1  0
 11 12  1  0
 12 13  2  0
 13 14  1  0
 14 15  1  0
  7 16  1  0
 16 17  1  0
 17  4  1  0
 15 11  2  0
M  CHG  1   3   1
M  END
>  <EmbedRMS>  (16) 
0.20783527019262546

>  <Gold.Version>  (16) 
2020.3.0

>  <Gold.Id.Protein>  (16) 
unknown|1q8t_protein|pdb

>  <Gold.PLP.Fitness>  (16) 
46.7750

>  <Gold.PLP.PLP>  (16) 
-35.0554

>  <Gold.PLP.part.hbond>  (16) 
-3.0000

>  <Gold.PLP.part.metal>  (16) 
0.0000

>  <Gold.PLP.part.buried>  (16) 
-4.5407

>  <Gold.PLP.part.nonpolar>  (16) 
-27.2138

>  <Gold.PLP.part.repulsive>  (16) 
0.1698

>  <Gold.PLP.ligand.clash>  (16) 
0.0000

>  <Gold.PLP.ligand.torsion>  (16) 
1.2948

>  <Gold.PLP.Chemscore.Hbond>  (16) 
3.6480

>  <Gold.PLP.Chemscore.CHOScore>  (16) 
0.9857

>  <Gold.PLP.Chemscore.Metal>  (16) 
0.0000

>  <Gold.Chemscore.Hbonds>  (16) 
donor molecule, donor type, donor heavy atom, donor atom, acceptor molecule, acceptor atom, score
      L1  H     3    22       P1  2902  2.00
      L1  H     3    23       P1  2691  0.67
      P1  H  2887  2891       L1     9  0.98
      L1  C    13    33       P1  1855  0.99

>  <Gold.PLP.Chemscore.Internal.Correction>  (16) 
0.4081

>  <Gold.PLP.Constraint>  (16) 
-0.0000

>  <Gold.Protein.RotatedTorsions>  (16) 
[  681  677  676  673 ] final   94.53 input -179.99 | X-H torsion
[  702  698  697  694 ] final   29.64 input  179.99 | X-H torsion
[ 2577 2569 2568 2566 ] final  -75.75 input   -0.13 | X-H torsion
[ 2891 2887 2886 2883 ] final  136.85 input  179.98 | X-H torsion
[ 3175 3171 3170 3167 ] final   85.73 input -179.99 | X-H torsion
[ 5278 5270 5269 5267 ] final  155.05 input    0.55 | X-H torsion
[  641  637  636  633 ] final    7.45 input  179.99 | X-H torsion
[ 1886 1878 1877 1875 ] final  -41.67 input    1.60 | X-H torsion
[  965  957  956  954 ] final -157.46 input    0.45 | X-H torsion

>  <Gold.Protein.ActiveResidues>  (16) 
 LYS47   THR48   LEU49   GLY50   THR51   GLY52   SER53   PHE54   GLY55   ARG56  
 VAL57   MET58   LEU59   TYR69   ALA70   MET71   LYS72   ILE73   LEU74   GLU91  
 LEU95   VAL104  LYS105  MET118  VAL119  MET120  GLU121  TYR122  VAL123  PRO124 
 GLY125  GLY126  GLU127  MET128  PHE129  TYR164  ASP166  LEU167  LYS168  PRO169 
 GLU170  ASN171  LEU172  LEU173  ILE174  GLN181  VAL182  THR183  ASP184  PHE185 
 GLY186  PHE187  GLY200  THR201  ASN326  PHE327  TYR330  ARG18   ARG19   ASN20  
 ALA21   ILE22   HIS23  

>  <Gold.Protein.RotatedAtoms>  (16) 
    9.5750   19.3737    8.0192 H   0  0  0  0  0  0  0  0  0  0  0  0  # atno 641  bound_to 637 
   17.0716   13.0734    6.1431 H   0  0  0  0  0  0  0  0  0  0  0  0  # atno 681  bound_to 677 
   19.3520   11.8591   -1.0743 H   0  0  0  0  0  0  0  0  0  0  0  0  # atno 702  bound_to 698 
   -6.7479   17.1557   -0.9011 H   0  0  0  0  0  0  0  0  0  0  0  0  # atno 965  bound_to 957 
    1.9285   10.7603   10.3553 H   0  0  0  0  0  0  0  0  0  0  0  0  # atno 1886 bound_to 1878
   10.8411    3.1512   -3.2091 H   0  0  0  0  0  0  0  0  0  0  0  0  # atno 2577 bound_to 2569
    7.8395    6.9489    1.0035 H   0  0  0  0  0  0  0  0  0  0  0  0  # atno 2891 bound_to 2887
   18.1498    2.0389   -1.1164 H   0  0  0  0  0  0  0  0  0  0  0  0  # atno 3175 bound_to 3171
   14.2185   10.1697    9.0589 H   0  0  0  0  0  0  0  0  0  0  0  0  # atno 5278 bound_to 5270
   15.6347   12.7717    6.7599 LP  0  0  0  0  0  0  0  0  0  0  0  0  # atno 5914 bound_to 677 
   16.5711   13.9657    7.3635 LP  0  0  0  0  0  0  0  0  0  0  0  0  # atno 5915 bound_to 677 
   20.7448   11.5814   -0.3528 LP  0  0  0  0  0  0  0  0  0  0  0  0  # atno 5920 bound_to 698 
   20.6413   11.6312   -1.9817 LP  0  0  0  0  0  0  0  0  0  0  0  0  # atno 5921 bound_to 698 
   10.3744    1.8943   -2.3502 LP  0  0  0  0  0  0  0  0  0  0  0  0  # atno 5950 bound_to 2569
    9.2814    2.8519   -3.0952 LP  0  0  0  0  0  0  0  0  0  0  0  0  # atno 5951 bound_to 2569
    8.2477    5.6141    0.2364 LP  0  0  0  0  0  0  0  0  0  0  0  0  # atno 5982 bound_to 2887
    7.1765    5.5775    1.4684 LP  0  0  0  0  0  0  0  0  0  0  0  0  # atno 5983 bound_to 2887
   19.3734    3.0082   -0.8020 LP  0  0  0  0  0  0  0  0  0  0  0  0  # atno 6000 bound_to 3171
   18.4139    2.4547    0.3979 LP  0  0  0  0  0  0  0  0  0  0  0  0  # atno 6001 bound_to 3171
   12.6456   10.0786    9.2920 LP  0  0  0  0  0  0  0  0  0  0  0  0  # atno 6004 bound_to 5270
   13.6909    9.7885   10.5126 LP  0  0  0  0  0  0  0  0  0  0  0  0  # atno 6005 bound_to 5270
   10.9675   18.9765    7.3572 LP  0  0  0  0  0  0  0  0  0  0  0  0  # atno 6055 bound_to 637 
   10.9128   19.7211    8.8095 LP  0  0  0  0  0  0  0  0  0  0  0  0  # atno 6056 bound_to 637 
    0.5810   11.2456   11.0511 LP  0  0  0  0  0  0  0  0  0  0  0  0  # atno 6063 bound_to 1878
    1.7741   12.3057   10.7059 LP  0  0  0  0  0  0  0  0  0  0  0  0  # atno 6064 bound_to 1878
   -7.1848   15.9131   -0.0066 LP  0  0  0  0  0  0  0  0  0  0  0  0  # atno 6067 bound_to 957 
   -6.5164   15.6906   -1.4798 LP  0  0  0  0  0  0  0  0  0  0  0  0  # atno 6068 bound_to 957 

>  <STRIFE_LigEff_Score>  (16) 
2.751470588235294

$$$$
unknown|pharmsElabsTestPreDocking|sdf|25|dock9
     RDKit          3D

 18 18  0  0  0  0  0  0  0  0999 V2000
   14.1566    7.1436    3.3841 C   0  0  0  0  0  0  0  0  0  0  0  0
   13.8119    7.9406    2.1104 C   0  0  0  0  0  0  0  0  0  0  0  0
   14.0578    7.0971    0.9336 N   0  0  0  0  0  0  0  0  0  0  0  0
   12.3398    8.4439    2.1758 C   0  0  0  0  0  0  0  0  0  0  0  0
   11.3804    7.2458    2.3314 C   0  0  0  0  0  0  0  0  0  0  0  0
    9.9354    7.7140    2.2349 C   0  0  0  0  0  0  0  0  0  0  0  0
    9.6359    8.7321    3.3389 C   0  0  0  0  0  0  0  0  0  0  0  0
    8.2069    9.1803    3.2576 C   0  0  0  0  0  0  0  0  0  0  0  0
    7.7695   10.0752    4.0353 O   0  0  0  0  0  0  0  0  0  0  0  0
    7.3473    8.5763    2.2901 N   0  0  0  0  0  0  0  0  0  0  0  0
    5.9886    8.9805    2.1326 C   0  0  0  0  0  0  0  0  0  0  0  0
    5.2174    9.1587    3.2061 C   0  0  0  0  0  0  0  0  0  0  0  0
    3.8385    9.5612    3.1195 N   0  0  0  0  0  0  0  0  0  0  0  0
    3.2752    9.7773    1.8517 N   0  0  0  0  0  0  0  0  0  0  0  0
    2.9996    9.7881    4.2984 C   0  0  0  0  0  0  0  0  0  0  0  0
    3.6450    9.2351    5.4840 N   0  0  0  0  0  0  0  0  0  0  0  0
   10.5982    9.9302    3.2788 C   0  0  0  0  0  0  0  0  0  0  0  0
   12.0632    9.4636    3.3085 C   0  0  0  0  0  0  0  0  0  0  0  0
  1  2  1  0
  2  3  1  0
  2  4  1  0
  4  5  1  0
  5  6  1  0
  6  7  1  0
  7  8  1  0
  8  9  2  0
  8 10  1  0
 10 11  1  0
 11 12  2  0
 12 13  1  0
 13 14  1  0
 13 15  1  0
 15 16  1  0
  7 17  1  0
 17 18  1  0
 18  4  1  0
M  CHG  1   3   1
M  END
>  <EmbedRMS>  (17) 
0.03036159576021903

>  <Gold.Version>  (17) 
2020.3.0

>  <Gold.Id.Protein>  (17) 
unknown|1q8t_protein|pdb

>  <Gold.PLP.Fitness>  (17) 
57.8680

>  <Gold.PLP.PLP>  (17) 
-41.4669

>  <Gold.PLP.part.hbond>  (17) 
-5.2159

>  <Gold.PLP.part.metal>  (17) 
0.0000

>  <Gold.PLP.part.buried>  (17) 
-3.6502

>  <Gold.PLP.part.nonpolar>  (17) 
-32.6875

>  <Gold.PLP.part.repulsive>  (17) 
0.0723

>  <Gold.PLP.ligand.clash>  (17) 
0.7774

>  <Gold.PLP.ligand.torsion>  (17) 
0.4431

>  <Gold.PLP.Chemscore.Hbond>  (17) 
6.0000

>  <Gold.PLP.Chemscore.CHOScore>  (17) 
0.0000

>  <Gold.PLP.Chemscore.Metal>  (17) 
0.0000

>  <Gold.Chemscore.Hbonds>  (17) 
donor molecule, donor type, donor heavy atom, donor atom, acceptor molecule, acceptor atom, score
      L1  H     3    23       P1  2691  1.00
      L1  H     3    25       P1  2902  2.00
      L1  H    10    32       P1  2887  1.00
      L1  H    14    35       P1  1855  1.00
      L1  H    16    40       P1  1891  1.00

>  <Gold.PLP.Chemscore.Internal.Correction>  (17) 
0.0648

>  <Gold.PLP.Constraint>  (17) 
-0.0000

>  <Gold.Protein.RotatedTorsions>  (17) 
[  681  677  676  673 ] final  162.34 input -179.99 | X-H torsion
[  702  698  697  694 ] final  -78.20 input  179.99 | X-H torsion
[ 2577 2569 2568 2566 ] final  -74.90 input   -0.13 | X-H torsion
[ 2891 2887 2886 2883 ] final  -38.10 input  179.98 | X-H torsion
[ 3175 3171 3170 3167 ] final   94.97 input -179.99 | X-H torsion
[ 5278 5270 5269 5267 ] final   -7.07 input    0.55 | X-H torsion
[  641  637  636  633 ] final   40.28 input  179.99 | X-H torsion
[ 1886 1878 1877 1875 ] final  123.91 input    1.60 | X-H torsion
[  965  957  956  954 ] final   98.85 input    0.45 | X-H torsion

>  <Gold.Protein.ActiveResidues>  (17) 
 LYS47   THR48   LEU49   GLY50   THR51   GLY52   SER53   PHE54   GLY55   ARG56  
 VAL57   MET58   LEU59   TYR69   ALA70   MET71   LYS72   ILE73   LEU74   GLU91  
 LEU95   VAL104  LYS105  MET118  VAL119  MET120  GLU121  TYR122  VAL123  PRO124 
 GLY125  GLY126  GLU127  MET128  PHE129  TYR164  ASP166  LEU167  LYS168  PRO169 
 GLU170  ASN171  LEU172  LEU173  ILE174  GLN181  VAL182  THR183  ASP184  PHE185 
 GLY186  PHE187  GLY200  THR201  ASN326  PHE327  TYR330  ARG18   ARG19   ASN20  
 ALA21   ILE22   HIS23  

>  <Gold.Protein.RotatedAtoms>  (17) 
    9.7016   19.5910    8.4585 H   0  0  0  0  0  0  0  0  0  0  0  0  # atno 641  bound_to 637 
   17.1495   13.8046    6.8198 H   0  0  0  0  0  0  0  0  0  0  0  0  # atno 681  bound_to 677 
   20.5566   11.6307   -0.3026 H   0  0  0  0  0  0  0  0  0  0  0  0  # atno 702  bound_to 698 
   -7.1751   16.1774    0.0170 H   0  0  0  0  0  0  0  0  0  0  0  0  # atno 965  bound_to 957 
    1.1142   12.2180   10.9629 H   0  0  0  0  0  0  0  0  0  0  0  0  # atno 1886 bound_to 1878
   10.8321    3.1590   -3.2151 H   0  0  0  0  0  0  0  0  0  0  0  0  # atno 2577 bound_to 2569
    7.7085    5.1843    0.7326 H   0  0  0  0  0  0  0  0  0  0  0  0  # atno 2891 bound_to 2887
   18.0716    1.9960   -1.0029 H   0  0  0  0  0  0  0  0  0  0  0  0  # atno 3175 bound_to 3171
   12.6990    9.9373    9.9370 H   0  0  0  0  0  0  0  0  0  0  0  0  # atno 5278 bound_to 5270
   16.4245   12.5892    6.0896 LP  0  0  0  0  0  0  0  0  0  0  0  0  # atno 5914 bound_to 677 
   15.6993   13.3786    7.3215 LP  0  0  0  0  0  0  0  0  0  0  0  0  # atno 5915 bound_to 677 
   20.8074   11.5997   -1.8753 LP  0  0  0  0  0  0  0  0  0  0  0  0  # atno 5920 bound_to 698 
   19.3116   11.8532   -1.2711 LP  0  0  0  0  0  0  0  0  0  0  0  0  # atno 5921 bound_to 698 
   10.3880    1.8973   -2.3512 LP  0  0  0  0  0  0  0  0  0  0  0  0  # atno 5950 bound_to 2569
    9.2772    2.8408   -3.0878 LP  0  0  0  0  0  0  0  0  0  0  0  0  # atno 5951 bound_to 2569
    7.2402    6.4351    1.6001 LP  0  0  0  0  0  0  0  0  0  0  0  0  # atno 5982 bound_to 2887
    8.3219    6.6136    0.3899 LP  0  0  0  0  0  0  0  0  0  0  0  0  # atno 5983 bound_to 2887
   19.3359    2.9622   -0.9418 LP  0  0  0  0  0  0  0  0  0  0  0  0  # atno 6000 bound_to 3171
   18.5336    2.5460    0.4183 LP  0  0  0  0  0  0  0  0  0  0  0  0  # atno 6001 bound_to 3171
   14.2725    9.8774   10.1765 LP  0  0  0  0  0  0  0  0  0  0  0  0  # atno 6004 bound_to 5270
   13.6628   10.2342    8.7042 LP  0  0  0  0  0  0  0  0  0  0  0  0  # atno 6005 bound_to 5270
   10.4545   18.9344    7.2187 LP  0  0  0  0  0  0  0  0  0  0  0  0  # atno 6055 bound_to 637 
   11.2925   19.5344    8.4853 LP  0  0  0  0  0  0  0  0  0  0  0  0  # atno 6056 bound_to 637 
    2.2967   11.3703   10.3160 LP  0  0  0  0  0  0  0  0  0  0  0  0  # atno 6063 bound_to 1878
    0.9157   10.6465   10.8014 LP  0  0  0  0  0  0  0  0  0  0  0  0  # atno 6064 bound_to 1878
   -6.5975   15.5048   -1.3055 LP  0  0  0  0  0  0  0  0  0  0  0  0  # atno 6067 bound_to 957 
   -6.6537   17.1292   -1.1480 LP  0  0  0  0  0  0  0  0  0  0  0  0  # atno 6068 bound_to 957 

>  <STRIFE_LigEff_Score>  (17) 
3.214888888888889

$$$$
unknown|pharmsElabsTestPreDocking|sdf|26|dock9
     RDKit          3D

 19 20  0  0  0  0  0  0  0  0999 V2000
   15.0389    6.9817    3.1492 C   0  0  0  0  0  0  0  0  0  0  0  0
   13.7355    7.1748    2.3758 C   0  0  0  0  0  0  0  0  0  0  0  0
   13.8748    8.1503    1.2926 N   0  0  0  0  0  0  0  0  0  0  0  0
   12.4234    7.3617    3.1769 C   0  0  0  0  0  0  0  0  0  0  0  0
   11.1575    7.0348    2.3716 C   0  0  0  0  0  0  0  0  0  0  0  0
    9.8526    7.6076    2.8999 C   0  0  0  0  0  0  0  0  0  0  0  0
    9.9981    9.0225    3.4003 C   0  0  0  0  0  0  0  0  0  0  0  0
    8.6931    9.7281    3.6249 C   0  0  0  0  0  0  0  0  0  0  0  0
    8.1964   10.2527    2.5981 O   0  0  0  0  0  0  0  0  0  0  0  0
    7.9989    9.8605    4.8781 N   0  0  0  0  0  0  0  0  0  0  0  0
    6.7861   10.6930    4.9161 C   0  0  0  0  0  0  0  0  0  0  0  0
    5.6229   10.0250    4.2480 C   0  0  0  0  0  0  0  0  0  0  0  0
    4.6792    9.3213    5.0124 C   0  0  0  0  0  0  0  0  0  0  0  0
    3.5863    8.7123    4.3901 C   0  0  0  0  0  0  0  0  0  0  0  0
    3.4290    8.8044    3.0043 C   0  0  0  0  0  0  0  0  0  0  0  0
    4.3666    9.5026    2.2380 C   0  0  0  0  0  0  0  0  0  0  0  0
    5.4611   10.1130    2.8565 C   0  0  0  0  0  0  0  0  0  0  0  0
   11.0958    9.2723    4.3962 C   0  0  0  0  0  0  0  0  0  0  0  0
   12.4398    8.7212    3.9250 C   0  0  0  0  0  0  0  0  0  0  0  0
  1  2  1  0
  2  3  1  0
  2  4  1  0
  4  5  1  0
  5  6  1  0
  6  7  1  0
  7  8  1  0
  8  9  2  0
  8 10  1  0
 10 11  1  0
 11 12  1  0
 12 13  2  0
 13 14  1  0
 14 15  2  0
 15 16  1  0
 16 17  2  0
  7 18  1  0
 18 19  1  0
 19  4  1  0
 17 12  1  0
M  CHG  1   3   1
M  END
>  <EmbedRMS>  (18) 
0.2846631031672363

>  <Gold.Version>  (18) 
2020.3.0

>  <Gold.Id.Protein>  (18) 
unknown|1q8t_protein|pdb

>  <Gold.PLP.Fitness>  (18) 
52.5807

>  <Gold.PLP.PLP>  (18) 
-48.1190

>  <Gold.PLP.part.hbond>  (18) 
-1.0000

>  <Gold.PLP.part.metal>  (18) 
0.0000

>  <Gold.PLP.part.buried>  (18) 
-1.0780

>  <Gold.PLP.part.nonpolar>  (18) 
-46.4114

>  <Gold.PLP.part.repulsive>  (18) 
0.0104

>  <Gold.PLP.ligand.clash>  (18) 
0.0000

>  <Gold.PLP.ligand.torsion>  (18) 
1.0820

>  <Gold.PLP.Chemscore.Hbond>  (18) 
2.0000

>  <Gold.PLP.Chemscore.CHOScore>  (18) 
0.0000

>  <Gold.PLP.Chemscore.Metal>  (18) 
0.0000

>  <Gold.Chemscore.Hbonds>  (18) 
donor molecule, donor type, donor heavy atom, donor atom, acceptor molecule, acceptor atom, score
      L1  H     3    26       P1  2902  2.00

>  <Gold.PLP.Chemscore.Internal.Correction>  (18) 
0.6258

>  <Gold.PLP.Constraint>  (18) 
-0.0000

>  <Gold.Protein.RotatedTorsions>  (18) 
[  681  677  676  673 ] final   54.73 input -179.99 | X-H torsion
[  702  698  697  694 ] final  -69.69 input  179.99 | X-H torsion
[ 2577 2569 2568 2566 ] final   17.05 input   -0.13 | X-H torsion
[ 2891 2887 2886 2883 ] final   85.38 input  179.98 | X-H torsion
[ 3175 3171 3170 3167 ] final   37.66 input -179.99 | X-H torsion
[ 5278 5270 5269 5267 ] final   26.34 input    0.55 | X-H torsion
[  641  637  636  633 ] final -151.55 input  179.99 | X-H torsion
[ 1886 1878 1877 1875 ] final   71.87 input    1.60 | X-H torsion
[  965  957  956  954 ] final   60.19 input    0.45 | X-H torsion

>  <Gold.Protein.ActiveResidues>  (18) 
 LYS47   THR48   LEU49   GLY50   THR51   GLY52   SER53   PHE54   GLY55   ARG56  
 VAL57   MET58   LEU59   TYR69   ALA70   MET71   LYS72   ILE73   LEU74   GLU91  
 LEU95   VAL104  LYS105  MET118  VAL119  MET120  GLU121  TYR122  VAL123  PRO124 
 GLY125  GLY126  GLU127  MET128  PHE129  TYR164  ASP166  LEU167  LYS168  PRO169 
 GLU170  ASN171  LEU172  LEU173  ILE174  GLN181  VAL182  THR183  ASP184  PHE185 
 GLY186  PHE187  GLY200  THR201  ASN326  PHE327  TYR330  ARG18   ARG19   ASN20  
 ALA21   ILE22   HIS23  

>  <Gold.Protein.RotatedAtoms>  (18) 
   11.3138   19.1772    7.8246 H   0  0  0  0  0  0  0  0  0  0  0  0  # atno 641  bound_to 637 
   16.5947   12.7006    6.0690 H   0  0  0  0  0  0  0  0  0  0  0  0  # atno 681  bound_to 677 
   20.4315   11.6521   -0.2626 H   0  0  0  0  0  0  0  0  0  0  0  0  # atno 702  bound_to 698 
   -7.0749   15.6411   -0.2144 H   0  0  0  0  0  0  0  0  0  0  0  0  # atno 965  bound_to 957 
    1.8336   12.2266   10.6473 H   0  0  0  0  0  0  0  0  0  0  0  0  # atno 1886 bound_to 1878
    9.5469    3.1345   -3.2923 H   0  0  0  0  0  0  0  0  0  0  0  0  # atno 2577 bound_to 2569
    8.2648    6.6309    0.4348 H   0  0  0  0  0  0  0  0  0  0  0  0  # atno 2891 bound_to 2887
   18.7052    2.4123   -1.4068 H   0  0  0  0  0  0  0  0  0  0  0  0  # atno 3175 bound_to 3171
   12.6522   10.0597    9.4387 H   0  0  0  0  0  0  0  0  0  0  0  0  # atno 5278 bound_to 5270
   15.6213   13.2233    7.2159 LP  0  0  0  0  0  0  0  0  0  0  0  0  # atno 5914 bound_to 677 
   17.0865   13.9065    6.9855 LP  0  0  0  0  0  0  0  0  0  0  0  0  # atno 5915 bound_to 677 
   20.9086   11.5799   -1.7807 LP  0  0  0  0  0  0  0  0  0  0  0  0  # atno 5920 bound_to 698 
   19.3420   11.8505   -1.4076 LP  0  0  0  0  0  0  0  0  0  0  0  0  # atno 5921 bound_to 698 
   11.0864    2.8752   -2.9791 LP  0  0  0  0  0  0  0  0  0  0  0  0  # atno 5950 bound_to 2569
    9.9320    1.8886   -2.3786 LP  0  0  0  0  0  0  0  0  0  0  0  0  # atno 5951 bound_to 2569
    7.7567    5.1436    0.6925 LP  0  0  0  0  0  0  0  0  0  0  0  0  # atno 5982 bound_to 2887
    7.2200    6.3826    1.6109 LP  0  0  0  0  0  0  0  0  0  0  0  0  # atno 5983 bound_to 2887
   19.2571    3.0215   -0.0430 LP  0  0  0  0  0  0  0  0  0  0  0  0  # atno 6000 bound_to 3171
   17.9457    2.0485   -0.0554 LP  0  0  0  0  0  0  0  0  0  0  0  0  # atno 6001 bound_to 3171
   13.8297    9.7982   10.4789 LP  0  0  0  0  0  0  0  0  0  0  0  0  # atno 6004 bound_to 5270
   14.1549   10.1846    8.9260 LP  0  0  0  0  0  0  0  0  0  0  0  0  # atno 6005 bound_to 5270
   10.2912   19.7914    8.8791 LP  0  0  0  0  0  0  0  0  0  0  0  0  # atno 6055 bound_to 637 
    9.7580   19.1132    7.4926 LP  0  0  0  0  0  0  0  0  0  0  0  0  # atno 6056 bound_to 637 
    1.8808   10.6580   10.3779 LP  0  0  0  0  0  0  0  0  0  0  0  0  # atno 6063 bound_to 1878
    0.5743   11.3496   11.0718 LP  0  0  0  0  0  0  0  0  0  0  0  0  # atno 6064 bound_to 1878
   -6.4459   16.0172   -1.6279 LP  0  0  0  0  0  0  0  0  0  0  0  0  # atno 6067 bound_to 957 
   -6.9109   17.1816   -0.5818 LP  0  0  0  0  0  0  0  0  0  0  0  0  # atno 6068 bound_to 957 

>  <STRIFE_LigEff_Score>  (18) 
2.7674052631578947

$$$$
unknown|pharmsElabsTestPreDocking|sdf|27|dock2
     RDKit          3D

 18 19  0  0  0  0  0  0  0  0999 V2000
   13.8974    6.7776    3.2759 C   0  0  0  0  0  0  0  0  0  0  0  0
   13.7113    7.7765    2.1167 C   0  0  0  0  0  0  0  0  0  0  0  0
   13.9479    7.0850    0.8428 N   0  0  0  0  0  0  0  0  0  0  0  0
   12.2930    8.4165    2.1837 C   0  0  0  0  0  0  0  0  0  0  0  0
   11.2197    7.3515    1.8768 C   0  0  0  0  0  0  0  0  0  0  0  0
    9.8464    8.0015    1.7820 C   0  0  0  0  0  0  0  0  0  0  0  0
    9.4943    8.6884    3.1049 C   0  0  0  0  0  0  0  0  0  0  0  0
    8.1321    9.3132    3.0201 C   0  0  0  0  0  0  0  0  0  0  0  0
    7.9156   10.4551    3.5153 O   0  0  0  0  0  0  0  0  0  0  0  0
    7.0803    8.5962    2.3737 N   0  0  0  0  0  0  0  0  0  0  0  0
    5.7482    9.1645    2.2224 C   0  0  0  0  0  0  0  0  0  0  0  0
    5.0717    9.2206    3.5503 C   0  0  0  0  0  0  0  0  0  0  0  0
    5.4344   10.0186    4.6159 C   0  0  0  0  0  0  0  0  0  0  0  0
    4.4743    9.8079    5.5846 C   0  0  0  0  0  0  0  0  0  0  0  0
    3.5464    8.9387    5.1398 N   0  0  0  0  0  0  0  0  0  0  0  0
    3.8973    8.5847    3.8916 C   0  0  0  0  0  0  0  0  0  0  0  0
   10.5587    9.7250    3.5032 C   0  0  0  0  0  0  0  0  0  0  0  0
   11.9606    9.0931    3.5369 C   0  0  0  0  0  0  0  0  0  0  0  0
  1  2  1  0
  2  3  1  0
  2  4  1  0
  4  5  1  0
  5  6  1  0
  6  7  1  0
  7  8  1  0
  8  9  2  0
  8 10  1  0
 10 11  1  0
 11 12  1  0
 12 13  1  0
 13 14  2  0
 14 15  1  0
 15 16  1  0
  7 17  1  0
 17 18  1  0
 18  4  1  0
 16 12  2  0
M  CHG  1   3   1
M  END
>  <EmbedRMS>  (19) 
0.029013692847384143

>  <Gold.Version>  (19) 
2020.3.0

>  <Gold.Id.Protein>  (19) 
unknown|1q8t_protein|pdb

>  <Gold.PLP.Fitness>  (19) 
56.6453

>  <Gold.PLP.PLP>  (19) 
-42.6757

>  <Gold.PLP.part.hbond>  (19) 
-4.0000

>  <Gold.PLP.part.metal>  (19) 
0.0000

>  <Gold.PLP.part.buried>  (19) 
-3.0811

>  <Gold.PLP.part.nonpolar>  (19) 
-35.9199

>  <Gold.PLP.part.repulsive>  (19) 
0.1670

>  <Gold.PLP.ligand.clash>  (19) 
0.0273

>  <Gold.PLP.ligand.torsion>  (19) 
0.5465

>  <Gold.PLP.Chemscore.Hbond>  (19) 
5.0000

>  <Gold.PLP.Chemscore.CHOScore>  (19) 
0.0000

>  <Gold.PLP.Chemscore.Metal>  (19) 
0.0000

>  <Gold.Chemscore.Hbonds>  (19) 
donor molecule, donor type, donor heavy atom, donor atom, acceptor molecule, acceptor atom, score
      L1  H     3    24       P1  2691  1.00
      L1  H     3    25       P1  2902  2.00
      L1  H    10    32       P1  2887  1.00
      L1  H    15    37       P1  1891  1.00

>  <Gold.PLP.Chemscore.Internal.Correction>  (19) 
0.0898

>  <Gold.PLP.Constraint>  (19) 
-0.0000

>  <Gold.Protein.RotatedTorsions>  (19) 
[  681  677  676  673 ] final -177.33 input -179.99 | X-H torsion
[  702  698  697  694 ] final   99.27 input  179.99 | X-H torsion
[ 2577 2569 2568 2566 ] final  -85.26 input   -0.13 | X-H torsion
[ 2891 2887 2886 2883 ] final  -79.16 input  179.98 | X-H torsion
[ 3175 3171 3170 3167 ] final -115.72 input -179.99 | X-H torsion
[ 5278 5270 5269 5267 ] final  107.53 input    0.55 | X-H torsion
[  641  637  636  633 ] final  -41.85 input  179.99 | X-H torsion
[ 1886 1878 1877 1875 ] final  -50.82 input    1.60 | X-H torsion
[  965  957  956  954 ] final  142.23 input    0.45 | X-H torsion

>  <Gold.Protein.ActiveResidues>  (19) 
 LYS47   THR48   LEU49   GLY50   THR51   GLY52   SER53   PHE54   GLY55   ARG56  
 VAL57   MET58   LEU59   TYR69   ALA70   MET71   LYS72   ILE73   LEU74   GLU91  
 LEU95   VAL104  LYS105  MET118  VAL119  MET120  GLU121  TYR122  VAL123  PRO124 
 GLY125  GLY126  GLU127  MET128  PHE129  TYR164  ASP166  LEU167  LYS168  PRO169 
 GLU170  ASN171  LEU172  LEU173  ILE174  GLN181  VAL182  THR183  ASP184  PHE185 
 GLY186  PHE187  GLY200  THR201  ASN326  PHE327  TYR330  ARG18   ARG19   ASN20  
 ALA21   ILE22   HIS23  

>  <Gold.Protein.RotatedAtoms>  (19) 
    9.9087   19.0552    7.4319 H   0  0  0  0  0  0  0  0  0  0  0  0  # atno 641  bound_to 637 
   16.9666   13.9220    7.0495 H   0  0  0  0  0  0  0  0  0  0  0  0  # atno 681  bound_to 677 
   19.8729   11.7837   -1.9520 H   0  0  0  0  0  0  0  0  0  0  0  0  # atno 702  bound_to 698 
   -7.0953   16.8141   -0.1450 H   0  0  0  0  0  0  0  0  0  0  0  0  # atno 965  bound_to 957 
    1.8181   10.6763   10.3897 H   0  0  0  0  0  0  0  0  0  0  0  0  # atno 1886 bound_to 1878
   10.9310    3.0574   -3.1373 H   0  0  0  0  0  0  0  0  0  0  0  0  # atno 2577 bound_to 2569
    7.3284    5.3364    1.2093 H   0  0  0  0  0  0  0  0  0  0  0  0  # atno 2891 bound_to 2887
   18.9114    2.7864    0.2833 H   0  0  0  0  0  0  0  0  0  0  0  0  # atno 3175 bound_to 3171
   13.5721   10.2403    8.7453 H   0  0  0  0  0  0  0  0  0  0  0  0  # atno 5278 bound_to 5270
   16.7252   12.7201    6.0331 LP  0  0  0  0  0  0  0  0  0  0  0  0  # atno 5914 bound_to 677 
   15.5911   13.1242    7.1363 LP  0  0  0  0  0  0  0  0  0  0  0  0  # atno 5915 bound_to 677 
   19.6850   11.7696   -0.3703 LP  0  0  0  0  0  0  0  0  0  0  0  0  # atno 5920 bound_to 698 
   21.1532   11.5223   -1.0410 LP  0  0  0  0  0  0  0  0  0  0  0  0  # atno 5921 bound_to 698 
   10.2197    1.8726   -2.3464 LP  0  0  0  0  0  0  0  0  0  0  0  0  # atno 5950 bound_to 2569
    9.3414    2.9725   -3.1745 LP  0  0  0  0  0  0  0  0  0  0  0  0  # atno 5951 bound_to 2569
    7.5969    6.9037    1.2992 LP  0  0  0  0  0  0  0  0  0  0  0  0  # atno 5982 bound_to 2887
    8.3652    5.9850    0.1891 LP  0  0  0  0  0  0  0  0  0  0  0  0  # atno 5983 bound_to 2887
   17.8816    1.9324   -0.5803 LP  0  0  0  0  0  0  0  0  0  0  0  0  # atno 6000 bound_to 3171
   19.1041    2.7440   -1.2968 LP  0  0  0  0  0  0  0  0  0  0  0  0  # atno 6001 bound_to 3171
   12.6928    9.8975   10.0283 LP  0  0  0  0  0  0  0  0  0  0  0  0  # atno 6004 bound_to 5270
   14.3239    9.8953   10.1063 LP  0  0  0  0  0  0  0  0  0  0  0  0  # atno 6005 bound_to 5270
   11.4002   19.2558    7.9515 LP  0  0  0  0  0  0  0  0  0  0  0  0  # atno 6055 bound_to 637 
   10.1288   19.7773    8.8337 LP  0  0  0  0  0  0  0  0  0  0  0  0  # atno 6056 bound_to 637 
    0.5747   11.3933   11.0791 LP  0  0  0  0  0  0  0  0  0  0  0  0  # atno 6063 bound_to 1878
    1.8967   12.2465   10.6418 LP  0  0  0  0  0  0  0  0  0  0  0  0  # atno 6064 bound_to 1878
   -6.8788   15.3342   -0.6911 LP  0  0  0  0  0  0  0  0  0  0  0  0  # atno 6067 bound_to 957 
   -6.4566   16.6293   -1.5917 LP  0  0  0  0  0  0  0  0  0  0  0  0  # atno 6068 bound_to 957 

>  <STRIFE_LigEff_Score>  (19) 
3.146961111111111

$$$$
unknown|pharmsElabsTestPreDocking|sdf|28|dock9
     RDKit          3D

 17 18  0  0  0  0  0  0  0  0999 V2000
   13.7197    7.1364    3.5376 C   0  0  0  0  0  0  0  0  0  0  0  0
   13.4678    8.0364    2.3118 C   0  0  0  0  0  0  0  0  0  0  0  0
   13.7976    7.2901    1.0907 N   0  0  0  0  0  0  0  0  0  0  0  0
   11.9947    8.5417    2.3121 C   0  0  0  0  0  0  0  0  0  0  0  0
   11.0264    7.3407    2.3134 C   0  0  0  0  0  0  0  0  0  0  0  0
    9.5917    7.8224    2.1525 C   0  0  0  0  0  0  0  0  0  0  0  0
    9.2160    8.7588    3.3053 C   0  0  0  0  0  0  0  0  0  0  0  0
    7.7956    9.2206    3.1566 C   0  0  0  0  0  0  0  0  0  0  0  0
    7.4411    9.8448    2.1192 O   0  0  0  0  0  0  0  0  0  0  0  0
    6.8651    8.9441    4.2111 N   0  0  0  0  0  0  0  0  0  0  0  0
    5.4749    9.2867    4.2101 C   0  0  0  0  0  0  0  0  0  0  0  0
    4.7382    9.8001    5.2655 C   0  0  0  0  0  0  0  0  0  0  0  0
    3.4550    9.9529    4.7853 C   0  0  0  0  0  0  0  0  0  0  0  0
    3.4650    9.5310    3.4709 C   0  0  0  0  0  0  0  0  0  0  0  0
    4.6981    9.1261    3.1249 N   0  0  0  0  0  0  0  0  0  0  0  0
   10.1812    9.9527    3.3988 C   0  0  0  0  0  0  0  0  0  0  0  0
   11.6407    9.4774    3.4948 C   0  0  0  0  0  0  0  0  0  0  0  0
  1  2  1  0
  2  3  1  0
  2  4  1  0
  4  5  1  0
  5  6  1  0
  6  7  1  0
  7  8  1  0
  8  9  2  0
  8 10  1  0
 10 11  1  0
 11 12  2  0
 12 13  1  0
 13 14  2  0
 14 15  1  0
  7 16  1  0
 16 17  1  0
 17  4  1  0
 15 11  1  0
M  CHG  1   3   1
M  END
>  <EmbedRMS>  (20) 
0.03061905892919758

>  <Gold.Version>  (20) 
2020.3.0

>  <Gold.Id.Protein>  (20) 
unknown|1q8t_protein|pdb

>  <Gold.PLP.Fitness>  (20) 
53.5764

>  <Gold.PLP.PLP>  (20) 
-42.3273

>  <Gold.PLP.part.hbond>  (20) 
-2.0000

>  <Gold.PLP.part.metal>  (20) 
0.0000

>  <Gold.PLP.part.buried>  (20) 
-3.8360

>  <Gold.PLP.part.nonpolar>  (20) 
-36.6420

>  <Gold.PLP.part.repulsive>  (20) 
0.0524

>  <Gold.PLP.ligand.clash>  (20) 
0.0000

>  <Gold.PLP.ligand.torsion>  (20) 
0.3931

>  <Gold.PLP.Chemscore.Hbond>  (20) 
3.0000

>  <Gold.PLP.Chemscore.CHOScore>  (20) 
1.0000

>  <Gold.PLP.Chemscore.Metal>  (20) 
0.0000

>  <Gold.Chemscore.Hbonds>  (20) 
donor molecule, donor type, donor heavy atom, donor atom, acceptor molecule, acceptor atom, score
      L1  H     3    22       P1  2691  1.00
      L1  H     3    23       P1  2902  2.00
      L1  C    14    34       P1  1855  1.00

>  <Gold.PLP.Chemscore.Internal.Correction>  (20) 
0.0354

>  <Gold.PLP.Constraint>  (20) 
-0.0000

>  <Gold.Protein.RotatedTorsions>  (20) 
[  681  677  676  673 ] final  -81.20 input -179.99 | X-H torsion
[  702  698  697  694 ] final  -92.00 input  179.99 | X-H torsion
[ 2577 2569 2568 2566 ] final   42.21 input   -0.13 | X-H torsion
[ 2891 2887 2886 2883 ] final  -23.56 input  179.98 | X-H torsion
[ 3175 3171 3170 3167 ] final -151.84 input -179.99 | X-H torsion
[ 5278 5270 5269 5267 ] final   50.23 input    0.55 | X-H torsion
[  641  637  636  633 ] final  165.74 input  179.99 | X-H torsion
[ 1886 1878 1877 1875 ] final  -53.00 input    1.60 | X-H torsion
[  965  957  956  954 ] final   38.05 input    0.45 | X-H torsion

>  <Gold.Protein.ActiveResidues>  (20) 
 LYS47   THR48   LEU49   GLY50   THR51   GLY52   SER53   PHE54   GLY55   ARG56  
 VAL57   MET58   LEU59   TYR69   ALA70   MET71   LYS72   ILE73   LEU74   GLU91  
 LEU95   VAL104  LYS105  MET118  VAL119  MET120  GLU121  TYR122  VAL123  PRO124 
 GLY125  GLY126  GLU127  MET128  PHE129  TYR164  ASP166  LEU167  LYS168  PRO169 
 GLU170  ASN171  LEU172  LEU173  ILE174  GLN181  VAL182  THR183  ASP184  PHE185 
 GLY186  PHE187  GLY200  THR201  ASN326  PHE327  TYR330  ARG18   ARG19   ASN20  
 ALA21   ILE22   HIS23  

>  <Gold.Protein.RotatedAtoms>  (20) 
   11.2880   19.4746    8.4042 H   0  0  0  0  0  0  0  0  0  0  0  0  # atno 641  bound_to 637 
   15.7569   13.4251    7.3063 H   0  0  0  0  0  0  0  0  0  0  0  0  # atno 681  bound_to 677 
   20.7430   11.5996   -0.4057 H   0  0  0  0  0  0  0  0  0  0  0  0  # atno 702  bound_to 698 
   -6.9589   15.4467   -0.4734 H   0  0  0  0  0  0  0  0  0  0  0  0  # atno 965  bound_to 957 
    1.7903   10.6590   10.3990 H   0  0  0  0  0  0  0  0  0  0  0  0  # atno 1886 bound_to 1878
    9.3377    2.8571   -3.1150 H   0  0  0  0  0  0  0  0  0  0  0  0  # atno 2577 bound_to 2569
    7.8588    5.2371    0.5711 H   0  0  0  0  0  0  0  0  0  0  0  0  # atno 2891 bound_to 2887
   18.4647    2.4657    0.3613 H   0  0  0  0  0  0  0  0  0  0  0  0  # atno 3175 bound_to 3171
   12.7997   10.1426    9.1087 H   0  0  0  0  0  0  0  0  0  0  0  0  # atno 5278 bound_to 5270
   17.2183   13.7925    6.7909 LP  0  0  0  0  0  0  0  0  0  0  0  0  # atno 5914 bound_to 677 
   16.3713   12.5747    6.1082 LP  0  0  0  0  0  0  0  0  0  0  0  0  # atno 5915 bound_to 677 
   20.6173   11.6357   -1.9932 LP  0  0  0  0  0  0  0  0  0  0  0  0  # atno 5920 bound_to 698 
   19.3055   11.8499   -1.0446 LP  0  0  0  0  0  0  0  0  0  0  0  0  # atno 5921 bound_to 698 
   10.8971    3.1680   -3.1963 LP  0  0  0  0  0  0  0  0  0  0  0  0  # atno 5950 bound_to 2569
   10.3416    1.8879   -2.3481 LP  0  0  0  0  0  0  0  0  0  0  0  0  # atno 5951 bound_to 2569
    7.1694    6.2089    1.6279 LP  0  0  0  0  0  0  0  0  0  0  0  0  # atno 5982 bound_to 2887
    8.2345    6.7843    0.5320 LP  0  0  0  0  0  0  0  0  0  0  0  0  # atno 5983 bound_to 2887
   18.0904    2.0164   -1.1198 LP  0  0  0  0  0  0  0  0  0  0  0  0  # atno 6000 bound_to 3171
   19.3654    2.9974   -0.8394 LP  0  0  0  0  0  0  0  0  0  0  0  0  # atno 6001 bound_to 3171
   13.4420    9.7837   10.5213 LP  0  0  0  0  0  0  0  0  0  0  0  0  # atno 6004 bound_to 5270
   14.3874   10.1118    9.2309 LP  0  0  0  0  0  0  0  0  0  0  0  0  # atno 6005 bound_to 5270
    9.7114   19.6503    8.5394 LP  0  0  0  0  0  0  0  0  0  0  0  0  # atno 6055 bound_to 637 
   10.3650   18.9410    7.2218 LP  0  0  0  0  0  0  0  0  0  0  0  0  # atno 6056 bound_to 637 
    0.5765   11.4287   11.0843 LP  0  0  0  0  0  0  0  0  0  0  0  0  # atno 6063 bound_to 1878
    1.9242   12.2292   10.6267 LP  0  0  0  0  0  0  0  0  0  0  0  0  # atno 6064 bound_to 1878
   -6.4315   16.3783   -1.6520 LP  0  0  0  0  0  0  0  0  0  0  0  0  # atno 6067 bound_to 957 
   -7.0475   17.0252   -0.2850 LP  0  0  0  0  0  0  0  0  0  0  0  0  # atno 6068 bound_to 957 

>  <STRIFE_LigEff_Score>  (20) 
3.1515529411764707

$$$$
unknown|pharmsElabsTestPreDocking|sdf|29|dock3
     RDKit          3D

 17 18  0  0  0  0  0  0  0  0999 V2000
   14.5322    8.2238    2.9149 C   0  0  0  0  0  0  0  0  0  0  0  0
   13.1997    7.9592    2.2157 C   0  0  0  0  0  0  0  0  0  0  0  0
   13.0267    8.7905    1.0227 N   0  0  0  0  0  0  0  0  0  0  0  0
   11.9160    7.8870    3.0787 C   0  0  0  0  0  0  0  0  0  0  0  0
   10.7647    7.1239    2.4077 C   0  0  0  0  0  0  0  0  0  0  0  0
    9.3717    7.3850    2.9550 C   0  0  0  0  0  0  0  0  0  0  0  0
    9.1365    8.8393    3.2763 C   0  0  0  0  0  0  0  0  0  0  0  0
    7.6942    9.1900    3.4905 C   0  0  0  0  0  0  0  0  0  0  0  0
    7.4882    9.8647    4.5245 O   0  0  0  0  0  0  0  0  0  0  0  0
    6.5863    8.8254    2.6393 N   0  0  0  0  0  0  0  0  0  0  0  0
    5.2084    9.1107    2.9920 C   0  0  0  0  0  0  0  0  0  0  0  0
    4.6994    9.4648    4.2406 C   0  0  0  0  0  0  0  0  0  0  0  0
    3.3419    9.6155    4.0736 C   0  0  0  0  0  0  0  0  0  0  0  0
    3.0017    9.3691    2.7961 N   0  0  0  0  0  0  0  0  0  0  0  0
    4.1306    9.0599    2.1288 C   0  0  0  0  0  0  0  0  0  0  0  0
   10.1524    9.5091    4.1564 C   0  0  0  0  0  0  0  0  0  0  0  0
   11.5794    9.2866    3.6593 C   0  0  0  0  0  0  0  0  0  0  0  0
  1  2  1  0
  2  3  1  0
  2  4  1  0
  4  5  1  0
  5  6  1  0
  6  7  1  0
  7  8  1  0
  8  9  2  0
  8 10  1  0
 10 11  1  0
 11 12  1  0
 12 13  2  0
 13 14  1  0
 14 15  1  0
  7 16  1  0
 16 17  1  0
 17  4  1  0
 15 11  2  0
M  CHG  1   3   1
M  END
>  <EmbedRMS>  (21) 
0.3005329260886256

>  <Gold.Version>  (21) 
2020.3.0

>  <Gold.Id.Protein>  (21) 
unknown|1q8t_protein|pdb

>  <Gold.PLP.Fitness>  (21) 
49.4291

>  <Gold.PLP.PLP>  (21) 
-40.6543

>  <Gold.PLP.part.hbond>  (21) 
-2.0000

>  <Gold.PLP.part.metal>  (21) 
0.0000

>  <Gold.PLP.part.buried>  (21) 
-4.2136

>  <Gold.PLP.part.nonpolar>  (21) 
-34.8828

>  <Gold.PLP.part.repulsive>  (21) 
0.1356

>  <Gold.PLP.ligand.clash>  (21) 
0.0000

>  <Gold.PLP.ligand.torsion>  (21) 
0.4225

>  <Gold.PLP.Chemscore.Hbond>  (21) 
3.0000

>  <Gold.PLP.Chemscore.CHOScore>  (21) 
0.0000

>  <Gold.PLP.Chemscore.Metal>  (21) 
0.0000

>  <Gold.Chemscore.Hbonds>  (21) 
donor molecule, donor type, donor heavy atom, donor atom, acceptor molecule, acceptor atom, score
      L1  H     3    22       P1  2902  2.00
      L1  H    14    34       P1  1855  1.00

>  <Gold.PLP.Chemscore.Internal.Correction>  (21) 
0.6196

>  <Gold.PLP.Constraint>  (21) 
-0.0000

>  <Gold.Protein.RotatedTorsions>  (21) 
[  681  677  676  673 ] final  -21.35 input -179.99 | X-H torsion
[  702  698  697  694 ] final  156.93 input  179.99 | X-H torsion
[ 2577 2569 2568 2566 ] final  -32.95 input   -0.13 | X-H torsion
[ 2891 2887 2886 2883 ] final  -60.94 input  179.98 | X-H torsion
[ 3175 3171 3170 3167 ] final   -5.56 input -179.99 | X-H torsion
[ 5278 5270 5269 5267 ] final  -55.28 input    0.55 | X-H torsion
[  641  637  636  633 ] final -145.33 input  179.99 | X-H torsion
[ 1886 1878 1877 1875 ] final   61.84 input    1.60 | X-H torsion
[  965  957  956  954 ] final  -62.74 input    0.45 | X-H torsion

>  <Gold.Protein.ActiveResidues>  (21) 
 LYS47   THR48   LEU49   GLY50   THR51   GLY52   SER53   PHE54   GLY55   ARG56  
 VAL57   MET58   LEU59   TYR69   ALA70   MET71   LYS72   ILE73   LEU74   GLU91  
 LEU95   VAL104  LYS105  MET118  VAL119  MET120  GLU121  TYR122  VAL123  PRO124 
 GLY125  GLY126  GLU127  MET128  PHE129  TYR164  ASP166  LEU167  LYS168  PRO169 
 GLU170  ASN171  LEU172  LEU173  ILE174  GLN181  VAL182  THR183  ASP184  PHE185 
 GLY186  PHE187  GLY200  THR201  ASN326  PHE327  TYR330  ARG18   ARG19   ASN20  
 ALA21   ILE22   HIS23  

>  <Gold.Protein.RotatedAtoms>  (21) 
   11.2771   19.1379    7.7435 H   0  0  0  0  0  0  0  0  0  0  0  0  # atno 641  bound_to 637 
   15.6914   12.7722    6.6996 H   0  0  0  0  0  0  0  0  0  0  0  0  # atno 681  bound_to 677 
   20.7210   11.6320   -1.8831 H   0  0  0  0  0  0  0  0  0  0  0  0  # atno 702  bound_to 698 
   -6.4450   16.0742   -1.5894 H   0  0  0  0  0  0  0  0  0  0  0  0  # atno 965  bound_to 957 
    1.9523   12.1484   10.5816 H   0  0  0  0  0  0  0  0  0  0  0  0  # atno 1886 bound_to 1878
   10.2572    3.3706   -3.4042 H   0  0  0  0  0  0  0  0  0  0  0  0  # atno 2577 bound_to 2569
    7.4812    5.2153    1.0033 H   0  0  0  0  0  0  0  0  0  0  0  0  # atno 2891 bound_to 2887
   19.1812    2.7971   -1.1605 H   0  0  0  0  0  0  0  0  0  0  0  0  # atno 3175 bound_to 3171
   13.2258    9.8208   10.4316 H   0  0  0  0  0  0  0  0  0  0  0  0  # atno 5278 bound_to 5270
   16.5096   13.9523    7.3883 LP  0  0  0  0  0  0  0  0  0  0  0  0  # atno 5914 bound_to 677 
   17.1490   13.1021    6.1493 LP  0  0  0  0  0  0  0  0  0  0  0  0  # atno 5915 bound_to 677 
   19.3033   11.8531   -1.1913 LP  0  0  0  0  0  0  0  0  0  0  0  0  # atno 5920 bound_to 698 
   20.6427   11.5984   -0.2925 LP  0  0  0  0  0  0  0  0  0  0  0  0  # atno 5921 bound_to 698 
   10.9471    2.2260   -2.5385 LP  0  0  0  0  0  0  0  0  0  0  0  0  # atno 5950 bound_to 2569
    9.3234    2.2892   -2.7014 LP  0  0  0  0  0  0  0  0  0  0  0  0  # atno 5951 bound_to 2569
    7.4161    6.7370    1.4686 LP  0  0  0  0  0  0  0  0  0  0  0  0  # atno 5982 bound_to 2887
    8.3851    6.2791    0.2366 LP  0  0  0  0  0  0  0  0  0  0  0  0  # atno 5983 bound_to 2887
   18.7904    2.7315    0.3818 LP  0  0  0  0  0  0  0  0  0  0  0  0  # atno 6000 bound_to 3171
   17.9114    1.9335   -0.7394 LP  0  0  0  0  0  0  0  0  0  0  0  0  # atno 6001 bound_to 3171
   14.4584   10.0582    9.4513 LP  0  0  0  0  0  0  0  0  0  0  0  0  # atno 6004 bound_to 5270
   12.9227   10.1760    8.9089 LP  0  0  0  0  0  0  0  0  0  0  0  0  # atno 6005 bound_to 5270
   10.3925   19.7932    8.8938 LP  0  0  0  0  0  0  0  0  0  0  0  0  # atno 6055 bound_to 637 
    9.6953   19.1528    7.5632 LP  0  0  0  0  0  0  0  0  0  0  0  0  # atno 6056 bound_to 637 
    1.7445   10.5776   10.4242 LP  0  0  0  0  0  0  0  0  0  0  0  0  # atno 6063 bound_to 1878
    0.5856   11.5125   11.0946 LP  0  0  0  0  0  0  0  0  0  0  0  0  # atno 6064 bound_to 1878
   -6.9303   17.1683   -0.5395 LP  0  0  0  0  0  0  0  0  0  0  0  0  # atno 6067 bound_to 957 
   -7.0899   15.5744   -0.2221 LP  0  0  0  0  0  0  0  0  0  0  0  0  # atno 6068 bound_to 957 

>  <STRIFE_LigEff_Score>  (21) 
2.9075941176470588

$$$$
unknown|pharmsElabsTestPreDocking|sdf|2|dock9
     RDKit          3D

 18 19  0  0  0  0  0  0  0  0999 V2000
   13.9611    9.2131    1.8425 C   0  0  0  0  0  0  0  0  0  0  0  0
   13.1170    7.9823    2.1691 C   0  0  0  0  0  0  0  0  0  0  0  0
   13.0139    7.0651    1.0322 N   0  0  0  0  0  0  0  0  0  0  0  0
   11.7615    8.1873    2.8906 C   0  0  0  0  0  0  0  0  0  0  0  0
   10.7240    7.0990    2.5774 C   0  0  0  0  0  0  0  0  0  0  0  0
    9.2703    7.4466    2.8592 C   0  0  0  0  0  0  0  0  0  0  0  0
    8.9201    8.8596    2.4638 C   0  0  0  0  0  0  0  0  0  0  0  0
    7.4433    9.1404    2.4229 C   0  0  0  0  0  0  0  0  0  0  0  0
    7.0198    9.5257    1.3076 O   0  0  0  0  0  0  0  0  0  0  0  0
    6.5228    9.0373    3.5293 N   0  0  0  0  0  0  0  0  0  0  0  0
    5.0923    9.1805    3.3454 C   0  0  0  0  0  0  0  0  0  0  0  0
    4.4837    9.0834    2.1447 N   0  0  0  0  0  0  0  0  0  0  0  0
    3.1871    9.3184    2.4565 C   0  0  0  0  0  0  0  0  0  0  0  0
    3.0081    9.5641    3.7690 N   0  0  0  0  0  0  0  0  0  0  0  0
    4.2057    9.4832    4.3204 N   0  0  0  0  0  0  0  0  0  0  0  0
    4.4577    9.8051    5.7209 C   0  0  0  0  0  0  0  0  0  0  0  0
    9.8129    9.9453    2.9965 C   0  0  0  0  0  0  0  0  0  0  0  0
   11.2910    9.6582    2.7410 C   0  0  0  0  0  0  0  0  0  0  0  0
  1  2  1  0
  2  3  1  0
  2  4  1  0
  4  5  1  0
  5  6  1  0
  6  7  1  0
  7  8  1  0
  8  9  2  0
  8 10  1  0
 10 11  1  0
 11 12  2  0
 12 13  1  0
 13 14  2  0
 14 15  1  0
 15 16  1  0
  7 17  1  0
 17 18  1  0
 18  4  1  0
 15 11  1  0
M  CHG  1   3   1
M  END
>  <EmbedRMS>  (22) 
0.293000697254303

>  <Gold.Version>  (22) 
2020.3.0

>  <Gold.Id.Protein>  (22) 
unknown|1q8t_protein|pdb

>  <Gold.PLP.Fitness>  (22) 
50.3748

>  <Gold.PLP.PLP>  (22) 
-39.2832

>  <Gold.PLP.part.hbond>  (22) 
-2.4754

>  <Gold.PLP.part.metal>  (22) 
0.0000

>  <Gold.PLP.part.buried>  (22) 
-2.3236

>  <Gold.PLP.part.nonpolar>  (22) 
-35.4388

>  <Gold.PLP.part.repulsive>  (22) 
0.2228

>  <Gold.PLP.ligand.clash>  (22) 
0.0000

>  <Gold.PLP.ligand.torsion>  (22) 
1.5137

>  <Gold.PLP.Chemscore.Hbond>  (22) 
3.5040

>  <Gold.PLP.Chemscore.CHOScore>  (22) 
1.0000

>  <Gold.PLP.Chemscore.Metal>  (22) 
0.0000

>  <Gold.Chemscore.Hbonds>  (22) 
donor molecule, donor type, donor heavy atom, donor atom, acceptor molecule, acceptor atom, score
      L1  H     3    23       P1  2902  1.98
      L1  H     3    24       P1  2691  0.53
      P1  H  1888  1903       L1    14  0.99
      L1  C    13    33       P1  1855  1.00

>  <Gold.PLP.Chemscore.Internal.Correction>  (22) 
0.6071

>  <Gold.PLP.Constraint>  (22) 
-0.0000

>  <Gold.Protein.RotatedTorsions>  (22) 
[  681  677  676  673 ] final -130.59 input -179.99 | X-H torsion
[  702  698  697  694 ] final  103.20 input  179.99 | X-H torsion
[ 2577 2569 2568 2566 ] final  -78.34 input   -0.13 | X-H torsion
[ 2891 2887 2886 2883 ] final  150.44 input  179.98 | X-H torsion
[ 3175 3171 3170 3167 ] final -144.87 input -179.99 | X-H torsion
[ 5278 5270 5269 5267 ] final   88.85 input    0.55 | X-H torsion
[  641  637  636  633 ] final  -58.39 input  179.99 | X-H torsion
[ 1886 1878 1877 1875 ] final  -52.53 input    1.60 | X-H torsion
[  965  957  956  954 ] final    6.62 input    0.45 | X-H torsion

>  <Gold.Protein.ActiveResidues>  (22) 
 LYS47   THR48   LEU49   GLY50   THR51   GLY52   SER53   PHE54   GLY55   ARG56  
 VAL57   MET58   LEU59   TYR69   ALA70   MET71   LYS72   ILE73   LEU74   GLU91  
 LEU95   VAL104  LYS105  MET118  VAL119  MET120  GLU121  TYR122  VAL123  PRO124 
 GLY125  GLY126  GLU127  MET128  PHE129  TYR164  ASP166  LEU167  LYS168  PRO169 
 GLU170  ASN171  LEU172  LEU173  ILE174  GLN181  VAL182  THR183  ASP184  PHE185 
 GLY186  PHE187  GLY200  THR201  ASN326  PHE327  TYR330  ARG18   ARG19   ASN20  
 ALA21   ILE22   HIS23  

>  <Gold.Protein.RotatedAtoms>  (22) 
   10.1303   18.9859    7.3204 H   0  0  0  0  0  0  0  0  0  0  0  0  # atno 641  bound_to 637 
   16.3455   13.8795    7.3921 H   0  0  0  0  0  0  0  0  0  0  0  0  # atno 681  bound_to 677 
   19.9290   11.7742   -1.9753 H   0  0  0  0  0  0  0  0  0  0  0  0  # atno 702  bound_to 698 
   -6.7603   15.3823   -0.9111 H   0  0  0  0  0  0  0  0  0  0  0  0  # atno 965  bound_to 957 
    1.7963   10.6626   10.3970 H   0  0  0  0  0  0  0  0  0  0  0  0  # atno 1886 bound_to 1878
   10.8675    3.1270   -3.1903 H   0  0  0  0  0  0  0  0  0  0  0  0  # atno 2577 bound_to 2569
    7.6989    6.9194    1.1594 H   0  0  0  0  0  0  0  0  0  0  0  0  # atno 2891 bound_to 2887
   18.5510    2.5312    0.3735 H   0  0  0  0  0  0  0  0  0  0  0  0  # atno 3175 bound_to 3171
   13.2832   10.2294    8.7773 H   0  0  0  0  0  0  0  0  0  0  0  0  # atno 5278 bound_to 5270
   17.2282   13.2362    6.2332 LP  0  0  0  0  0  0  0  0  0  0  0  0  # atno 5914 bound_to 677 
   15.7419   12.6528    6.5755 LP  0  0  0  0  0  0  0  0  0  0  0  0  # atno 5915 bound_to 677 
   19.6348   11.7793   -0.4098 LP  0  0  0  0  0  0  0  0  0  0  0  0  # atno 5920 bound_to 698 
   21.1444   11.5226   -0.9769 LP  0  0  0  0  0  0  0  0  0  0  0  0  # atno 5921 bound_to 698 
   10.3326    1.8864   -2.3477 LP  0  0  0  0  0  0  0  0  0  0  0  0  # atno 5950 bound_to 2569
    9.2953    2.8854   -3.1174 LP  0  0  0  0  0  0  0  0  0  0  0  0  # atno 5951 bound_to 2569
    8.3263    5.8187    0.1944 LP  0  0  0  0  0  0  0  0  0  0  0  0  # atno 5982 bound_to 2887
    7.2459    5.4040    1.3465 LP  0  0  0  0  0  0  0  0  0  0  0  0  # atno 5983 bound_to 2887
   18.0299    1.9836   -1.0280 LP  0  0  0  0  0  0  0  0  0  0  0  0  # atno 6000 bound_to 3171
   19.3351    2.9613   -0.9440 LP  0  0  0  0  0  0  0  0  0  0  0  0  # atno 6001 bound_to 3171
   12.8755    9.8405   10.2670 LP  0  0  0  0  0  0  0  0  0  0  0  0  # atno 6004 bound_to 5270
   14.4451    9.9637    9.8338 LP  0  0  0  0  0  0  0  0  0  0  0  0  # atno 6005 bound_to 5270
   11.4026   19.3790    8.1931 LP  0  0  0  0  0  0  0  0  0  0  0  0  # atno 6055 bound_to 637 
    9.8930   19.7270    8.7095 LP  0  0  0  0  0  0  0  0  0  0  0  0  # atno 6056 bound_to 637 
    0.5760   11.4211   11.0832 LP  0  0  0  0  0  0  0  0  0  0  0  0  # atno 6063 bound_to 1878
    1.9184   12.2330   10.6299 LP  0  0  0  0  0  0  0  0  0  0  0  0  # atno 6064 bound_to 1878
   -6.5083   16.8505   -1.4734 LP  0  0  0  0  0  0  0  0  0  0  0  0  # atno 6067 bound_to 957 
   -7.1799   16.6208   -0.0027 LP  0  0  0  0  0  0  0  0  0  0  0  0  # atno 6068 bound_to 957 

>  <STRIFE_LigEff_Score>  (22) 
2.7986

$$$$
unknown|pharmsElabsTestPreDocking|sdf|30|dock2
     RDKit          3D

 17 17  0  0  0  0  0  0  0  0999 V2000
   14.3056    7.1065    3.5746 C   0  0  0  0  0  0  0  0  0  0  0  0
   13.4196    7.7586    2.5023 C   0  0  0  0  0  0  0  0  0  0  0  0
   13.5214    7.0135    1.2425 N   0  0  0  0  0  0  0  0  0  0  0  0
   11.9302    8.0386    2.9094 C   0  0  0  0  0  0  0  0  0  0  0  0
   10.8585    7.3614    2.0349 C   0  0  0  0  0  0  0  0  0  0  0  0
    9.5312    8.0917    1.9711 C   0  0  0  0  0  0  0  0  0  0  0  0
    9.1198    8.6734    3.3184 C   0  0  0  0  0  0  0  0  0  0  0  0
    7.7440    9.2762    3.1995 C   0  0  0  0  0  0  0  0  0  0  0  0
    7.5003   10.1049    2.2779 O   0  0  0  0  0  0  0  0  0  0  0  0
    6.7329    8.9205    4.1519 N   0  0  0  0  0  0  0  0  0  0  0  0
    5.3452    9.4110    4.1209 C   0  0  0  0  0  0  0  0  0  0  0  0
    4.6869    8.8838    2.8292 C   0  0  0  0  0  0  0  0  0  0  0  0
    5.3437   10.9551    4.0871 C   0  0  0  0  0  0  0  0  0  0  0  0
    4.6164    8.8925    5.2999 N   0  0  0  0  0  0  0  0  0  0  0  0
    3.2983    9.3907    5.3086 N   0  0  0  0  0  0  0  0  0  0  0  0
   10.1168    9.7428    3.7784 C   0  0  0  0  0  0  0  0  0  0  0  0
   11.6018    9.3533    3.6474 C   0  0  0  0  0  0  0  0  0  0  0  0
  1  2  1  0
  2  3  1  0
  2  4  1  0
  4  5  1  0
  5  6  1  0
  6  7  1  0
  7  8  1  0
  8  9  2  0
  8 10  1  0
 10 11  1  0
 11 12  1  0
 11 13  1  0
 11 14  1  0
 14 15  1  0
  7 16  1  0
 16 17  1  0
 17  4  1  0
M  CHG  1   3   1
M  END
>  <EmbedRMS>  (23) 
0.16937543786419249

>  <Gold.Version>  (23) 
2020.3.0

>  <Gold.Id.Protein>  (23) 
unknown|1q8t_protein|pdb

>  <Gold.PLP.Fitness>  (23) 
41.8404

>  <Gold.PLP.PLP>  (23) 
-31.9144

>  <Gold.PLP.part.hbond>  (23) 
-3.8961

>  <Gold.PLP.part.metal>  (23) 
0.0000

>  <Gold.PLP.part.buried>  (23) 
-3.5116

>  <Gold.PLP.part.nonpolar>  (23) 
-25.1436

>  <Gold.PLP.part.repulsive>  (23) 
0.0493

>  <Gold.PLP.ligand.clash>  (23) 
0.0000

>  <Gold.PLP.ligand.torsion>  (23) 
1.3155

>  <Gold.PLP.Chemscore.Hbond>  (23) 
3.9760

>  <Gold.PLP.Chemscore.CHOScore>  (23) 
0.0000

>  <Gold.PLP.Chemscore.Metal>  (23) 
0.0000

>  <Gold.Chemscore.Hbonds>  (23) 
donor molecule, donor type, donor heavy atom, donor atom, acceptor molecule, acceptor atom, score
      L1  H     3    23       P1  2902  2.00
      L1  H     3    24       P1  2691  0.98
      L1  H    15    40       P1  1891  1.00

>  <Gold.PLP.Chemscore.Internal.Correction>  (23) 
0.6290

>  <Gold.PLP.Constraint>  (23) 
-0.0000

>  <Gold.Protein.RotatedTorsions>  (23) 
[  681  677  676  673 ] final   70.86 input -179.99 | X-H torsion
[  702  698  697  694 ] final  106.17 input  179.99 | X-H torsion
[ 2577 2569 2568 2566 ] final -120.84 input   -0.13 | X-H torsion
[ 2891 2887 2886 2883 ] final  -78.06 input  179.98 | X-H torsion
[ 3175 3171 3170 3167 ] final -131.51 input -179.99 | X-H torsion
[ 5278 5270 5269 5267 ] final  -61.44 input    0.55 | X-H torsion
[  641  637  636  633 ] final    0.95 input  179.99 | X-H torsion
[ 1886 1878 1877 1875 ] final  100.18 input    1.60 | X-H torsion
[  965  957  956  954 ] final   88.98 input    0.45 | X-H torsion

>  <Gold.Protein.ActiveResidues>  (23) 
 LYS47   THR48   LEU49   GLY50   THR51   GLY52   SER53   PHE54   GLY55   ARG56  
 VAL57   MET58   LEU59   TYR69   ALA70   MET71   LYS72   ILE73   LEU74   GLU91  
 LEU95   VAL104  LYS105  MET118  VAL119  MET120  GLU121  TYR122  VAL123  PRO124 
 GLY125  GLY126  GLU127  MET128  PHE129  TYR164  ASP166  LEU167  LYS168  PRO169 
 GLU170  ASN171  LEU172  LEU173  ILE174  GLN181  VAL182  THR183  ASP184  PHE185 
 GLY186  PHE187  GLY200  THR201  ASN326  PHE327  TYR330  ARG18   ARG19   ASN20  
 ALA21   ILE22   HIS23  

>  <Gold.Protein.RotatedAtoms>  (23) 
    9.5842   19.3274    7.9294 H   0  0  0  0  0  0  0  0  0  0  0  0  # atno 641  bound_to 637 
   16.8117   12.8273    6.0602 H   0  0  0  0  0  0  0  0  0  0  0  0  # atno 681  bound_to 677 
   19.9723   11.7668   -1.9903 H   0  0  0  0  0  0  0  0  0  0  0  0  # atno 702  bound_to 698 
   -7.1644   16.0261   -0.0098 H   0  0  0  0  0  0  0  0  0  0  0  0  # atno 965  bound_to 957 
    1.4459   12.3109   10.8326 H   0  0  0  0  0  0  0  0  0  0  0  0  # atno 1886 bound_to 1878
   11.0706    2.6277   -2.8287 H   0  0  0  0  0  0  0  0  0  0  0  0  # atno 2577 bound_to 2569
    7.3366    5.3268    1.1975 H   0  0  0  0  0  0  0  0  0  0  0  0  # atno 2891 bound_to 2887
   18.7188    2.6538    0.3601 H   0  0  0  0  0  0  0  0  0  0  0  0  # atno 3175 bound_to 3171
   13.3179    9.8150   10.4588 H   0  0  0  0  0  0  0  0  0  0  0  0  # atno 5278 bound_to 5270
   15.5770   13.0248    7.0465 LP  0  0  0  0  0  0  0  0  0  0  0  0  # atno 5914 bound_to 677 
   16.9024   13.9716    7.1641 LP  0  0  0  0  0  0  0  0  0  0  0  0  # atno 5915 bound_to 677 
   19.5987   11.7863   -0.4419 LP  0  0  0  0  0  0  0  0  0  0  0  0  # atno 5920 bound_to 698 
   21.1350   11.5234   -0.9290 LP  0  0  0  0  0  0  0  0  0  0  0  0  # atno 5921 bound_to 698 
    9.6647    1.9776   -2.4600 LP  0  0  0  0  0  0  0  0  0  0  0  0  # atno 5950 bound_to 2569
    9.7494    3.3200   -3.3859 LP  0  0  0  0  0  0  0  0  0  0  0  0  # atno 5951 bound_to 2569
    7.5853    6.8959    1.3108 LP  0  0  0  0  0  0  0  0  0  0  0  0  # atno 5982 bound_to 2887
    8.3682    6.0028    0.1900 LP  0  0  0  0  0  0  0  0  0  0  0  0  # atno 5983 bound_to 2887
   17.9397    1.9423   -0.8325 LP  0  0  0  0  0  0  0  0  0  0  0  0  # atno 6000 bound_to 3171
   19.2487    2.8736   -1.1253 LP  0  0  0  0  0  0  0  0  0  0  0  0  # atno 6001 bound_to 3171
   14.4353   10.0816    9.3556 LP  0  0  0  0  0  0  0  0  0  0  0  0  # atno 6004 bound_to 5270
   12.8489   10.1587    8.9760 LP  0  0  0  0  0  0  0  0  0  0  0  0  # atno 6005 bound_to 5270
   11.0547   19.0006    7.4140 LP  0  0  0  0  0  0  0  0  0  0  0  0  # atno 6055 bound_to 637 
   10.8160   19.7458    8.8473 LP  0  0  0  0  0  0  0  0  0  0  0  0  # atno 6056 bound_to 637 
    2.1803   11.0006   10.3042 LP  0  0  0  0  0  0  0  0  0  0  0  0  # atno 6063 bound_to 1878
    0.6829   10.9183   10.9504 LP  0  0  0  0  0  0  0  0  0  0  0  0  # atno 6064 bound_to 1878
   -6.5458   15.6108   -1.4169 LP  0  0  0  0  0  0  0  0  0  0  0  0  # atno 6067 bound_to 957 
   -6.7168   17.1826   -1.0084 LP  0  0  0  0  0  0  0  0  0  0  0  0  # atno 6068 bound_to 957 

>  <STRIFE_LigEff_Score>  (23) 
2.4612000000000003

$$$$
unknown|pharmsElabsTestPreDocking|sdf|31|dock2
     RDKit          3D

 17 17  0  0  0  0  0  0  0  0999 V2000
    5.8056   10.1000    5.5985 C   0  0  0  0  0  0  0  0  0  0  0  0
    4.9229    9.9594    4.3956 C   0  0  0  0  0  0  0  0  0  0  0  0
    5.2599    9.2752    3.2840 C   0  0  0  0  0  0  0  0  0  0  0  0
    4.2167    9.1067    2.2448 C   0  0  0  0  0  0  0  0  0  0  0  0
    2.9974    9.5000    2.4196 N   0  0  0  0  0  0  0  0  0  0  0  0
    6.5671    8.6606    3.1336 N   0  0  0  0  0  0  0  0  0  0  0  0
    7.5924    9.2695    2.3237 C   0  0  0  0  0  0  0  0  0  0  0  0
    7.2764   10.1825    1.5237 O   0  0  0  0  0  0  0  0  0  0  0  0
    9.0546    8.9272    2.3390 C   0  0  0  0  0  0  0  0  0  0  0  0
    9.3544    7.5514    2.8789 C   0  0  0  0  0  0  0  0  0  0  0  0
   10.7765    7.1010    2.5882 C   0  0  0  0  0  0  0  0  0  0  0  0
   11.8753    8.1612    2.7472 C   0  0  0  0  0  0  0  0  0  0  0  0
   13.1908    7.8083    2.0093 C   0  0  0  0  0  0  0  0  0  0  0  0
   14.1978    8.9260    1.7424 C   0  0  0  0  0  0  0  0  0  0  0  0
   12.9643    6.9745    0.8271 N   0  0  0  0  0  0  0  0  0  0  0  0
   11.4702    9.6299    2.4522 C   0  0  0  0  0  0  0  0  0  0  0  0
   10.0169   10.0191    2.7183 C   0  0  0  0  0  0  0  0  0  0  0  0
  1  2  1  0
  2  3  2  0
  3  4  1  0
  4  5  2  0
  3  6  1  0
  6  7  1  0
  7  8  2  0
  7  9  1  0
  9 10  1  0
 10 11  1  0
 11 12  1  0
 12 13  1  0
 13 14  1  0
 13 15  1  0
 12 16  1  0
 16 17  1  0
 17  9  1  0
M  CHG  1  15   1
M  END
>  <EmbedRMS>  (24) 
0.3022183700925627

>  <Gold.Version>  (24) 
2020.3.0

>  <Gold.Id.Protein>  (24) 
unknown|1q8t_protein|pdb

>  <Gold.PLP.Fitness>  (24) 
43.9201

>  <Gold.PLP.PLP>  (24) 
-37.6486

>  <Gold.PLP.part.hbond>  (24) 
-1.9680

>  <Gold.PLP.part.metal>  (24) 
0.0000

>  <Gold.PLP.part.buried>  (24) 
-3.0906

>  <Gold.PLP.part.nonpolar>  (24) 
-32.6786

>  <Gold.PLP.part.repulsive>  (24) 
0.0580

>  <Gold.PLP.ligand.clash>  (24) 
0.0000

>  <Gold.PLP.ligand.torsion>  (24) 
1.8279

>  <Gold.PLP.Chemscore.Hbond>  (24) 
2.8919

>  <Gold.PLP.Chemscore.CHOScore>  (24) 
0.0000

>  <Gold.PLP.Chemscore.Metal>  (24) 
0.0000

>  <Gold.Chemscore.Hbonds>  (24) 
donor molecule, donor type, donor heavy atom, donor atom, acceptor molecule, acceptor atom, score
      L1  H     5    23       P1  1855  0.51
      L1  H    15    36       P1  2691  0.46
      L1  H    15    37       P1  2902  1.92

>  <Gold.PLP.Chemscore.Internal.Correction>  (24) 
1.2514

>  <Gold.PLP.Constraint>  (24) 
-0.0000

>  <Gold.Protein.RotatedTorsions>  (24) 
[  681  677  676  673 ] final  172.87 input -179.99 | X-H torsion
[  702  698  697  694 ] final -119.75 input  179.99 | X-H torsion
[ 2577 2569 2568 2566 ] final   87.21 input   -0.13 | X-H torsion
[ 2891 2887 2886 2883 ] final  -51.92 input  179.98 | X-H torsion
[ 3175 3171 3170 3167 ] final  -71.26 input -179.99 | X-H torsion
[ 5278 5270 5269 5267 ] final  -60.54 input    0.55 | X-H torsion
[  641  637  636  633 ] final   88.63 input  179.99 | X-H torsion
[ 1886 1878 1877 1875 ] final -133.67 input    1.60 | X-H torsion
[  965  957  956  954 ] final  -28.93 input    0.45 | X-H torsion

>  <Gold.Protein.ActiveResidues>  (24) 
 LYS47   THR48   LEU49   GLY50   THR51   GLY52   SER53   PHE54   GLY55   ARG56  
 VAL57   MET58   LEU59   TYR69   ALA70   MET71   LYS72   ILE73   LEU74   GLU91  
 LEU95   VAL104  LYS105  MET118  VAL119  MET120  GLU121  TYR122  VAL123  PRO124 
 GLY125  GLY126  GLU127  MET128  PHE129  TYR164  ASP166  LEU167  LYS168  PRO169 
 GLU170  ASN171  LEU172  LEU173  ILE174  GLN181  VAL182  THR183  ASP184  PHE185 
 GLY186  PHE187  GLY200  THR201  ASN326  PHE327  TYR330  ARG18   ARG19   ASN20  
 ALA21   ILE22   HIS23  

>  <Gold.Protein.RotatedAtoms>  (24) 
   10.3022   19.7552    8.8458 H   0  0  0  0  0  0  0  0  0  0  0  0  # atno 641  bound_to 637 
   17.0648   13.8748    6.9419 H   0  0  0  0  0  0  0  0  0  0  0  0  # atno 681  bound_to 677 
   21.0196   11.5569   -0.7321 H   0  0  0  0  0  0  0  0  0  0  0  0  # atno 702  bound_to 698 
   -6.5546   15.6208   -1.3580 H   0  0  0  0  0  0  0  0  0  0  0  0  # atno 965  bound_to 957 
    0.7608   10.8695   10.8888 H   0  0  0  0  0  0  0  0  0  0  0  0  # atno 1886 bound_to 1878
    9.3684    2.2958   -2.7230 H   0  0  0  0  0  0  0  0  0  0  0  0  # atno 2577 bound_to 2569
    7.5679    5.1864    0.8959 H   0  0  0  0  0  0  0  0  0  0  0  0  # atno 2891 bound_to 2887
   19.3045    3.0115   -0.2208 H   0  0  0  0  0  0  0  0  0  0  0  0  # atno 3175 bound_to 3171
   13.3042    9.8157   10.4554 H   0  0  0  0  0  0  0  0  0  0  0  0  # atno 5278 bound_to 5270
   16.5824   12.6473    6.0494 LP  0  0  0  0  0  0  0  0  0  0  0  0  # atno 5914 bound_to 677 
   15.6306   13.2467    7.2332 LP  0  0  0  0  0  0  0  0  0  0  0  0  # atno 5915 bound_to 677 
   20.1799   11.7148   -2.0764 LP  0  0  0  0  0  0  0  0  0  0  0  0  # atno 5920 bound_to 698 
   19.4520   11.8157   -0.6181 LP  0  0  0  0  0  0  0  0  0  0  0  0  # atno 5921 bound_to 698 
   10.2578    3.4191   -3.4175 LP  0  0  0  0  0  0  0  0  0  0  0  0  # atno 5950 bound_to 2569
   10.9486    2.2279   -2.5397 LP  0  0  0  0  0  0  0  0  0  0  0  0  # atno 5951 bound_to 2569
    7.3384    6.6281    1.5326 LP  0  0  0  0  0  0  0  0  0  0  0  0  # atno 5982 bound_to 2887
    8.3716    6.4185    0.2856 LP  0  0  0  0  0  0  0  0  0  0  0  0  # atno 5983 bound_to 2887
   18.0205    2.1234    0.0928 LP  0  0  0  0  0  0  0  0  0  0  0  0  # atno 6000 bound_to 3171
   18.5515    2.3160   -1.4394 LP  0  0  0  0  0  0  0  0  0  0  0  0  # atno 6001 bound_to 3171
   14.4393   10.0782    9.3695 LP  0  0  0  0  0  0  0  0  0  0  0  0  # atno 6004 bound_to 5270
   12.8592   10.1613    8.9657 LP  0  0  0  0  0  0  0  0  0  0  0  0  # atno 6005 bound_to 5270
    9.7560   19.1143    7.4945 LP  0  0  0  0  0  0  0  0  0  0  0  0  # atno 6055 bound_to 637 
   11.3585   19.1816    7.8016 LP  0  0  0  0  0  0  0  0  0  0  0  0  # atno 6056 bound_to 637 
    1.3607   12.3444   10.8948 LP  0  0  0  0  0  0  0  0  0  0  0  0  # atno 6063 bound_to 1878
    2.2237   11.0919   10.3007 LP  0  0  0  0  0  0  0  0  0  0  0  0  # atno 6064 bound_to 1878
   -6.7032   17.1735   -1.0385 LP  0  0  0  0  0  0  0  0  0  0  0  0  # atno 6067 bound_to 957 
   -7.2016   16.0466    0.0331 LP  0  0  0  0  0  0  0  0  0  0  0  0  # atno 6068 bound_to 957 

>  <STRIFE_LigEff_Score>  (24) 
2.583535294117647

$$$$
unknown|pharmsElabsTestPreDocking|sdf|32|dock7
     RDKit          3D

 16 16  0  0  0  0  0  0  0  0999 V2000
    3.4940    8.7797    3.8741 C   0  0  0  0  0  0  0  0  0  0  0  0
    3.5515    9.4783    5.1565 N   0  0  0  0  0  0  0  0  0  0  0  0
    4.9469    9.5852    5.6039 C   0  0  0  0  0  0  0  0  0  0  0  0
    5.8434   10.1000    4.4801 C   0  0  0  0  0  0  0  0  0  0  0  0
    7.1387    9.4299    4.5101 N   0  0  0  0  0  0  0  0  0  0  0  0
    8.0138    9.4450    3.3830 C   0  0  0  0  0  0  0  0  0  0  0  0
    7.6850   10.0614    2.3310 O   0  0  0  0  0  0  0  0  0  0  0  0
    9.3350    8.7326    3.4678 C   0  0  0  0  0  0  0  0  0  0  0  0
    9.6007    7.9518    2.1841 C   0  0  0  0  0  0  0  0  0  0  0  0
   10.8561    7.1004    2.3014 C   0  0  0  0  0  0  0  0  0  0  0  0
   12.0868    7.8054    2.9323 C   0  0  0  0  0  0  0  0  0  0  0  0
   13.4051    7.8926    2.1389 C   0  0  0  0  0  0  0  0  0  0  0  0
   14.7141    7.9777    2.9237 C   0  0  0  0  0  0  0  0  0  0  0  0
   13.3547    8.9180    1.0878 N   0  0  0  0  0  0  0  0  0  0  0  0
   11.8185    9.0462    3.8383 C   0  0  0  0  0  0  0  0  0  0  0  0
   10.4630    9.7338    3.6886 C   0  0  0  0  0  0  0  0  0  0  0  0
  1  2  1  0
  2  3  1  0
  3  4  1  0
  4  5  1  0
  5  6  1  0
  6  7  2  0
  6  8  1  0
  8  9  1  0
  9 10  1  0
 10 11  1  0
 11 12  1  0
 12 13  1  0
 12 14  1  0
 11 15  1  0
 15 16  1  0
 16  8  1  0
M  CHG  2   2   1  14   1
M  END
>  <EmbedRMS>  (25) 
0.2153162907233524

>  <Gold.Version>  (25) 
2020.3.0

>  <Gold.Id.Protein>  (25) 
unknown|1q8t_protein|pdb

>  <Gold.PLP.Fitness>  (25) 
40.1211

>  <Gold.PLP.PLP>  (25) 
-33.7338

>  <Gold.PLP.part.hbond>  (25) 
-1.4691

>  <Gold.PLP.part.metal>  (25) 
0.0000

>  <Gold.PLP.part.buried>  (25) 
-4.3440

>  <Gold.PLP.part.nonpolar>  (25) 
-28.4664

>  <Gold.PLP.part.repulsive>  (25) 
0.0978

>  <Gold.PLP.ligand.clash>  (25) 
0.0000

>  <Gold.PLP.ligand.torsion>  (25) 
1.1134

>  <Gold.PLP.Chemscore.Hbond>  (25) 
2.7150

>  <Gold.PLP.Chemscore.CHOScore>  (25) 
0.0000

>  <Gold.PLP.Chemscore.Metal>  (25) 
0.0000

>  <Gold.Chemscore.Hbonds>  (25) 
donor molecule, donor type, donor heavy atom, donor atom, acceptor molecule, acceptor atom, score
      L1  H     2    20       P1  1891  0.71
      L1  H    14    37       P1  2902  2.00

>  <Gold.PLP.Chemscore.Internal.Correction>  (25) 
0.4690

>  <Gold.PLP.Constraint>  (25) 
-0.0000

>  <Gold.Protein.RotatedTorsions>  (25) 
[  681  677  676  673 ] final   48.26 input -179.99 | X-H torsion
[  702  698  697  694 ] final  128.86 input  179.99 | X-H torsion
[ 2577 2569 2568 2566 ] final   33.41 input   -0.13 | X-H torsion
[ 2891 2887 2886 2883 ] final -133.83 input  179.98 | X-H torsion
[ 3175 3171 3170 3167 ] final  -12.70 input -179.99 | X-H torsion
[ 5278 5270 5269 5267 ] final  174.23 input    0.55 | X-H torsion
[  641  637  636  633 ] final -140.24 input  179.99 | X-H torsion
[ 1886 1878 1877 1875 ] final   10.84 input    1.60 | X-H torsion
[  965  957  956  954 ] final -126.03 input    0.45 | X-H torsion

>  <Gold.Protein.ActiveResidues>  (25) 
 LYS47   THR48   LEU49   GLY50   THR51   GLY52   SER53   PHE54   GLY55   ARG56  
 VAL57   MET58   LEU59   TYR69   ALA70   MET71   LYS72   ILE73   LEU74   GLU91  
 LEU95   VAL104  LYS105  MET118  VAL119  MET120  GLU121  TYR122  VAL123  PRO124 
 GLY125  GLY126  GLU127  MET128  PHE129  TYR164  ASP166  LEU167  LYS168  PRO169 
 GLU170  ASN171  LEU172  LEU173  ILE174  GLN181  VAL182  THR183  ASP184  PHE185 
 GLY186  PHE187  GLY200  THR201  ASN326  PHE327  TYR330  ARG18   ARG19   ASN20  
 ALA21   ILE22   HIS23  

>  <Gold.Protein.RotatedAtoms>  (25) 
   11.2400   19.1076    7.6801 H   0  0  0  0  0  0  0  0  0  0  0  0  # atno 641  bound_to 637 
   16.5031   12.6620    6.0875 H   0  0  0  0  0  0  0  0  0  0  0  0  # atno 681  bound_to 677 
   20.3177   11.7063   -2.0272 H   0  0  0  0  0  0  0  0  0  0  0  0  # atno 702  bound_to 698 
   -6.5652   16.9619   -1.3066 H   0  0  0  0  0  0  0  0  0  0  0  0  # atno 965  bound_to 957 
    2.2534   11.4825   10.3353 H   0  0  0  0  0  0  0  0  0  0  0  0  # atno 1886 bound_to 1878
    9.3941    2.9619   -3.1836 H   0  0  0  0  0  0  0  0  0  0  0  0  # atno 2577 bound_to 2569
    7.1614    6.0544    1.5747 H   0  0  0  0  0  0  0  0  0  0  0  0  # atno 2891 bound_to 2887
   19.2369    2.8491   -1.0791 H   0  0  0  0  0  0  0  0  0  0  0  0  # atno 3175 bound_to 3171
   14.3688   10.1094    9.3097 H   0  0  0  0  0  0  0  0  0  0  0  0  # atno 5278 bound_to 5270
   15.6575   13.3047    7.2741 LP  0  0  0  0  0  0  0  0  0  0  0  0  # atno 5914 bound_to 677 
   17.1467   13.8657    6.9078 LP  0  0  0  0  0  0  0  0  0  0  0  0  # atno 5915 bound_to 677 
   19.3849   11.8300   -0.7420 LP  0  0  0  0  0  0  0  0  0  0  0  0  # atno 5920 bound_to 698 
   20.9853   11.5434   -0.5902 LP  0  0  0  0  0  0  0  0  0  0  0  0  # atno 5921 bound_to 698 
   10.9813    3.0744   -3.1251 LP  0  0  0  0  0  0  0  0  0  0  0  0  # atno 5950 bound_to 2569
   10.1979    1.8713   -2.3471 LP  0  0  0  0  0  0  0  0  0  0  0  0  # atno 5951 bound_to 2569
    8.1587    6.8731    0.6411 LP  0  0  0  0  0  0  0  0  0  0  0  0  # atno 5982 bound_to 2887
    7.9791    5.2599    0.4626 LP  0  0  0  0  0  0  0  0  0  0  0  0  # atno 5983 bound_to 2887
   18.6969    2.6656    0.4076 LP  0  0  0  0  0  0  0  0  0  0  0  0  # atno 6000 bound_to 3171
   17.9463    1.9448   -0.8509 LP  0  0  0  0  0  0  0  0  0  0  0  0  # atno 6001 bound_to 3171
   12.8016   10.1454    9.0277 LP  0  0  0  0  0  0  0  0  0  0  0  0  # atno 6004 bound_to 5270
   13.3768    9.7851   10.5129 LP  0  0  0  0  0  0  0  0  0  0  0  0  # atno 6005 bound_to 5270
   10.4761   19.7909    8.8984 LP  0  0  0  0  0  0  0  0  0  0  0  0  # atno 6055 bound_to 637 
    9.6508   19.1870    7.6253 LP  0  0  0  0  0  0  0  0  0  0  0  0  # atno 6056 bound_to 637 
    1.0026   10.5903   10.7535 LP  0  0  0  0  0  0  0  0  0  0  0  0  # atno 6063 bound_to 1878
    1.0106   12.2006   11.0246 LP  0  0  0  0  0  0  0  0  0  0  0  0  # atno 6064 bound_to 1878
   -7.2046   16.4206    0.0475 LP  0  0  0  0  0  0  0  0  0  0  0  0  # atno 6067 bound_to 957 
   -6.6890   15.3871   -1.1070 LP  0  0  0  0  0  0  0  0  0  0  0  0  # atno 6068 bound_to 957 

>  <STRIFE_LigEff_Score>  (25) 
2.50756875

$$$$
unknown|pharmsElabsTestPreDocking|sdf|3|dock5
     RDKit          3D

 19 20  0  0  0  0  0  0  0  0999 V2000
    3.1829    8.0727    2.2948 C   0  0  0  0  0  0  0  0  0  0  0  0
    3.7931    8.9060    3.3711 C   0  0  0  0  0  0  0  0  0  0  0  0
    3.2989    8.9757    4.6269 N   0  0  0  0  0  0  0  0  0  0  0  0
    4.1814    9.7900    5.2366 C   0  0  0  0  0  0  0  0  0  0  0  0
    5.1496   10.1787    4.3915 N   0  0  0  0  0  0  0  0  0  0  0  0
    6.3058   11.0096    4.7283 C   0  0  0  0  0  0  0  0  0  0  0  0
    7.5372   10.2064    4.7075 N   0  0  0  0  0  0  0  0  0  0  0  0
    8.1608    9.8728    3.4561 C   0  0  0  0  0  0  0  0  0  0  0  0
    7.6087   10.2260    2.3867 O   0  0  0  0  0  0  0  0  0  0  0  0
    9.4522    9.1279    3.2839 C   0  0  0  0  0  0  0  0  0  0  0  0
    9.2920    7.7572    2.6772 C   0  0  0  0  0  0  0  0  0  0  0  0
   10.6120    7.1625    2.2147 C   0  0  0  0  0  0  0  0  0  0  0  0
   11.8199    7.3769    3.1383 C   0  0  0  0  0  0  0  0  0  0  0  0
   13.1848    7.1867    2.4317 C   0  0  0  0  0  0  0  0  0  0  0  0
   14.4141    6.8933    3.2904 C   0  0  0  0  0  0  0  0  0  0  0  0
   13.4456    8.2208    1.4281 N   0  0  0  0  0  0  0  0  0  0  0  0
   11.8283    8.6799    3.9811 C   0  0  0  0  0  0  0  0  0  0  0  0
   10.4727    9.2587    4.3806 C   0  0  0  0  0  0  0  0  0  0  0  0
    4.9269    9.6197    3.2144 N   0  0  0  0  0  0  0  0  0  0  0  0
  1  2  1  0
  2  3  1  0
  3  4  2  0
  4  5  1  0
  5  6  1  0
  6  7  1  0
  7  8  1  0
  8  9  2  0
  8 10  1  0
 10 11  1  0
 11 12  1  0
 12 13  1  0
 13 14  1  0
 14 15  1  0
 14 16  1  0
 13 17  1  0
 17 18  1  0
  5 19  1  0
 19  2  2  0
 18 10  1  0
M  CHG  1  16   1
M  END
>  <EmbedRMS>  (26) 
0.2856427799066481

>  <Gold.Version>  (26) 
2020.3.0

>  <Gold.Id.Protein>  (26) 
unknown|1q8t_protein|pdb

>  <Gold.PLP.Fitness>  (26) 
49.1595

>  <Gold.PLP.PLP>  (26) 
-41.4032

>  <Gold.PLP.part.hbond>  (26) 
-2.0000

>  <Gold.PLP.part.metal>  (26) 
0.0000

>  <Gold.PLP.part.buried>  (26) 
-3.3085

>  <Gold.PLP.part.nonpolar>  (26) 
-36.4134

>  <Gold.PLP.part.repulsive>  (26) 
0.1470

>  <Gold.PLP.ligand.clash>  (26) 
0.0000

>  <Gold.PLP.ligand.torsion>  (26) 
0.7739

>  <Gold.PLP.Chemscore.Hbond>  (26) 
2.9040

>  <Gold.PLP.Chemscore.CHOScore>  (26) 
0.0000

>  <Gold.PLP.Chemscore.Metal>  (26) 
0.0000

>  <Gold.Chemscore.Hbonds>  (26) 
donor molecule, donor type, donor heavy atom, donor atom, acceptor molecule, acceptor atom, score
      L1  H    16    37       P1  2902  2.00
      P1  H  1888  1903       L1     3  0.90

>  <Gold.PLP.Chemscore.Internal.Correction>  (26) 
0.5921

>  <Gold.PLP.Constraint>  (26) 
-0.0000

>  <Gold.Protein.RotatedTorsions>  (26) 
[  681  677  676  673 ] final   64.21 input -179.99 | X-H torsion
[  702  698  697  694 ] final  135.65 input  179.99 | X-H torsion
[ 2577 2569 2568 2566 ] final  145.08 input   -0.13 | X-H torsion
[ 2891 2887 2886 2883 ] final  111.87 input  179.98 | X-H torsion
[ 3175 3171 3170 3167 ] final -120.30 input -179.99 | X-H torsion
[ 5278 5270 5269 5267 ] final   94.30 input    0.55 | X-H torsion
[  641  637  636  633 ] final  -56.95 input  179.99 | X-H torsion
[ 1886 1878 1877 1875 ] final  -55.53 input    1.60 | X-H torsion
[  965  957  956  954 ] final  120.29 input    0.45 | X-H torsion

>  <Gold.Protein.ActiveResidues>  (26) 
 LYS47   THR48   LEU49   GLY50   THR51   GLY52   SER53   PHE54   GLY55   ARG56  
 VAL57   MET58   LEU59   TYR69   ALA70   MET71   LYS72   ILE73   LEU74   GLU91  
 LEU95   VAL104  LYS105  MET118  VAL119  MET120  GLU121  TYR122  VAL123  PRO124 
 GLY125  GLY126  GLU127  MET128  PHE129  TYR164  ASP166  LEU167  LYS168  PRO169 
 GLU170  ASN171  LEU172  LEU173  ILE174  GLN181  VAL182  THR183  ASP184  PHE185 
 GLY186  PHE187  GLY200  THR201  ASN326  PHE327  TYR330  ARG18   ARG19   ASN20  
 ALA21   ILE22   HIS23  

>  <Gold.Protein.RotatedAtoms>  (26) 
   10.1095   18.9908    7.3278 H   0  0  0  0  0  0  0  0  0  0  0  0  # atno 641  bound_to 637 
   16.7248   12.7701    6.0573 H   0  0  0  0  0  0  0  0  0  0  0  0  # atno 681  bound_to 677 
   20.4210   11.6877   -2.0111 H   0  0  0  0  0  0  0  0  0  0  0  0  # atno 702  bound_to 698 
   -7.1608   16.5092   -0.0075 H   0  0  0  0  0  0  0  0  0  0  0  0  # atno 965  bound_to 957 
    1.7573   10.6404   10.4104 H   0  0  0  0  0  0  0  0  0  0  0  0  # atno 1886 bound_to 1878
   10.0681    1.9016   -2.3980 H   0  0  0  0  0  0  0  0  0  0  0  0  # atno 2577 bound_to 2569
    8.0791    6.8746    0.7082 H   0  0  0  0  0  0  0  0  0  0  0  0  # atno 2891 bound_to 2887
   18.8570    2.7499    0.3121 H   0  0  0  0  0  0  0  0  0  0  0  0  # atno 3175 bound_to 3171
   13.3660   10.2349    8.7585 H   0  0  0  0  0  0  0  0  0  0  0  0  # atno 5278 bound_to 5270
   15.5872   13.1053    7.1200 LP  0  0  0  0  0  0  0  0  0  0  0  0  # atno 5914 bound_to 677 
   16.9837   13.9513    7.0936 LP  0  0  0  0  0  0  0  0  0  0  0  0  # atno 5915 bound_to 677 
   19.3454   11.8390   -0.8460 LP  0  0  0  0  0  0  0  0  0  0  0  0  # atno 5920 bound_to 698 
   20.9163   11.5539   -0.5031 LP  0  0  0  0  0  0  0  0  0  0  0  0  # atno 5921 bound_to 698 
    9.4260    3.0857   -3.2469 LP  0  0  0  0  0  0  0  0  0  0  0  0  # atno 5950 bound_to 2569
   11.0436    2.9764   -3.0525 LP  0  0  0  0  0  0  0  0  0  0  0  0  # atno 5951 bound_to 2569
    8.0363    5.3110    0.4087 LP  0  0  0  0  0  0  0  0  0  0  0  0  # atno 5982 bound_to 2887
    7.1357    5.9588    1.6070 LP  0  0  0  0  0  0  0  0  0  0  0  0  # atno 5983 bound_to 2887
   17.8927    1.9308   -0.6548 LP  0  0  0  0  0  0  0  0  0  0  0  0  # atno 6000 bound_to 3171
   19.1503    2.7840   -1.2526 LP  0  0  0  0  0  0  0  0  0  0  0  0  # atno 6001 bound_to 3171
   12.8141    9.8555   10.2036 LP  0  0  0  0  0  0  0  0  0  0  0  0  # atno 6004 bound_to 5270
   14.4194    9.9429    9.9170 LP  0  0  0  0  0  0  0  0  0  0  0  0  # atno 6005 bound_to 5270
   11.4055   19.3682    8.1722 LP  0  0  0  0  0  0  0  0  0  0  0  0  # atno 6055 bound_to 637 
    9.9119   19.7327    8.7226 LP  0  0  0  0  0  0  0  0  0  0  0  0  # atno 6056 bound_to 637 
    0.5801   11.4698   11.0898 LP  0  0  0  0  0  0  0  0  0  0  0  0  # atno 6063 bound_to 1878
    1.9554   12.2077   10.6093 LP  0  0  0  0  0  0  0  0  0  0  0  0  # atno 6064 bound_to 1878
   -6.7302   15.3558   -1.0171 LP  0  0  0  0  0  0  0  0  0  0  0  0  # atno 6067 bound_to 957 
   -6.5361   16.9287   -1.4106 LP  0  0  0  0  0  0  0  0  0  0  0  0  # atno 6068 bound_to 957 

>  <STRIFE_LigEff_Score>  (26) 
2.5873421052631578

$$$$
unknown|pharmsElabsTestPreDocking|sdf|4|dock5
     RDKit          3D

 16 16  0  0  0  0  0  0  0  0999 V2000
    3.8767    9.3334    3.1711 C   0  0  0  0  0  0  0  0  0  0  0  0
    4.5513    9.2767    4.5474 C   0  0  0  0  0  0  0  0  0  0  0  0
    3.5631    9.5013    5.6056 N   0  0  0  0  0  0  0  0  0  0  0  0
    5.6751   10.3235    4.6450 C   0  0  0  0  0  0  0  0  0  0  0  0
    6.9846    9.6845    4.5750 N   0  0  0  0  0  0  0  0  0  0  0  0
    7.6144    9.3781    3.3268 C   0  0  0  0  0  0  0  0  0  0  0  0
    7.0408    9.6698    2.2382 O   0  0  0  0  0  0  0  0  0  0  0  0
    8.9720    8.7226    3.3149 C   0  0  0  0  0  0  0  0  0  0  0  0
    9.3775    8.4293    1.8749 C   0  0  0  0  0  0  0  0  0  0  0  0
   10.6841    7.6636    1.7819 C   0  0  0  0  0  0  0  0  0  0  0  0
   11.7671    8.1015    2.7854 C   0  0  0  0  0  0  0  0  0  0  0  0
   13.2518    7.8663    2.3338 C   0  0  0  0  0  0  0  0  0  0  0  0
   14.2016    7.2903    3.3949 C   0  0  0  0  0  0  0  0  0  0  0  0
   13.3399    7.0798    1.0982 N   0  0  0  0  0  0  0  0  0  0  0  0
   11.4714    9.2367    3.7881 C   0  0  0  0  0  0  0  0  0  0  0  0
    9.9976    9.6385    3.9925 C   0  0  0  0  0  0  0  0  0  0  0  0
  1  2  1  0
  2  3  1  0
  2  4  1  0
  4  5  1  0
  5  6  1  0
  6  7  2  0
  6  8  1  0
  8  9  1  0
  9 10  1  0
 10 11  1  0
 11 12  1  0
 12 13  1  0
 12 14  1  0
 11 15  1  0
 15 16  1  0
 16  8  1  0
M  CHG  2   3   1  14   1
M  END
>  <EmbedRMS>  (27) 
0.17403569729373936

>  <Gold.Version>  (27) 
2020.3.0

>  <Gold.Id.Protein>  (27) 
unknown|1q8t_protein|pdb

>  <Gold.PLP.Fitness>  (27) 
47.8939

>  <Gold.PLP.PLP>  (27) 
-38.9466

>  <Gold.PLP.part.hbond>  (27) 
-2.8250

>  <Gold.PLP.part.metal>  (27) 
0.0000

>  <Gold.PLP.part.buried>  (27) 
-6.5105

>  <Gold.PLP.part.nonpolar>  (27) 
-30.0367

>  <Gold.PLP.part.repulsive>  (27) 
0.1380

>  <Gold.PLP.ligand.clash>  (27) 
0.0000

>  <Gold.PLP.ligand.torsion>  (27) 
1.6325

>  <Gold.PLP.Chemscore.Hbond>  (27) 
3.8720

>  <Gold.PLP.Chemscore.CHOScore>  (27) 
0.0000

>  <Gold.PLP.Chemscore.Metal>  (27) 
0.0000

>  <Gold.Chemscore.Hbonds>  (27) 
donor molecule, donor type, donor heavy atom, donor atom, acceptor molecule, acceptor atom, score
      L1  H     3    21       P1  1891  0.91
      L1  H    14    37       P1  2902  2.00
      L1  H    14    38       P1  2691  0.96

>  <Gold.PLP.Chemscore.Internal.Correction>  (27) 
0.5962

>  <Gold.PLP.Constraint>  (27) 
-0.0000

>  <Gold.Protein.RotatedTorsions>  (27) 
[  681  677  676  673 ] final  -29.98 input -179.99 | X-H torsion
[  702  698  697  694 ] final  123.71 input  179.99 | X-H torsion
[ 2577 2569 2568 2566 ] final -150.15 input   -0.13 | X-H torsion
[ 2891 2887 2886 2883 ] final  105.92 input  179.98 | X-H torsion
[ 3175 3171 3170 3167 ] final  -48.81 input -179.99 | X-H torsion
[ 5278 5270 5269 5267 ] final   88.28 input    0.55 | X-H torsion
[  641  637  636  633 ] final   32.12 input  179.99 | X-H torsion
[ 1886 1878 1877 1875 ] final   11.51 input    1.60 | X-H torsion
[  965  957  956  954 ] final  177.26 input    0.45 | X-H torsion

>  <Gold.Protein.ActiveResidues>  (27) 
 LYS47   THR48   LEU49   GLY50   THR51   GLY52   SER53   PHE54   GLY55   ARG56  
 VAL57   MET58   LEU59   TYR69   ALA70   MET71   LYS72   ILE73   LEU74   GLU91  
 LEU95   VAL104  LYS105  MET118  VAL119  MET120  GLU121  TYR122  VAL123  PRO124 
 GLY125  GLY126  GLU127  MET128  PHE129  TYR164  ASP166  LEU167  LYS168  PRO169 
 GLU170  ASN171  LEU172  LEU173  ILE174  GLN181  VAL182  THR183  ASP184  PHE185 
 GLY186  PHE187  GLY200  THR201  ASN326  PHE327  TYR330  ARG18   ARG19   ASN20  
 ALA21   ILE22   HIS23  

>  <Gold.Protein.RotatedAtoms>  (27) 
    9.6441   19.5418    8.3558 H   0  0  0  0  0  0  0  0  0  0  0  0  # atno 641  bound_to 637 
   15.6472   12.8479    6.8020 H   0  0  0  0  0  0  0  0  0  0  0  0  # atno 681  bound_to 677 
   20.2385   11.7204   -2.0311 H   0  0  0  0  0  0  0  0  0  0  0  0  # atno 702  bound_to 698 
   -6.9099   17.1229   -0.5459 H   0  0  0  0  0  0  0  0  0  0  0  0  # atno 965  bound_to 957 
    2.2534   11.4929   10.3371 H   0  0  0  0  0  0  0  0  0  0  0  0  # atno 1886 bound_to 1878
   10.9336    2.2683   -2.5892 H   0  0  0  0  0  0  0  0  0  0  0  0  # atno 2577 bound_to 2569
    8.1286    6.8334    0.6411 H   0  0  0  0  0  0  0  0  0  0  0  0  # atno 2891 bound_to 2887
   19.3656    3.0118   -0.5641 H   0  0  0  0  0  0  0  0  0  0  0  0  # atno 3175 bound_to 3171
   13.2746   10.2287    8.7798 H   0  0  0  0  0  0  0  0  0  0  0  0  # atno 5278 bound_to 5270
   16.6378   13.9762    7.3326 LP  0  0  0  0  0  0  0  0  0  0  0  0  # atno 5914 bound_to 677 
   17.0673   12.9985    6.0972 LP  0  0  0  0  0  0  0  0  0  0  0  0  # atno 5915 bound_to 677 
   19.4228   11.8218   -0.6666 LP  0  0  0  0  0  0  0  0  0  0  0  0  # atno 5920 bound_to 698 
   21.0307   11.5367   -0.6614 LP  0  0  0  0  0  0  0  0  0  0  0  0  # atno 5921 bound_to 698 
    9.3438    2.2561   -2.6769 LP  0  0  0  0  0  0  0  0  0  0  0  0  # atno 5950 bound_to 2569
   10.2146    3.4199   -3.4211 LP  0  0  0  0  0  0  0  0  0  0  0  0  # atno 5951 bound_to 2569
    7.9765    5.2578    0.4652 LP  0  0  0  0  0  0  0  0  0  0  0  0  # atno 5982 bound_to 2887
    7.1434    6.0554    1.6212 LP  0  0  0  0  0  0  0  0  0  0  0  0  # atno 5983 bound_to 2887
   18.2384    2.3143    0.3182 LP  0  0  0  0  0  0  0  0  0  0  0  0  # atno 6000 bound_to 3171
   18.2692    2.1248   -1.3035 LP  0  0  0  0  0  0  0  0  0  0  0  0  # atno 6001 bound_to 3171
   12.8824    9.8390   10.2734 LP  0  0  0  0  0  0  0  0  0  0  0  0  # atno 6004 bound_to 5270
   14.4474    9.9660    9.8249 LP  0  0  0  0  0  0  0  0  0  0  0  0  # atno 6005 bound_to 5270
   10.5884   18.9319    7.2283 LP  0  0  0  0  0  0  0  0  0  0  0  0  # atno 6055 bound_to 637 
   11.2192   19.5888    8.5838 LP  0  0  0  0  0  0  0  0  0  0  0  0  # atno 6056 bound_to 637 
    1.0114   10.5855   10.7488 LP  0  0  0  0  0  0  0  0  0  0  0  0  # atno 6063 bound_to 1878
    1.0018   12.1945   11.0274 LP  0  0  0  0  0  0  0  0  0  0  0  0  # atno 6064 bound_to 1878
   -7.0899   15.5744   -0.2222 LP  0  0  0  0  0  0  0  0  0  0  0  0  # atno 6067 bound_to 957 
   -6.4407   16.0639   -1.6384 LP  0  0  0  0  0  0  0  0  0  0  0  0  # atno 6068 bound_to 957 

>  <STRIFE_LigEff_Score>  (27) 
2.99336875

$$$$
unknown|pharmsElabsTestPreDocking|sdf|5|dock7
     RDKit          3D

 18 19  0  0  0  0  0  0  0  0999 V2000
   14.5229    9.5102    1.1009 C   0  0  0  0  0  0  0  0  0  0  0  0
   13.7541    8.2540    1.4746 C   0  0  0  0  0  0  0  0  0  0  0  0
   14.0874    7.0743    0.6839 N   0  0  0  0  0  0  0  0  0  0  0  0
   12.2637    8.4365    1.8950 C   0  0  0  0  0  0  0  0  0  0  0  0
   11.6089    7.3139    2.7152 C   0  0  0  0  0  0  0  0  0  0  0  0
   10.0742    7.4525    2.7189 C   0  0  0  0  0  0  0  0  0  0  0  0
    9.5718    8.8826    2.5048 C   0  0  0  0  0  0  0  0  0  0  0  0
    8.0913    9.0501    2.6510 C   0  0  0  0  0  0  0  0  0  0  0  0
    7.5212    9.3659    1.5840 O   0  0  0  0  0  0  0  0  0  0  0  0
    7.3259    8.8774    3.8663 N   0  0  0  0  0  0  0  0  0  0  0  0
    5.9033    9.1736    3.9952 C   0  0  0  0  0  0  0  0  0  0  0  0
    5.4308    9.7859    5.1721 C   0  0  0  0  0  0  0  0  0  0  0  0
    4.0717   10.0962    5.3243 C   0  0  0  0  0  0  0  0  0  0  0  0
    3.1610    9.7929    4.3115 C   0  0  0  0  0  0  0  0  0  0  0  0
    3.6039    9.1907    3.1412 C   0  0  0  0  0  0  0  0  0  0  0  0
    4.9532    8.8963    2.9738 C   0  0  0  0  0  0  0  0  0  0  0  0
   10.4656   10.0744    2.7911 C   0  0  0  0  0  0  0  0  0  0  0  0
   11.9663    9.8016    2.5524 C   0  0  0  0  0  0  0  0  0  0  0  0
  1  2  1  0
  2  3  1  0
  2  4  1  0
  4  5  1  0
  5  6  1  0
  6  7  1  0
  7  8  1  0
  8  9  2  0
  8 10  1  0
 10 11  1  0
 11 12  2  0
 12 13  1  0
 13 14  2  0
 14 15  1  0
 15 16  2  0
  7 17  1  0
 17 18  1  0
 18  4  1  0
 16 11  1  0
M  CHG  1   3   1
M  END
>  <EmbedRMS>  (28) 
0.24964892458419108

>  <Gold.Version>  (28) 
2020.3.0

>  <Gold.Id.Protein>  (28) 
unknown|1q8t_protein|pdb

>  <Gold.PLP.Fitness>  (28) 
55.3061

>  <Gold.PLP.PLP>  (28) 
-47.4180

>  <Gold.PLP.part.hbond>  (28) 
-2.0909

>  <Gold.PLP.part.metal>  (28) 
0.0000

>  <Gold.PLP.part.buried>  (28) 
-1.4129

>  <Gold.PLP.part.nonpolar>  (28) 
-44.1593

>  <Gold.PLP.part.repulsive>  (28) 
0.0751

>  <Gold.PLP.ligand.clash>  (28) 
0.0000

>  <Gold.PLP.ligand.torsion>  (28) 
1.0107

>  <Gold.PLP.Chemscore.Hbond>  (28) 
2.9920

>  <Gold.PLP.Chemscore.CHOScore>  (28) 
0.0000

>  <Gold.PLP.Chemscore.Metal>  (28) 
0.0000

>  <Gold.Chemscore.Hbonds>  (28) 
donor molecule, donor type, donor heavy atom, donor atom, acceptor molecule, acceptor atom, score
      L1  H     3    24       P1  2902  2.00
      L1  H     3    25       P1  2691  0.99

>  <Gold.PLP.Chemscore.Internal.Correction>  (28) 
0.9337

>  <Gold.PLP.Constraint>  (28) 
-0.0000

>  <Gold.Protein.RotatedTorsions>  (28) 
[  681  677  676  673 ] final  -39.97 input -179.99 | X-H torsion
[  702  698  697  694 ] final -112.98 input  179.99 | X-H torsion
[ 2577 2569 2568 2566 ] final  -62.18 input   -0.13 | X-H torsion
[ 2891 2887 2886 2883 ] final  -92.58 input  179.98 | X-H torsion
[ 3175 3171 3170 3167 ] final -108.35 input -179.99 | X-H torsion
[ 5278 5270 5269 5267 ] final -128.46 input    0.55 | X-H torsion
[  641  637  636  633 ] final -102.34 input  179.99 | X-H torsion
[ 1886 1878 1877 1875 ] final   67.06 input    1.60 | X-H torsion
[  965  957  956  954 ] final  122.68 input    0.45 | X-H torsion

>  <Gold.Protein.ActiveResidues>  (28) 
 LYS47   THR48   LEU49   GLY50   THR51   GLY52   SER53   PHE54   GLY55   ARG56  
 VAL57   MET58   LEU59   TYR69   ALA70   MET71   LYS72   ILE73   LEU74   GLU91  
 LEU95   VAL104  LYS105  MET118  VAL119  MET120  GLU121  TYR122  VAL123  PRO124 
 GLY125  GLY126  GLU127  MET128  PHE129  TYR164  ASP166  LEU167  LYS168  PRO169 
 GLU170  ASN171  LEU172  LEU173  ILE174  GLN181  VAL182  THR183  ASP184  PHE185 
 GLY186  PHE187  GLY200  THR201  ASN326  PHE327  TYR330  ARG18   ARG19   ASN20  
 ALA21   ILE22   HIS23  

>  <Gold.Protein.RotatedAtoms>  (28) 
   10.7994   18.9548    7.3328 H   0  0  0  0  0  0  0  0  0  0  0  0  # atno 641  bound_to 637 
   15.6182   12.9473    6.9185 H   0  0  0  0  0  0  0  0  0  0  0  0  # atno 681  bound_to 677 
   20.9670   11.5644   -0.6405 H   0  0  0  0  0  0  0  0  0  0  0  0  # atno 702  bound_to 698 
   -7.1560   16.5451   -0.0172 H   0  0  0  0  0  0  0  0  0  0  0  0  # atno 965  bound_to 957 
    1.8924   12.1920   10.6155 H   0  0  0  0  0  0  0  0  0  0  0  0  # atno 1886 bound_to 1878
   10.6819    3.2601   -3.2963 H   0  0  0  0  0  0  0  0  0  0  0  0  # atno 2577 bound_to 2569
    7.2420    5.4732    1.3421 H   0  0  0  0  0  0  0  0  0  0  0  0  # atno 2891 bound_to 2887
   18.9952    2.8410    0.2263 H   0  0  0  0  0  0  0  0  0  0  0  0  # atno 3175 bound_to 3171
   14.2487    9.9044   10.1356 H   0  0  0  0  0  0  0  0  0  0  0  0  # atno 5278 bound_to 5270
   16.7804   13.9838    7.2518 LP  0  0  0  0  0  0  0  0  0  0  0  0  # atno 5914 bound_to 677 
   16.9551   12.8863    6.0554 LP  0  0  0  0  0  0  0  0  0  0  0  0  # atno 5915 bound_to 677 
   20.2895   11.6954   -2.0762 LP  0  0  0  0  0  0  0  0  0  0  0  0  # atno 5920 bound_to 698 
   19.3977   11.8272   -0.7146 LP  0  0  0  0  0  0  0  0  0  0  0  0  # atno 5921 bound_to 698 
   10.5848    1.9609   -2.3809 LP  0  0  0  0  0  0  0  0  0  0  0  0  # atno 5950 bound_to 2569
    9.2385    2.6708   -2.9726 LP  0  0  0  0  0  0  0  0  0  0  0  0  # atno 5951 bound_to 2569
    7.7415    6.9730    1.1483 LP  0  0  0  0  0  0  0  0  0  0  0  0  # atno 5982 bound_to 2887
    8.3115    5.7717    0.2003 LP  0  0  0  0  0  0  0  0  0  0  0  0  # atno 5983 bound_to 2887
   17.8738    1.9424   -0.4597 LP  0  0  0  0  0  0  0  0  0  0  0  0  # atno 6000 bound_to 3171
   19.0237    2.6765   -1.3573 LP  0  0  0  0  0  0  0  0  0  0  0  0  # atno 6001 bound_to 3171
   13.6401   10.2347    8.7013 LP  0  0  0  0  0  0  0  0  0  0  0  0  # atno 6004 bound_to 5270
   12.6646    9.9115    9.9704 LP  0  0  0  0  0  0  0  0  0  0  0  0  # atno 6005 bound_to 5270
   11.0531   19.6731    8.7308 LP  0  0  0  0  0  0  0  0  0  0  0  0  # atno 6055 bound_to 637 
    9.5378   19.4656    8.1587 LP  0  0  0  0  0  0  0  0  0  0  0  0  # atno 6056 bound_to 637 
    1.8168   10.6163   10.3990 LP  0  0  0  0  0  0  0  0  0  0  0  0  # atno 6063 bound_to 1878
    0.5764   11.4278   11.0842 LP  0  0  0  0  0  0  0  0  0  0  0  0  # atno 6064 bound_to 1878
   -6.7462   15.3468   -0.9822 LP  0  0  0  0  0  0  0  0  0  0  0  0  # atno 6067 bound_to 957 
   -6.5252   16.9000   -1.4353 LP  0  0  0  0  0  0  0  0  0  0  0  0  # atno 6068 bound_to 957 

>  <STRIFE_LigEff_Score>  (28) 
3.0725611111111113

$$$$
unknown|pharmsElabsTestPreDocking|sdf|6|dock7
     RDKit          3D

 18 19  0  0  0  0  0  0  0  0999 V2000
   14.8247    7.6477    3.4173 C   0  0  0  0  0  0  0  0  0  0  0  0
   13.8951    8.1294    2.2933 C   0  0  0  0  0  0  0  0  0  0  0  0
   14.0326    7.2616    1.1183 N   0  0  0  0  0  0  0  0  0  0  0  0
   12.3946    8.3644    2.6868 C   0  0  0  0  0  0  0  0  0  0  0  0
   11.3776    7.3959    2.0549 C   0  0  0  0  0  0  0  0  0  0  0  0
    9.9837    7.9635    1.8745 C   0  0  0  0  0  0  0  0  0  0  0  0
    9.5444    8.8212    3.0563 C   0  0  0  0  0  0  0  0  0  0  0  0
    8.1159    9.2517    2.8493 C   0  0  0  0  0  0  0  0  0  0  0  0
    7.8241    9.9365    1.8322 O   0  0  0  0  0  0  0  0  0  0  0  0
    7.1233    8.9015    3.8256 N   0  0  0  0  0  0  0  0  0  0  0  0
    5.7151    9.2084    3.7837 C   0  0  0  0  0  0  0  0  0  0  0  0
    5.0733    9.5633    4.9799 C   0  0  0  0  0  0  0  0  0  0  0  0
    3.7149    9.8743    4.9878 C   0  0  0  0  0  0  0  0  0  0  0  0
    2.9974    9.8299    3.7945 C   0  0  0  0  0  0  0  0  0  0  0  0
    3.6210    9.4863    2.6405 N   0  0  0  0  0  0  0  0  0  0  0  0
    4.9413    9.1783    2.6021 C   0  0  0  0  0  0  0  0  0  0  0  0
   10.4401   10.0575    3.1955 C   0  0  0  0  0  0  0  0  0  0  0  0
   11.9528    9.7858    3.0928 C   0  0  0  0  0  0  0  0  0  0  0  0
  1  2  1  0
  2  3  1  0
  2  4  1  0
  4  5  1  0
  5  6  1  0
  6  7  1  0
  7  8  1  0
  8  9  2  0
  8 10  1  0
 10 11  1  0
 11 12  2  0
 12 13  1  0
 13 14  2  0
 14 15  1  0
 15 16  2  0
  7 17  1  0
 17 18  1  0
 18  4  1  0
 16 11  1  0
M  CHG  1   3   1
M  END
>  <EmbedRMS>  (29) 
0.16496192233382964

>  <Gold.Version>  (29) 
2020.3.0

>  <Gold.Id.Protein>  (29) 
unknown|1q8t_protein|pdb

>  <Gold.PLP.Fitness>  (29) 
52.0013

>  <Gold.PLP.PLP>  (29) 
-42.5821

>  <Gold.PLP.part.hbond>  (29) 
-2.0000

>  <Gold.PLP.part.metal>  (29) 
0.0000

>  <Gold.PLP.part.buried>  (29) 
-2.8568

>  <Gold.PLP.part.nonpolar>  (29) 
-37.7358

>  <Gold.PLP.part.repulsive>  (29) 
0.1319

>  <Gold.PLP.ligand.clash>  (29) 
0.0000

>  <Gold.PLP.ligand.torsion>  (29) 
1.5038

>  <Gold.PLP.Chemscore.Hbond>  (29) 
3.0000

>  <Gold.PLP.Chemscore.CHOScore>  (29) 
0.9551

>  <Gold.PLP.Chemscore.Metal>  (29) 
0.0000

>  <Gold.Chemscore.Hbonds>  (29) 
donor molecule, donor type, donor heavy atom, donor atom, acceptor molecule, acceptor atom, score
      L1  H     3    24       P1  2902  2.00
      L1  H     3    25       P1  2691  1.00
      L1  C    14    35       P1  1855  0.96

>  <Gold.PLP.Chemscore.Internal.Correction>  (29) 
0.5615

>  <Gold.PLP.Constraint>  (29) 
-0.0000

>  <Gold.Protein.RotatedTorsions>  (29) 
[  681  677  676  673 ] final   94.98 input -179.99 | X-H torsion
[  702  698  697  694 ] final    0.08 input  179.99 | X-H torsion
[ 2577 2569 2568 2566 ] final -107.20 input   -0.13 | X-H torsion
[ 2891 2887 2886 2883 ] final  160.18 input  179.98 | X-H torsion
[ 3175 3171 3170 3167 ] final   28.35 input -179.99 | X-H torsion
[ 5278 5270 5269 5267 ] final  137.64 input    0.55 | X-H torsion
[  641  637  636  633 ] final   68.28 input  179.99 | X-H torsion
[ 1886 1878 1877 1875 ] final  153.15 input    1.60 | X-H torsion
[  965  957  956  954 ] final -150.74 input    0.45 | X-H torsion

>  <Gold.Protein.ActiveResidues>  (29) 
 LYS47   THR48   LEU49   GLY50   THR51   GLY52   SER53   PHE54   GLY55   ARG56  
 VAL57   MET58   LEU59   TYR69   ALA70   MET71   LYS72   ILE73   LEU74   GLU91  
 LEU95   VAL104  LYS105  MET118  VAL119  MET120  GLU121  TYR122  VAL123  PRO124 
 GLY125  GLY126  GLU127  MET128  PHE129  TYR164  ASP166  LEU167  LYS168  PRO169 
 GLU170  ASN171  LEU172  LEU173  ILE174  GLN181  VAL182  THR183  ASP184  PHE185 
 GLY186  PHE187  GLY200  THR201  ASN326  PHE327  TYR330  ARG18   ARG19   ASN20  
 ALA21   ILE22   HIS23  

>  <Gold.Protein.RotatedAtoms>  (29) 
   10.0071   19.7169    8.7386 H   0  0  0  0  0  0  0  0  0  0  0  0  # atno 641  bound_to 637 
   17.0757   13.0785    6.1457 H   0  0  0  0  0  0  0  0  0  0  0  0  # atno 681  bound_to 677 
   19.4947   11.8254   -0.6411 H   0  0  0  0  0  0  0  0  0  0  0  0  # atno 702  bound_to 698 
   -6.7054   17.1353   -0.9950 H   0  0  0  0  0  0  0  0  0  0  0  0  # atno 965  bound_to 957 
    0.7848   11.9234   11.0579 H   0  0  0  0  0  0  0  0  0  0  0  0  # atno 1886 bound_to 1878
   11.0564    2.8015   -2.9505 H   0  0  0  0  0  0  0  0  0  0  0  0  # atno 2577 bound_to 2569
    7.5993    6.8686    1.2625 H   0  0  0  0  0  0  0  0  0  0  0  0  # atno 2891 bound_to 2887
   18.8208    2.4996   -1.3940 H   0  0  0  0  0  0  0  0  0  0  0  0  # atno 3175 bound_to 3171
   14.0154   10.2107    8.8840 H   0  0  0  0  0  0  0  0  0  0  0  0  # atno 5278 bound_to 5270
   15.6372   12.7676    6.7542 LP  0  0  0  0  0  0  0  0  0  0  0  0  # atno 5914 bound_to 677 
   16.5644   13.9644    7.3664 LP  0  0  0  0  0  0  0  0  0  0  0  0  # atno 5915 bound_to 677 
   21.0588   11.5327   -0.7139 LP  0  0  0  0  0  0  0  0  0  0  0  0  # atno 5920 bound_to 698 
   20.1771   11.7153   -2.0763 LP  0  0  0  0  0  0  0  0  0  0  0  0  # atno 5921 bound_to 698 
    9.8653    1.9033   -2.3937 LP  0  0  0  0  0  0  0  0  0  0  0  0  # atno 5950 bound_to 2569
    9.5637    3.2111   -3.3239 LP  0  0  0  0  0  0  0  0  0  0  0  0  # atno 5951 bound_to 2569
    8.3633    5.9743    0.1888 LP  0  0  0  0  0  0  0  0  0  0  0  0  # atno 5982 bound_to 2887
    7.3136    5.3019    1.2435 LP  0  0  0  0  0  0  0  0  0  0  0  0  # atno 5983 bound_to 2887
   19.1785    2.9796    0.0816 LP  0  0  0  0  0  0  0  0  0  0  0  0  # atno 6000 bound_to 3171
   17.9025    1.9985   -0.1935 LP  0  0  0  0  0  0  0  0  0  0  0  0  # atno 6001 bound_to 3171
   12.5887   10.0111    9.5633 LP  0  0  0  0  0  0  0  0  0  0  0  0  # atno 6004 bound_to 5270
   13.9615    9.8128   10.4253 LP  0  0  0  0  0  0  0  0  0  0  0  0  # atno 6005 bound_to 5270
   10.0143   19.0073    7.3133 LP  0  0  0  0  0  0  0  0  0  0  0  0  # atno 6055 bound_to 637 
   11.4111   19.3288    8.0958 LP  0  0  0  0  0  0  0  0  0  0  0  0  # atno 6056 bound_to 637 
    2.2405   11.8314   10.4194 LP  0  0  0  0  0  0  0  0  0  0  0  0  # atno 6063 bound_to 1878
    1.3186   10.4955   10.5980 LP  0  0  0  0  0  0  0  0  0  0  0  0  # atno 6064 bound_to 1878
   -7.1987   16.0178    0.0262 LP  0  0  0  0  0  0  0  0  0  0  0  0  # atno 6067 bound_to 957 
   -6.5472   15.6074   -1.4139 LP  0  0  0  0  0  0  0  0  0  0  0  0  # atno 6068 bound_to 957 

>  <STRIFE_LigEff_Score>  (29) 
2.888961111111111

$$$$
unknown|pharmsElabsTestPreDocking|sdf|7|dock5
     RDKit          3D

 17 17  0  0  0  0  0  0  0  0999 V2000
    5.8514   10.1005    5.5886 C   0  0  0  0  0  0  0  0  0  0  0  0
    4.9245    9.9113    4.4263 C   0  0  0  0  0  0  0  0  0  0  0  0
    5.2286    9.1998    3.3224 C   0  0  0  0  0  0  0  0  0  0  0  0
    4.1483    8.9851    2.3308 C   0  0  0  0  0  0  0  0  0  0  0  0
    2.9615    9.4747    2.4850 N   0  0  0  0  0  0  0  0  0  0  0  0
    6.5387    8.6009    3.1380 N   0  0  0  0  0  0  0  0  0  0  0  0
    7.5670    9.2676    2.3789 C   0  0  0  0  0  0  0  0  0  0  0  0
    7.2530   10.2331    1.6423 O   0  0  0  0  0  0  0  0  0  0  0  0
    9.0302    8.9292    2.3796 C   0  0  0  0  0  0  0  0  0  0  0  0
    9.3379    7.5491    2.9042 C   0  0  0  0  0  0  0  0  0  0  0  0
   10.7588    7.1054    2.5982 C   0  0  0  0  0  0  0  0  0  0  0  0
   11.8560    8.1670    2.7588 C   0  0  0  0  0  0  0  0  0  0  0  0
   13.1667    7.8247    2.0074 C   0  0  0  0  0  0  0  0  0  0  0  0
   14.1437    8.9572    1.6955 C   0  0  0  0  0  0  0  0  0  0  0  0
   12.9394    6.9565    0.8504 N   0  0  0  0  0  0  0  0  0  0  0  0
   11.4447    9.6373    2.4808 C   0  0  0  0  0  0  0  0  0  0  0  0
    9.9925   10.0200    2.7619 C   0  0  0  0  0  0  0  0  0  0  0  0
  1  2  1  0
  2  3  2  0
  3  4  1  0
  4  5  2  0
  3  6  1  0
  6  7  1  0
  7  8  2  0
  7  9  1  0
  9 10  1  0
 10 11  1  0
 11 12  1  0
 12 13  1  0
 13 14  1  0
 13 15  1  0
 12 16  1  0
 16 17  1  0
 17  9  1  0
M  CHG  1  15   1
M  END
>  <EmbedRMS>  (30) 
0.3022183700925627

>  <Gold.Version>  (30) 
2020.3.0

>  <Gold.Id.Protein>  (30) 
unknown|1q8t_protein|pdb

>  <Gold.PLP.Fitness>  (30) 
43.7854

>  <Gold.PLP.PLP>  (30) 
-37.7083

>  <Gold.PLP.part.hbond>  (30) 
-1.9840

>  <Gold.PLP.part.metal>  (30) 
0.0000

>  <Gold.PLP.part.buried>  (30) 
-2.7151

>  <Gold.PLP.part.nonpolar>  (30) 
-32.7879

>  <Gold.PLP.part.repulsive>  (30) 
0.0584

>  <Gold.PLP.ligand.clash>  (30) 
0.0000

>  <Gold.PLP.ligand.torsion>  (30) 
1.8651

>  <Gold.PLP.Chemscore.Hbond>  (30) 
2.9280

>  <Gold.PLP.Chemscore.CHOScore>  (30) 
0.0000

>  <Gold.PLP.Chemscore.Metal>  (30) 
0.0000

>  <Gold.Chemscore.Hbonds>  (30) 
donor molecule, donor type, donor heavy atom, donor atom, acceptor molecule, acceptor atom, score
      L1  H     5    23       P1  1855  0.56
      L1  H    15    35       P1  2902  2.00
      L1  H    15    37       P1  2691  0.37

>  <Gold.PLP.Chemscore.Internal.Correction>  (30) 
1.0232

>  <Gold.PLP.Constraint>  (30) 
-0.0000

>  <Gold.Protein.RotatedTorsions>  (30) 
[  681  677  676  673 ] final  -92.60 input -179.99 | X-H torsion
[  702  698  697  694 ] final -131.67 input  179.99 | X-H torsion
[ 2577 2569 2568 2566 ] final   94.77 input   -0.13 | X-H torsion
[ 2891 2887 2886 2883 ] final   57.77 input  179.98 | X-H torsion
[ 3175 3171 3170 3167 ] final -152.80 input -179.99 | X-H torsion
[ 5278 5270 5269 5267 ] final  151.15 input    0.55 | X-H torsion
[  641  637  636  633 ] final  117.75 input  179.99 | X-H torsion
[ 1886 1878 1877 1875 ] final -154.01 input    1.60 | X-H torsion
[  965  957  956  954 ] final    1.31 input    0.45 | X-H torsion

>  <Gold.Protein.ActiveResidues>  (30) 
 LYS47   THR48   LEU49   GLY50   THR51   GLY52   SER53   PHE54   GLY55   ARG56  
 VAL57   MET58   LEU59   TYR69   ALA70   MET71   LYS72   ILE73   LEU74   GLU91  
 LEU95   VAL104  LYS105  MET118  VAL119  MET120  GLU121  TYR122  VAL123  PRO124 
 GLY125  GLY126  GLU127  MET128  PHE129  TYR164  ASP166  LEU167  LYS168  PRO169 
 GLU170  ASN171  LEU172  LEU173  ILE174  GLN181  VAL182  THR183  ASP184  PHE185 
 GLY186  PHE187  GLY200  THR201  ASN326  PHE327  TYR330  ARG18   ARG19   ASN20  
 ALA21   ILE22   HIS23  

>  <Gold.Protein.RotatedAtoms>  (30) 
   10.7508   19.7216    8.8292 H   0  0  0  0  0  0  0  0  0  0  0  0  # atno 641  bound_to 637 
   15.8621   13.5542    7.3691 H   0  0  0  0  0  0  0  0  0  0  0  0  # atno 681  bound_to 677 
   21.0851   11.5486   -0.9060 H   0  0  0  0  0  0  0  0  0  0  0  0  # atno 702  bound_to 698 
   -6.7264   15.3978   -0.9852 H   0  0  0  0  0  0  0  0  0  0  0  0  # atno 965  bound_to 957 
    0.6382   11.1431   10.9895 H   0  0  0  0  0  0  0  0  0  0  0  0  # atno 1886 bound_to 1878
    9.4253    2.2128   -2.6612 H   0  0  0  0  0  0  0  0  0  0  0  0  # atno 2577 bound_to 2569
    8.3424    6.2513    0.2540 H   0  0  0  0  0  0  0  0  0  0  0  0  # atno 2891 bound_to 2887
   18.4531    2.4568    0.3586 H   0  0  0  0  0  0  0  0  0  0  0  0  # atno 3175 bound_to 3171
   14.1780   10.1802    9.0147 H   0  0  0  0  0  0  0  0  0  0  0  0  # atno 5278 bound_to 5270
   17.2763   13.6854    6.6487 LP  0  0  0  0  0  0  0  0  0  0  0  0  # atno 5914 bound_to 677 
   16.2026   12.5460    6.1843 LP  0  0  0  0  0  0  0  0  0  0  0  0  # atno 5915 bound_to 677 
   19.9896   11.7480   -2.0450 LP  0  0  0  0  0  0  0  0  0  0  0  0  # atno 5920 bound_to 698 
   19.5734   11.7913   -0.4666 LP  0  0  0  0  0  0  0  0  0  0  0  0  # atno 5921 bound_to 698 
   10.1337    3.4169   -3.4250 LP  0  0  0  0  0  0  0  0  0  0  0  0  # atno 5950 bound_to 2569
   11.0128    2.3175   -2.5972 LP  0  0  0  0  0  0  0  0  0  0  0  0  # atno 5951 bound_to 2569
    7.4670    5.1745    1.0354 LP  0  0  0  0  0  0  0  0  0  0  0  0  # atno 5982 bound_to 2887
    7.4280    6.7513    1.4583 LP  0  0  0  0  0  0  0  0  0  0  0  0  # atno 5983 bound_to 2887
   18.0993    2.0214   -1.1317 LP  0  0  0  0  0  0  0  0  0  0  0  0  # atno 6000 bound_to 3171
   19.3687    3.0018   -0.8247 LP  0  0  0  0  0  0  0  0  0  0  0  0  # atno 6001 bound_to 3171
   12.6255   10.0638    9.3510 LP  0  0  0  0  0  0  0  0  0  0  0  0  # atno 6004 bound_to 5270
   13.7537    9.7922   10.5000 LP  0  0  0  0  0  0  0  0  0  0  0  0  # atno 6005 bound_to 5270
    9.5472   19.3170    7.8687 LP  0  0  0  0  0  0  0  0  0  0  0  0  # atno 6055 bound_to 637 
   11.0949   19.0142    7.4449 LP  0  0  0  0  0  0  0  0  0  0  0  0  # atno 6056 bound_to 637 
    1.6649   12.3381   10.7596 LP  0  0  0  0  0  0  0  0  0  0  0  0  # atno 6063 bound_to 1878
    2.0486   10.8102   10.3298 LP  0  0  0  0  0  0  0  0  0  0  0  0  # atno 6064 bound_to 1878
   -6.5314   16.9167   -1.4212 LP  0  0  0  0  0  0  0  0  0  0  0  0  # atno 6067 bound_to 957 
   -7.1924   16.5384    0.0233 LP  0  0  0  0  0  0  0  0  0  0  0  0  # atno 6068 bound_to 957 

>  <STRIFE_LigEff_Score>  (30) 
2.5756117647058825

$$$$
unknown|pharmsElabsTestPreDocking|sdf|8|dock2
     RDKit          3D

 18 19  0  0  0  0  0  0  0  0999 V2000
   14.8420    7.7272    3.4284 C   0  0  0  0  0  0  0  0  0  0  0  0
   13.8955    8.1385    2.2906 C   0  0  0  0  0  0  0  0  0  0  0  0
   14.0277    7.2085    1.1634 N   0  0  0  0  0  0  0  0  0  0  0  0
   12.3975    8.3822    2.6881 C   0  0  0  0  0  0  0  0  0  0  0  0
   11.3780    7.3931    2.0933 C   0  0  0  0  0  0  0  0  0  0  0  0
    9.9815    7.9522    1.9063 C   0  0  0  0  0  0  0  0  0  0  0  0
    9.5491    8.8442    3.0650 C   0  0  0  0  0  0  0  0  0  0  0  0
    8.1182    9.2654    2.8559 C   0  0  0  0  0  0  0  0  0  0  0  0
    7.8222    9.9425    1.8348 O   0  0  0  0  0  0  0  0  0  0  0  0
    7.1278    8.9154    3.8345 N   0  0  0  0  0  0  0  0  0  0  0  0
    5.7179    9.2141    3.7912 C   0  0  0  0  0  0  0  0  0  0  0  0
    5.0788    9.5926    4.9817 C   0  0  0  0  0  0  0  0  0  0  0  0
    3.7188    9.8968    4.9878 C   0  0  0  0  0  0  0  0  0  0  0  0
    2.9971    9.8219    3.7986 C   0  0  0  0  0  0  0  0  0  0  0  0
    3.6181    9.4555    2.6503 N   0  0  0  0  0  0  0  0  0  0  0  0
    4.9398    9.1535    2.6137 C   0  0  0  0  0  0  0  0  0  0  0  0
   10.4430   10.0859    3.1602 C   0  0  0  0  0  0  0  0  0  0  0  0
   11.9556    9.8144    3.0543 C   0  0  0  0  0  0  0  0  0  0  0  0
  1  2  1  0
  2  3  1  0
  2  4  1  0
  4  5  1  0
  5  6  1  0
  6  7  1  0
  7  8  1  0
  8  9  2  0
  8 10  1  0
 10 11  1  0
 11 12  2  0
 12 13  1  0
 13 14  2  0
 14 15  1  0
 15 16  2  0
  7 17  1  0
 17 18  1  0
 18  4  1  0
 16 11  1  0
M  CHG  1   3   1
M  END
>  <EmbedRMS>  (31) 
0.16496192233382964

>  <Gold.Version>  (31) 
2020.3.0

>  <Gold.Id.Protein>  (31) 
unknown|1q8t_protein|pdb

>  <Gold.PLP.Fitness>  (31) 
52.0212

>  <Gold.PLP.PLP>  (31) 
-42.5629

>  <Gold.PLP.part.hbond>  (31) 
-2.0000

>  <Gold.PLP.part.metal>  (31) 
0.0000

>  <Gold.PLP.part.buried>  (31) 
-2.9452

>  <Gold.PLP.part.nonpolar>  (31) 
-37.7478

>  <Gold.PLP.part.repulsive>  (31) 
0.1346

>  <Gold.PLP.ligand.clash>  (31) 
0.0000

>  <Gold.PLP.ligand.torsion>  (31) 
1.5023

>  <Gold.PLP.Chemscore.Hbond>  (31) 
3.0000

>  <Gold.PLP.Chemscore.CHOScore>  (31) 
0.9543

>  <Gold.PLP.Chemscore.Metal>  (31) 
0.0000

>  <Gold.Chemscore.Hbonds>  (31) 
donor molecule, donor type, donor heavy atom, donor atom, acceptor molecule, acceptor atom, score
      L1  H     3    24       P1  2902  2.00
      L1  H     3    25       P1  2691  1.00
      L1  C    14    35       P1  1855  0.95

>  <Gold.PLP.Chemscore.Internal.Correction>  (31) 
0.6000

>  <Gold.PLP.Constraint>  (31) 
-0.0000

>  <Gold.Protein.RotatedTorsions>  (31) 
[  681  677  676  673 ] final  -56.54 input -179.99 | X-H torsion
[  702  698  697  694 ] final  173.95 input  179.99 | X-H torsion
[ 2577 2569 2568 2566 ] final   45.74 input   -0.13 | X-H torsion
[ 2891 2887 2886 2883 ] final -146.98 input  179.98 | X-H torsion
[ 3175 3171 3170 3167 ] final  -82.55 input -179.99 | X-H torsion
[ 5278 5270 5269 5267 ] final  110.71 input    0.55 | X-H torsion
[  641  637  636  633 ] final -166.17 input  179.99 | X-H torsion
[ 1886 1878 1877 1875 ] final   36.36 input    1.60 | X-H torsion
[  965  957  956  954 ] final -128.89 input    0.45 | X-H torsion

>  <Gold.Protein.ActiveResidues>  (31) 
 LYS47   THR48   LEU49   GLY50   THR51   GLY52   SER53   PHE54   GLY55   ARG56  
 VAL57   MET58   LEU59   TYR69   ALA70   MET71   LYS72   ILE73   LEU74   GLU91  
 LEU95   VAL104  LYS105  MET118  VAL119  MET120  GLU121  TYR122  VAL123  PRO124 
 GLY125  GLY126  GLU127  MET128  PHE129  TYR164  ASP166  LEU167  LYS168  PRO169 
 GLU170  ASN171  LEU172  LEU173  ILE174  GLN181  VAL182  THR183  ASP184  PHE185 
 GLY186  PHE187  GLY200  THR201  ASN326  PHE327  TYR330  ARG18   ARG19   ASN20  
 ALA21   ILE22   HIS23  

>  <Gold.Protein.RotatedAtoms>  (31) 
   11.3602   19.2766    8.0242 H   0  0  0  0  0  0  0  0  0  0  0  0  # atno 641  bound_to 637 
   15.6247   13.1326    7.0982 H   0  0  0  0  0  0  0  0  0  0  0  0  # atno 681  bound_to 677 
   20.9148   11.5943   -1.7059 H   0  0  0  0  0  0  0  0  0  0  0  0  # atno 702  bound_to 698 
   -6.5796   16.9893   -1.2744 H   0  0  0  0  0  0  0  0  0  0  0  0  # atno 965  bound_to 957 
    2.1751   11.8576   10.4338 H   0  0  0  0  0  0  0  0  0  0  0  0  # atno 1886 bound_to 1878
    9.3205    2.8135   -3.0860 H   0  0  0  0  0  0  0  0  0  0  0  0  # atno 2577 bound_to 2569
    7.1992    6.2560    1.5792 H   0  0  0  0  0  0  0  0  0  0  0  0  # atno 2891 bound_to 2887
   19.2347    2.9806   -0.0619 H   0  0  0  0  0  0  0  0  0  0  0  0  # atno 3175 bound_to 3171
   13.6217   10.2399    8.7490 H   0  0  0  0  0  0  0  0  0  0  0  0  # atno 5278 bound_to 5270
   16.9923   13.9484    7.0855 LP  0  0  0  0  0  0  0  0  0  0  0  0  # atno 5914 bound_to 677 
   16.7364   12.7267    6.0326 LP  0  0  0  0  0  0  0  0  0  0  0  0  # atno 5915 bound_to 677 
   19.3609   11.8482   -1.4642 LP  0  0  0  0  0  0  0  0  0  0  0  0  # atno 5920 bound_to 698 
   20.3812   11.6430   -0.2058 LP  0  0  0  0  0  0  0  0  0  0  0  0  # atno 5921 bound_to 698 
   10.8585    3.2022   -3.2228 LP  0  0  0  0  0  0  0  0  0  0  0  0  # atno 5950 bound_to 2569
   10.3983    1.8997   -2.3521 LP  0  0  0  0  0  0  0  0  0  0  0  0  # atno 5951 bound_to 2569
    8.2581    6.7479    0.4960 LP  0  0  0  0  0  0  0  0  0  0  0  0  # atno 5982 bound_to 2887
    7.8400    5.1730    0.6030 LP  0  0  0  0  0  0  0  0  0  0  0  0  # atno 5983 bound_to 2887
   17.9445    2.0473   -0.0583 LP  0  0  0  0  0  0  0  0  0  0  0  0  # atno 6000 bound_to 3171
   18.7010    2.4247   -1.4554 LP  0  0  0  0  0  0  0  0  0  0  0  0  # atno 6001 bound_to 3171
   12.6701    9.9086    9.9824 LP  0  0  0  0  0  0  0  0  0  0  0  0  # atno 6004 bound_to 5270
   14.2944    9.8846   10.1483 LP  0  0  0  0  0  0  0  0  0  0  0  0  # atno 6005 bound_to 5270
   10.0636   19.7673    8.8071 LP  0  0  0  0  0  0  0  0  0  0  0  0  # atno 6055 bound_to 637 
    9.9367   19.0326    7.3543 LP  0  0  0  0  0  0  0  0  0  0  0  0  # atno 6056 bound_to 637 
    1.3668   10.4932   10.5764 LP  0  0  0  0  0  0  0  0  0  0  0  0  # atno 6063 bound_to 1878
    0.7288   11.9029   11.0981 LP  0  0  0  0  0  0  0  0  0  0  0  0  # atno 6064 bound_to 1878
   -7.2076   16.3741    0.0531 LP  0  0  0  0  0  0  0  0  0  0  0  0  # atno 6067 bound_to 957 
   -6.6708   15.4049   -1.1465 LP  0  0  0  0  0  0  0  0  0  0  0  0  # atno 6068 bound_to 957 

>  <STRIFE_LigEff_Score>  (31) 
2.890066666666667

$$$$
unknown|pharmsElabsTestPreDocking|sdf|9|dock5
     RDKit          3D

 18 19  0  0  0  0  0  0  0  0999 V2000
   14.2262    8.8925    1.6019 C   0  0  0  0  0  0  0  0  0  0  0  0
   13.4716    7.9303    2.5033 C   0  0  0  0  0  0  0  0  0  0  0  0
   13.8474    6.5288    2.3679 N   0  0  0  0  0  0  0  0  0  0  0  0
   11.9687    8.2435    2.7581 C   0  0  0  0  0  0  0  0  0  0  0  0
   11.1666    7.2994    3.6716 C   0  0  0  0  0  0  0  0  0  0  0  0
    9.6722    7.5176    3.3849 C   0  0  0  0  0  0  0  0  0  0  0  0
    9.2762    8.9843    3.6391 C   0  0  0  0  0  0  0  0  0  0  0  0
    7.8337    9.2116    3.2911 C   0  0  0  0  0  0  0  0  0  0  0  0
    7.5083    9.5000    2.1071 O   0  0  0  0  0  0  0  0  0  0  0  0
    6.8525    9.1230    4.3306 N   0  0  0  0  0  0  0  0  0  0  0  0
    5.4423    9.2892    4.1586 C   0  0  0  0  0  0  0  0  0  0  0  0
    4.8034    9.2345    2.9396 C   0  0  0  0  0  0  0  0  0  0  0  0
    3.4837    9.4392    3.2755 C   0  0  0  0  0  0  0  0  0  0  0  0
    2.3974    9.4735    2.3567 N   0  0  0  0  0  0  0  0  0  0  0  0
    3.3403    9.6048    4.6031 N   0  0  0  0  0  0  0  0  0  0  0  0
    4.5432    9.5125    5.1408 N   0  0  0  0  0  0  0  0  0  0  0  0
   10.1706    9.9878    2.8863 C   0  0  0  0  0  0  0  0  0  0  0  0
   11.6598    9.7053    3.1262 C   0  0  0  0  0  0  0  0  0  0  0  0
  1  2  1  0
  2  3  1  0
  2  4  1  0
  4  5  1  0
  5  6  1  0
  6  7  1  0
  7  8  1  0
  8  9  2  0
  8 10  1  0
 10 11  1  0
 11 12  2  0
 12 13  1  0
 13 14  1  0
 13 15  2  0
 15 16  1  0
  7 17  1  0
 17 18  1  0
 18  4  1  0
 16 11  1  0
M  CHG  1   3   1
M  END
>  <EmbedRMS>  (32) 
0.18315233489621047

>  <Gold.Version>  (32) 
2020.3.0

>  <Gold.Id.Protein>  (32) 
unknown|1q8t_protein|pdb

>  <Gold.PLP.Fitness>  (32) 
40.6958

>  <Gold.PLP.PLP>  (32) 
-35.1072

>  <Gold.PLP.part.hbond>  (32) 
-1.7183

>  <Gold.PLP.part.metal>  (32) 
0.0000

>  <Gold.PLP.part.buried>  (32) 
-7.0311

>  <Gold.PLP.part.nonpolar>  (32) 
-27.3309

>  <Gold.PLP.part.repulsive>  (32) 
0.3738

>  <Gold.PLP.ligand.clash>  (32) 
0.0000

>  <Gold.PLP.ligand.torsion>  (32) 
0.8824

>  <Gold.PLP.Chemscore.Hbond>  (32) 
2.3307

>  <Gold.PLP.Chemscore.CHOScore>  (32) 
0.0000

>  <Gold.PLP.Chemscore.Metal>  (32) 
0.0000

>  <Gold.Chemscore.Hbonds>  (32) 
donor molecule, donor type, donor heavy atom, donor atom, acceptor molecule, acceptor atom, score
      L1  H     3    24       P1  2691  1.00
      L1  H    14    35       P1  1855  0.36
      P1  H  1888  1903       L1    15  0.98

>  <Gold.PLP.Chemscore.Internal.Correction>  (32) 
0.3614

>  <Gold.PLP.Constraint>  (32) 
-0.0000

>  <Gold.Protein.RotatedTorsions>  (32) 
[  681  677  676  673 ] final  155.71 input -179.99 | X-H torsion
[  702  698  697  694 ] final    1.15 input  179.99 | X-H torsion
[ 2577 2569 2568 2566 ] final  179.10 input   -0.13 | X-H torsion
[ 2891 2887 2886 2883 ] final  -99.84 input  179.98 | X-H torsion
[ 3175 3171 3170 3167 ] final  -73.85 input -179.99 | X-H torsion
[ 5278 5270 5269 5267 ] final   11.91 input    0.55 | X-H torsion
[  641  637  636  633 ] final -174.57 input  179.99 | X-H torsion
[ 1886 1878 1877 1875 ] final  112.84 input    1.60 | X-H torsion
[  965  957  956  954 ] final   -0.60 input    0.45 | X-H torsion

>  <Gold.Protein.ActiveResidues>  (32) 
 LYS47   THR48   LEU49   GLY50   THR51   GLY52   SER53   PHE54   GLY55   ARG56  
 VAL57   MET58   LEU59   TYR69   ALA70   MET71   LYS72   ILE73   LEU74   GLU91  
 LEU95   VAL104  LYS105  MET118  VAL119  MET120  GLU121  TYR122  VAL123  PRO124 
 GLY125  GLY126  GLU127  MET128  PHE129  TYR164  ASP166  LEU167  LYS168  PRO169 
 GLU170  ASN171  LEU172  LEU173  ILE174  GLN181  VAL182  THR183  ASP184  PHE185 
 GLY186  PHE187  GLY200  THR201  ASN326  PHE327  TYR330  ARG18   ARG19   ASN20  
 ALA21   ILE22   HIS23  

>  <Gold.Protein.RotatedAtoms>  (32) 
   11.3608   19.3361    8.1410 H   0  0  0  0  0  0  0  0  0  0  0  0  # atno 641  bound_to 637 
   17.1907   13.7510    6.7412 H   0  0  0  0  0  0  0  0  0  0  0  0  # atno 681  bound_to 677 
   19.4858   11.8273   -0.6552 H   0  0  0  0  0  0  0  0  0  0  0  0  # atno 702  bound_to 698 
   -6.7144   15.4052   -1.0115 H   0  0  0  0  0  0  0  0  0  0  0  0  # atno 965  bound_to 957 
    1.2656   12.2795   10.9067 H   0  0  0  0  0  0  0  0  0  0  0  0  # atno 1886 bound_to 1878
   10.5832    1.9936   -2.4241 H   0  0  0  0  0  0  0  0  0  0  0  0  # atno 2577 bound_to 2569
    7.2066    5.5612    1.4042 H   0  0  0  0  0  0  0  0  0  0  0  0  # atno 2891 bound_to 2887
   19.2906    3.0062   -0.1831 H   0  0  0  0  0  0  0  0  0  0  0  0  # atno 3175 bound_to 3171
   12.6354   10.0057    9.6567 H   0  0  0  0  0  0  0  0  0  0  0  0  # atno 5278 bound_to 5270
   16.3249   12.5641    6.1265 LP  0  0  0  0  0  0  0  0  0  0  0  0  # atno 5914 bound_to 677 
   15.7556   13.4601    7.3674 LP  0  0  0  0  0  0  0  0  0  0  0  0  # atno 5915 bound_to 677 
   21.0508   11.5338   -0.6982 LP  0  0  0  0  0  0  0  0  0  0  0  0  # atno 5920 bound_to 698 
   20.1945   11.7122   -2.0772 LP  0  0  0  0  0  0  0  0  0  0  0  0  # atno 5921 bound_to 698 
    9.2372    2.6536   -2.9607 LP  0  0  0  0  0  0  0  0  0  0  0  0  # atno 5950 bound_to 2569
   10.6901    3.3116   -3.3111 LP  0  0  0  0  0  0  0  0  0  0  0  0  # atno 5951 bound_to 2569
    7.8207    6.9899    1.0606 LP  0  0  0  0  0  0  0  0  0  0  0  0  # atno 5982 bound_to 2887
    8.2696    5.6622    0.2226 LP  0  0  0  0  0  0  0  0  0  0  0  0  # atno 5983 bound_to 2887
   18.0009    2.1045    0.0600 LP  0  0  0  0  0  0  0  0  0  0  0  0  # atno 6000 bound_to 3171
   18.5857    2.3405   -1.4463 LP  0  0  0  0  0  0  0  0  0  0  0  0  # atno 6001 bound_to 3171
   14.0431    9.8249   10.3796 LP  0  0  0  0  0  0  0  0  0  0  0  0  # atno 6004 bound_to 5270
   13.9592   10.2146    8.7960 LP  0  0  0  0  0  0  0  0  0  0  0  0  # atno 6005 bound_to 5270
    9.9439   19.7415    8.7434 LP  0  0  0  0  0  0  0  0  0  0  0  0  # atno 6055 bound_to 637 
   10.0557   18.9957    7.2950 LP  0  0  0  0  0  0  0  0  0  0  0  0  # atno 6056 bound_to 637 
    2.2598   11.1927   10.3020 LP  0  0  0  0  0  0  0  0  0  0  0  0  # atno 6063 bound_to 1878
    0.7932   10.7592   10.8746 LP  0  0  0  0  0  0  0  0  0  0  0  0  # atno 6064 bound_to 1878
   -6.5403   16.9391   -1.4012 LP  0  0  0  0  0  0  0  0  0  0  0  0  # atno 6067 bound_to 957 
   -7.1962   16.5081    0.0309 LP  0  0  0  0  0  0  0  0  0  0  0  0  # atno 6068 bound_to 957 

>  <STRIFE_LigEff_Score>  (32) 
2.2608777777777775

$$$$
unknown|pharmsElabsTestPreDocking|sdf|33|dock2
     RDKit          3D

 16 16  0  0  0  0  0  0  0  0999 V2000
    4.7655    8.9011    3.1933 C   0  0  0  0  0  0  0  0  0  0  0  0
    4.9379    9.4365    4.6044 C   0  0  0  0  0  0  0  0  0  0  0  0
    3.6382    9.7953    5.3071 C   0  0  0  0  0  0  0  0  0  0  0  0
    6.0713   10.4212    4.9182 C   0  0  0  0  0  0  0  0  0  0  0  0
    7.4155    9.9080    4.6904 N   0  0  0  0  0  0  0  0  0  0  0  0
    7.8257    9.4796    3.3855 C   0  0  0  0  0  0  0  0  0  0  0  0
    7.2089    9.8822    2.3586 O   0  0  0  0  0  0  0  0  0  0  0  0
    9.0233    8.5822    3.2400 C   0  0  0  0  0  0  0  0  0  0  0  0
    9.3783    8.3944    1.7656 C   0  0  0  0  0  0  0  0  0  0  0  0
   10.4994    7.3806    1.5856 C   0  0  0  0  0  0  0  0  0  0  0  0
   11.6980    7.5256    2.5616 C   0  0  0  0  0  0  0  0  0  0  0  0
   13.1203    7.7193    2.0003 C   0  0  0  0  0  0  0  0  0  0  0  0
   14.3001    7.5736    2.9612 C   0  0  0  0  0  0  0  0  0  0  0  0
   13.2410    8.9469    1.2018 N   0  0  0  0  0  0  0  0  0  0  0  0
   11.4469    8.2829    3.9013 C   0  0  0  0  0  0  0  0  0  0  0  0
   10.2182    9.1863    3.9674 C   0  0  0  0  0  0  0  0  0  0  0  0
  1  2  1  0
  2  3  1  0
  2  4  1  0
  4  5  1  0
  5  6  1  0
  6  7  2  0
  6  8  1  0
  8  9  1  0
  9 10  1  0
 10 11  1  0
 11 12  1  0
 12 13  1  0
 12 14  1  0
 11 15  1  0
 15 16  1  0
 16  8  1  0
M  CHG  1  14   1
M  END
>  <EmbedRMS>  (33) 
0.28373172213554615

>  <Gold.Version>  (33) 
2020.3.0

>  <Gold.Id.Protein>  (33) 
unknown|1q8t_protein|pdb

>  <Gold.PLP.Fitness>  (33) 
46.2163

>  <Gold.PLP.PLP>  (33) 
-40.5241

>  <Gold.PLP.part.hbond>  (33) 
-1.0000

>  <Gold.PLP.part.metal>  (33) 
0.0000

>  <Gold.PLP.part.buried>  (33) 
-3.1568

>  <Gold.PLP.part.nonpolar>  (33) 
-36.5459

>  <Gold.PLP.part.repulsive>  (33) 
0.0000

>  <Gold.PLP.ligand.clash>  (33) 
0.0000

>  <Gold.PLP.ligand.torsion>  (33) 
0.4028

>  <Gold.PLP.Chemscore.Hbond>  (33) 
2.0000

>  <Gold.PLP.Chemscore.CHOScore>  (33) 
0.0000

>  <Gold.PLP.Chemscore.Metal>  (33) 
0.0000

>  <Gold.Chemscore.Hbonds>  (33) 
donor molecule, donor type, donor heavy atom, donor atom, acceptor molecule, acceptor atom, score
      L1  H    14    37       P1  2902  2.00

>  <Gold.PLP.Chemscore.Internal.Correction>  (33) 
0.4978

>  <Gold.PLP.Constraint>  (33) 
-0.0000

>  <Gold.Protein.RotatedTorsions>  (33) 
[  681  677  676  673 ] final  130.44 input -179.99 | X-H torsion
[  702  698  697  694 ] final   65.84 input  179.99 | X-H torsion
[ 2577 2569 2568 2566 ] final   46.89 input   -0.13 | X-H torsion
[ 2891 2887 2886 2883 ] final -164.40 input  179.98 | X-H torsion
[ 3175 3171 3170 3167 ] final  149.80 input -179.99 | X-H torsion
[ 5278 5270 5269 5267 ] final    0.76 input    0.55 | X-H torsion
[  641  637  636  633 ] final  -83.23 input  179.99 | X-H torsion
[ 1886 1878 1877 1875 ] final -115.57 input    1.60 | X-H torsion
[  965  957  956  954 ] final  100.33 input    0.45 | X-H torsion

>  <Gold.Protein.ActiveResidues>  (33) 
 LYS47   THR48   LEU49   GLY50   THR51   GLY52   SER53   PHE54   GLY55   ARG56  
 VAL57   MET58   LEU59   TYR69   ALA70   MET71   LYS72   ILE73   LEU74   GLU91  
 LEU95   VAL104  LYS105  MET118  VAL119  MET120  GLU121  TYR122  VAL123  PRO124 
 GLY125  GLY126  GLU127  MET128  PHE129  TYR164  ASP166  LEU167  LYS168  PRO169 
 GLU170  ASN171  LEU172  LEU173  ILE174  GLN181  VAL182  THR183  ASP184  PHE185 
 GLY186  PHE187  GLY200  THR201  ASN326  PHE327  TYR330  ARG18   ARG19   ASN20  
 ALA21   ILE22   HIS23  

>  <Gold.Protein.RotatedAtoms>  (33) 
   10.5092   18.9392    7.2705 H   0  0  0  0  0  0  0  0  0  0  0  0  # atno 641  bound_to 637 
   17.2514   13.4956    6.4503 H   0  0  0  0  0  0  0  0  0  0  0  0  # atno 681  bound_to 677 
   19.4885   11.8453   -1.6141 H   0  0  0  0  0  0  0  0  0  0  0  0  # atno 702  bound_to 698 
   -7.1758   16.2004    0.0190 H   0  0  0  0  0  0  0  0  0  0  0  0  # atno 965  bound_to 957 
    0.9411   10.6837   10.7776 H   0  0  0  0  0  0  0  0  0  0  0  0  # atno 1886 bound_to 1878
    9.3156    2.7991   -3.0764 H   0  0  0  0  0  0  0  0  0  0  0  0  # atno 2577 bound_to 2569
    7.2931    6.5059    1.5304 H   0  0  0  0  0  0  0  0  0  0  0  0  # atno 2891 bound_to 2887
   17.9546    2.0161   -0.1867 H   0  0  0  0  0  0  0  0  0  0  0  0  # atno 3175 bound_to 3171
   12.6612    9.9647    9.8240 H   0  0  0  0  0  0  0  0  0  0  0  0  # atno 5278 bound_to 5270
   15.9707   12.5558    6.3376 LP  0  0  0  0  0  0  0  0  0  0  0  0  # atno 5914 bound_to 677 
   16.0459   13.7373    7.4624 LP  0  0  0  0  0  0  0  0  0  0  0  0  # atno 5915 bound_to 677 
   20.1892   11.6768   -0.1935 LP  0  0  0  0  0  0  0  0  0  0  0  0  # atno 5920 bound_to 698 
   21.0533   11.5503   -1.5733 LP  0  0  0  0  0  0  0  0  0  0  0  0  # atno 5921 bound_to 698 
   10.8454    3.2129   -3.2312 LP  0  0  0  0  0  0  0  0  0  0  0  0  # atno 5950 bound_to 2569
   10.4166    1.9041   -2.3538 LP  0  0  0  0  0  0  0  0  0  0  0  0  # atno 5951 bound_to 2569
    8.3488    6.5279    0.3382 LP  0  0  0  0  0  0  0  0  0  0  0  0  # atno 5982 bound_to 2887
    7.6504    5.1300    0.8122 LP  0  0  0  0  0  0  0  0  0  0  0  0  # atno 5983 bound_to 2887
   18.8010    2.5000   -1.4457 LP  0  0  0  0  0  0  0  0  0  0  0  0  # atno 6000 bound_to 3171
   19.1917    2.9870    0.0632 LP  0  0  0  0  0  0  0  0  0  0  0  0  # atno 6001 bound_to 3171
   14.1864    9.8537   10.2691 LP  0  0  0  0  0  0  0  0  0  0  0  0  # atno 6004 bound_to 5270
   13.7887   10.2290    8.7305 LP  0  0  0  0  0  0  0  0  0  0  0  0  # atno 6005 bound_to 5270
   11.2629   19.5583    8.5289 LP  0  0  0  0  0  0  0  0  0  0  0  0  # atno 6055 bound_to 637 
    9.6336   19.5969    8.4263 LP  0  0  0  0  0  0  0  0  0  0  0  0  # atno 6056 bound_to 637 
    1.0970   12.2532   10.9955 LP  0  0  0  0  0  0  0  0  0  0  0  0  # atno 6063 bound_to 1878
    2.2976   11.3787   10.3170 LP  0  0  0  0  0  0  0  0  0  0  0  0  # atno 6064 bound_to 1878
   -6.6059   15.4908   -1.2874 LP  0  0  0  0  0  0  0  0  0  0  0  0  # atno 6067 bound_to 957 
   -6.6447   17.1190   -1.1681 LP  0  0  0  0  0  0  0  0  0  0  0  0  # atno 6068 bound_to 957 

>  <STRIFE_LigEff_Score>  (33) 
2.88851875

$$$$
unknown|pharmsElabsTestPreDocking|sdf|34|dock1
     RDKit          3D

 18 19  0  0  0  0  0  0  0  0999 V2000
   13.9346    9.2618    1.6566 C   0  0  0  0  0  0  0  0  0  0  0  0
   13.0961    8.0430    2.0379 C   0  0  0  0  0  0  0  0  0  0  0  0
   12.9421    7.1068    0.9224 N   0  0  0  0  0  0  0  0  0  0  0  0
   11.7718    8.2703    2.8086 C   0  0  0  0  0  0  0  0  0  0  0  0
   10.7142    7.1864    2.5526 C   0  0  0  0  0  0  0  0  0  0  0  0
    9.2755    7.5509    2.8851 C   0  0  0  0  0  0  0  0  0  0  0  0
    8.9223    8.9607    2.4816 C   0  0  0  0  0  0  0  0  0  0  0  0
    7.4482    9.2538    2.4950 C   0  0  0  0  0  0  0  0  0  0  0  0
    7.0547    9.9800    1.5515 O   0  0  0  0  0  0  0  0  0  0  0  0
    6.4991    8.8101    3.4864 N   0  0  0  0  0  0  0  0  0  0  0  0
    5.0752    9.0200    3.3209 C   0  0  0  0  0  0  0  0  0  0  0  0
    4.3790    8.8985    2.1338 C   0  0  0  0  0  0  0  0  0  0  0  0
    3.0756    9.2334    2.4641 C   0  0  0  0  0  0  0  0  0  0  0  0
    3.0055    9.5567    3.7710 N   0  0  0  0  0  0  0  0  0  0  0  0
    4.2194    9.4348    4.2854 N   0  0  0  0  0  0  0  0  0  0  0  0
    4.5276    9.8194    5.6591 C   0  0  0  0  0  0  0  0  0  0  0  0
    9.8433   10.0465    2.9635 C   0  0  0  0  0  0  0  0  0  0  0  0
   11.3078    9.7430    2.6555 C   0  0  0  0  0  0  0  0  0  0  0  0
  1  2  1  0
  2  3  1  0
  2  4  1  0
  4  5  1  0
  5  6  1  0
  6  7  1  0
  7  8  1  0
  8  9  2  0
  8 10  1  0
 10 11  1  0
 11 12  2  0
 12 13  1  0
 13 14  2  0
 14 15  1  0
 15 16  1  0
  7 17  1  0
 17 18  1  0
 18  4  1  0
 15 11  1  0
M  CHG  1   3   1
M  END
>  <EmbedRMS>  (34) 
0.2930144483433324

>  <Gold.Version>  (34) 
2020.3.0

>  <Gold.Id.Protein>  (34) 
unknown|1q8t_protein|pdb

>  <Gold.PLP.Fitness>  (34) 
53.2647

>  <Gold.PLP.PLP>  (34) 
-43.0837

>  <Gold.PLP.part.hbond>  (34) 
-2.5338

>  <Gold.PLP.part.metal>  (34) 
0.0000

>  <Gold.PLP.part.buried>  (34) 
-2.3601

>  <Gold.PLP.part.nonpolar>  (34) 
-39.1288

>  <Gold.PLP.part.repulsive>  (34) 
0.1854

>  <Gold.PLP.ligand.clash>  (34) 
0.0000

>  <Gold.PLP.ligand.torsion>  (34) 
1.9962

>  <Gold.PLP.Chemscore.Hbond>  (34) 
3.4400

>  <Gold.PLP.Chemscore.CHOScore>  (34) 
1.0000

>  <Gold.PLP.Chemscore.Metal>  (34) 
0.0000

>  <Gold.Chemscore.Hbonds>  (34) 
donor molecule, donor type, donor heavy atom, donor atom, acceptor molecule, acceptor atom, score
      L1  H     3    23       P1  2691  0.45
      L1  H     3    25       P1  2902  2.00
      P1  H  1888  1903       L1    14  0.99
      L1  C    13    34       P1  1855  1.00

>  <Gold.PLP.Chemscore.Internal.Correction>  (34) 
0.8533

>  <Gold.PLP.Constraint>  (34) 
-0.0000

>  <Gold.Protein.RotatedTorsions>  (34) 
[  681  677  676  673 ] final  -17.78 input -179.99 | X-H torsion
[  702  698  697  694 ] final   99.75 input  179.99 | X-H torsion
[ 2577 2569 2568 2566 ] final   44.88 input   -0.13 | X-H torsion
[ 2891 2887 2886 2883 ] final  163.60 input  179.98 | X-H torsion
[ 3175 3171 3170 3167 ] final   33.74 input -179.99 | X-H torsion
[ 5278 5270 5269 5267 ] final -165.51 input    0.55 | X-H torsion
[  641  637  636  633 ] final  130.75 input  179.99 | X-H torsion
[ 1886 1878 1877 1875 ] final  -15.15 input    1.60 | X-H torsion
[  965  957  956  954 ] final   86.12 input    0.45 | X-H torsion

>  <Gold.Protein.ActiveResidues>  (34) 
 LYS47   THR48   LEU49   GLY50   THR51   GLY52   SER53   PHE54   GLY55   ARG56  
 VAL57   MET58   LEU59   TYR69   ALA70   MET71   LYS72   ILE73   LEU74   GLU91  
 LEU95   VAL104  LYS105  MET118  VAL119  MET120  GLU121  TYR122  VAL123  PRO124 
 GLY125  GLY126  GLU127  MET128  PHE129  TYR164  ASP166  LEU167  LYS168  PRO169 
 GLU170  ASN171  LEU172  LEU173  ILE174  GLN181  VAL182  THR183  ASP184  PHE185 
 GLY186  PHE187  GLY200  THR201  ASN326  PHE327  TYR330  ARG18   ARG19   ASN20  
 ALA21   ILE22   HIS23  

>  <Gold.Protein.RotatedAtoms>  (34) 
   10.9345   19.6747    8.7574 H   0  0  0  0  0  0  0  0  0  0  0  0  # atno 641  bound_to 637 
   15.7147   12.7441    6.6573 H   0  0  0  0  0  0  0  0  0  0  0  0  # atno 681  bound_to 677 
   19.8797   11.7826   -1.9551 H   0  0  0  0  0  0  0  0  0  0  0  0  # atno 702  bound_to 698 
   -7.1592   15.9834   -0.0219 H   0  0  0  0  0  0  0  0  0  0  0  0  # atno 965  bound_to 957 
    2.1684   11.0900   10.3058 H   0  0  0  0  0  0  0  0  0  0  0  0  # atno 1886 bound_to 1878
    9.3244    2.8242   -3.0931 H   0  0  0  0  0  0  0  0  0  0  0  0  # atno 2577 bound_to 2569
    7.5652    6.8451    1.2964 H   0  0  0  0  0  0  0  0  0  0  0  0  # atno 2891 bound_to 2887
   18.7542    2.4490   -1.4043 H   0  0  0  0  0  0  0  0  0  0  0  0  # atno 3175 bound_to 3171
   14.4262   10.0357    9.6109 H   0  0  0  0  0  0  0  0  0  0  0  0  # atno 5278 bound_to 5270
   16.4558   13.9377    7.4072 LP  0  0  0  0  0  0  0  0  0  0  0  0  # atno 5914 bound_to 677 
   17.1782   13.1462    6.1750 LP  0  0  0  0  0  0  0  0  0  0  0  0  # atno 5915 bound_to 677 
   19.6787   11.7708   -0.3749 LP  0  0  0  0  0  0  0  0  0  0  0  0  # atno 5920 bound_to 698 
   21.1523   11.5223   -1.0331 LP  0  0  0  0  0  0  0  0  0  0  0  0  # atno 5921 bound_to 698 
   10.8682    3.1941   -3.2165 LP  0  0  0  0  0  0  0  0  0  0  0  0  # atno 5950 bound_to 2569
   10.3845    1.8965   -2.3509 LP  0  0  0  0  0  0  0  0  0  0  0  0  # atno 5951 bound_to 2569
    8.3723    6.0298    0.1917 LP  0  0  0  0  0  0  0  0  0  0  0  0  # atno 5982 bound_to 2887
    7.3406    5.2710    1.2049 LP  0  0  0  0  0  0  0  0  0  0  0  0  # atno 5983 bound_to 2887
   19.2259    3.0055    0.0111 LP  0  0  0  0  0  0  0  0  0  0  0  0  # atno 6000 bound_to 3171
   17.9252    2.0259   -0.1122 LP  0  0  0  0  0  0  0  0  0  0  0  0  # atno 6001 bound_to 3171
   13.0539   10.1995    8.8192 LP  0  0  0  0  0  0  0  0  0  0  0  0  # atno 6004 bound_to 5270
   13.0641    9.8085   10.4046 LP  0  0  0  0  0  0  0  0  0  0  0  0  # atno 6005 bound_to 5270
    9.5282   19.4145    8.0576 LP  0  0  0  0  0  0  0  0  0  0  0  0  # atno 6055 bound_to 637 
   10.9205   18.9661    7.3317 LP  0  0  0  0  0  0  0  0  0  0  0  0  # atno 6056 bound_to 637 
    0.7196   10.8562   10.9236 LP  0  0  0  0  0  0  0  0  0  0  0  0  # atno 6063 bound_to 1878
    1.3830   12.3479   10.8855 LP  0  0  0  0  0  0  0  0  0  0  0  0  # atno 6064 bound_to 1878
   -6.5323   15.6453   -1.4459 LP  0  0  0  0  0  0  0  0  0  0  0  0  # atno 6067 bound_to 957 
   -6.7357   17.1930   -0.9666 LP  0  0  0  0  0  0  0  0  0  0  0  0  # atno 6068 bound_to 957 

>  <STRIFE_LigEff_Score>  (34) 
2.9591499999999997

$$$$
unknown|pharmsElabsTestPreDocking|sdf|35|dock6
     RDKit          3D

 17 18  0  0  0  0  0  0  0  0999 V2000
   14.5791    8.0196    2.7613 C   0  0  0  0  0  0  0  0  0  0  0  0
   13.2215    7.9386    2.0648 C   0  0  0  0  0  0  0  0  0  0  0  0
   13.1422    8.8267    0.9033 N   0  0  0  0  0  0  0  0  0  0  0  0
   11.9421    7.9868    2.9358 C   0  0  0  0  0  0  0  0  0  0  0  0
   10.8059    7.0969    2.4113 C   0  0  0  0  0  0  0  0  0  0  0  0
    9.4090    7.4176    2.9153 C   0  0  0  0  0  0  0  0  0  0  0  0
    9.1431    8.9001    2.9872 C   0  0  0  0  0  0  0  0  0  0  0  0
    7.6941    9.2517    3.1482 C   0  0  0  0  0  0  0  0  0  0  0  0
    7.4768   10.0909    4.0511 O   0  0  0  0  0  0  0  0  0  0  0  0
    6.5914    8.7212    2.3815 N   0  0  0  0  0  0  0  0  0  0  0  0
    5.2088    9.0337    2.6897 C   0  0  0  0  0  0  0  0  0  0  0  0
    4.6374    9.2450    3.9436 C   0  0  0  0  0  0  0  0  0  0  0  0
    3.3023    9.4931    3.7206 C   0  0  0  0  0  0  0  0  0  0  0  0
    3.0345    9.4400    2.4039 N   0  0  0  0  0  0  0  0  0  0  0  0
    4.1882    9.1601    1.7668 C   0  0  0  0  0  0  0  0  0  0  0  0
   10.1466    9.7306    3.7345 C   0  0  0  0  0  0  0  0  0  0  0  0
   11.5767    9.4571    3.2731 C   0  0  0  0  0  0  0  0  0  0  0  0
  1  2  1  0
  2  3  1  0
  2  4  1  0
  4  5  1  0
  5  6  1  0
  6  7  1  0
  7  8  1  0
  8  9  2  0
  8 10  1  0
 10 11  1  0
 11 12  1  0
 12 13  2  0
 13 14  1  0
 14 15  1  0
  7 16  1  0
 16 17  1  0
 17  4  1  0
 15 11  2  0
M  CHG  1   3   1
M  END
>  <EmbedRMS>  (35) 
0.3005329260886256

>  <Gold.Version>  (35) 
2020.3.0

>  <Gold.Id.Protein>  (35) 
unknown|1q8t_protein|pdb

>  <Gold.PLP.Fitness>  (35) 
48.9875

>  <Gold.PLP.PLP>  (35) 
-40.9130

>  <Gold.PLP.part.hbond>  (35) 
-2.5325

>  <Gold.PLP.part.metal>  (35) 
0.0000

>  <Gold.PLP.part.buried>  (35) 
-4.0500

>  <Gold.PLP.part.nonpolar>  (35) 
-34.2949

>  <Gold.PLP.part.repulsive>  (35) 
0.0849

>  <Gold.PLP.ligand.clash>  (35) 
0.0000

>  <Gold.PLP.ligand.torsion>  (35) 
0.9523

>  <Gold.PLP.Chemscore.Hbond>  (35) 
3.1170

>  <Gold.PLP.Chemscore.CHOScore>  (35) 
0.0000

>  <Gold.PLP.Chemscore.Metal>  (35) 
0.0000

>  <Gold.Chemscore.Hbonds>  (35) 
donor molecule, donor type, donor heavy atom, donor atom, acceptor molecule, acceptor atom, score
      L1  H     3    23       P1  2902  2.00
      L1  H    10    31       P1  2887  0.12
      L1  H    14    34       P1  1855  1.00

>  <Gold.PLP.Chemscore.Internal.Correction>  (35) 
0.6281

>  <Gold.PLP.Constraint>  (35) 
-0.0000

>  <Gold.Protein.RotatedTorsions>  (35) 
[  681  677  676  673 ] final   87.76 input -179.99 | X-H torsion
[  702  698  697  694 ] final   52.59 input  179.99 | X-H torsion
[ 2577 2569 2568 2566 ] final   53.99 input   -0.13 | X-H torsion
[ 2891 2887 2886 2883 ] final   -8.95 input  179.98 | X-H torsion
[ 3175 3171 3170 3167 ] final  130.41 input -179.99 | X-H torsion
[ 5278 5270 5269 5267 ] final   -3.98 input    0.55 | X-H torsion
[  641  637  636  633 ] final  -32.46 input  179.99 | X-H torsion
[ 1886 1878 1877 1875 ] final  -49.18 input    1.60 | X-H torsion
[  965  957  956  954 ] final  -15.48 input    0.45 | X-H torsion

>  <Gold.Protein.ActiveResidues>  (35) 
 LYS47   THR48   LEU49   GLY50   THR51   GLY52   SER53   PHE54   GLY55   ARG56  
 VAL57   MET58   LEU59   TYR69   ALA70   MET71   LYS72   ILE73   LEU74   GLU91  
 LEU95   VAL104  LYS105  MET118  VAL119  MET120  GLU121  TYR122  VAL123  PRO124 
 GLY125  GLY126  GLU127  MET128  PHE129  TYR164  ASP166  LEU167  LYS168  PRO169 
 GLU170  ASN171  LEU172  LEU173  ILE174  GLN181  VAL182  THR183  ASP184  PHE185 
 GLY186  PHE187  GLY200  THR201  ASN326  PHE327  TYR330  ARG18   ARG19   ASN20  
 ALA21   ILE22   HIS23  

>  <Gold.Protein.RotatedAtoms>  (35) 
    9.8024   19.1058    7.5193 H   0  0  0  0  0  0  0  0  0  0  0  0  # atno 641  bound_to 637 
   17.0066   12.9976    6.1082 H   0  0  0  0  0  0  0  0  0  0  0  0  # atno 681  bound_to 677 
   19.3996   11.8575   -1.4278 H   0  0  0  0  0  0  0  0  0  0  0  0  # atno 702  bound_to 698 
   -6.6251   15.4948   -1.2057 H   0  0  0  0  0  0  0  0  0  0  0  0  # atno 965  bound_to 957 
    1.8387   10.6900   10.3829 H   0  0  0  0  0  0  0  0  0  0  0  0  # atno 1886 bound_to 1878
    9.2932    2.7092   -3.0156 H   0  0  0  0  0  0  0  0  0  0  0  0  # atno 2577 bound_to 2569
    8.0026    5.3435    0.4300 H   0  0  0  0  0  0  0  0  0  0  0  0  # atno 2891 bound_to 2887
   17.9225    1.9539   -0.4802 H   0  0  0  0  0  0  0  0  0  0  0  0  # atno 3175 bound_to 3171
   12.6822    9.9479    9.8930 H   0  0  0  0  0  0  0  0  0  0  0  0  # atno 5278 bound_to 5270
   15.6035   12.8373    6.8442 LP  0  0  0  0  0  0  0  0  0  0  0  0  # atno 5914 bound_to 677 
   16.6707   13.9799    7.3158 LP  0  0  0  0  0  0  0  0  0  0  0  0  # atno 5915 bound_to 677 
   20.4028   11.6393   -0.2098 LP  0  0  0  0  0  0  0  0  0  0  0  0  # atno 5920 bound_to 698 
   20.9332   11.5750   -1.7529 LP  0  0  0  0  0  0  0  0  0  0  0  0  # atno 5921 bound_to 698 
   10.7584    3.2737   -3.2798 LP  0  0  0  0  0  0  0  0  0  0  0  0  # atno 5950 bound_to 2569
   10.5272    1.9380   -2.3693 LP  0  0  0  0  0  0  0  0  0  0  0  0  # atno 5951 bound_to 2569
    7.1364    5.9721    1.6094 LP  0  0  0  0  0  0  0  0  0  0  0  0  # atno 5982 bound_to 2887
    8.1161    6.9091    0.6990 LP  0  0  0  0  0  0  0  0  0  0  0  0  # atno 5983 bound_to 2887
   19.0376    2.6880   -1.3481 LP  0  0  0  0  0  0  0  0  0  0  0  0  # atno 6000 bound_to 3171
   18.9888    2.8644    0.2746 LP  0  0  0  0  0  0  0  0  0  0  0  0  # atno 6001 bound_to 3171
   14.2401    9.8677   10.2144 LP  0  0  0  0  0  0  0  0  0  0  0  0  # atno 6004 bound_to 5270
   13.7129   10.2326    8.7126 LP  0  0  0  0  0  0  0  0  0  0  0  0  # atno 6005 bound_to 5270
   11.3642   19.1891    7.8169 LP  0  0  0  0  0  0  0  0  0  0  0  0  # atno 6055 bound_to 637 
   10.2767   19.7907    8.8761 LP  0  0  0  0  0  0  0  0  0  0  0  0  # atno 6056 bound_to 637 
    0.5742   11.3666   11.0747 LP  0  0  0  0  0  0  0  0  0  0  0  0  # atno 6063 bound_to 1878
    1.8754   12.2587   10.6532 LP  0  0  0  0  0  0  0  0  0  0  0  0  # atno 6064 bound_to 1878
   -6.6197   17.0869   -1.2238 LP  0  0  0  0  0  0  0  0  0  0  0  0  # atno 6067 bound_to 957 
   -7.2109   16.2660    0.0581 LP  0  0  0  0  0  0  0  0  0  0  0  0  # atno 6068 bound_to 957 

>  <STRIFE_LigEff_Score>  (35) 
2.8816176470588233

$$$$
unknown|pharmsElabsTestPreDocking|sdf|36|dock6
     RDKit          3D

 18 19  0  0  0  0  0  0  0  0999 V2000
   15.1407    9.1994    0.8024 C   0  0  0  0  0  0  0  0  0  0  0  0
   14.4338    8.0349    1.4960 C   0  0  0  0  0  0  0  0  0  0  0  0
   14.1604    6.9461    0.5481 N   0  0  0  0  0  0  0  0  0  0  0  0
   13.2173    8.3510    2.3879 C   0  0  0  0  0  0  0  0  0  0  0  0
   12.2379    7.2132    2.7825 C   0  0  0  0  0  0  0  0  0  0  0  0
   10.7838    7.4346    2.3938 C   0  0  0  0  0  0  0  0  0  0  0  0
   10.3263    8.8530    2.7257 C   0  0  0  0  0  0  0  0  0  0  0  0
    8.8523    9.0010    2.4691 C   0  0  0  0  0  0  0  0  0  0  0  0
    8.4023    8.8581    1.2994 O   0  0  0  0  0  0  0  0  0  0  0  0
    7.9817    9.3291    3.5597 N   0  0  0  0  0  0  0  0  0  0  0  0
    6.5614    9.4779    3.4613 C   0  0  0  0  0  0  0  0  0  0  0  0
    5.6519    9.8110    4.4520 C   0  0  0  0  0  0  0  0  0  0  0  0
    4.4203    9.8299    3.9091 N   0  0  0  0  0  0  0  0  0  0  0  0
    4.5395    9.5315    2.6239 N   0  0  0  0  0  0  0  0  0  0  0  0
    3.4146    9.4268    1.7082 C   0  0  0  0  0  0  0  0  0  0  0  0
    5.8263    9.2994    2.3136 C   0  0  0  0  0  0  0  0  0  0  0  0
   11.1115    9.8436    1.8734 C   0  0  0  0  0  0  0  0  0  0  0  0
   12.6128    9.7674    2.1420 C   0  0  0  0  0  0  0  0  0  0  0  0
  1  2  1  0
  2  3  1  0
  2  4  1  0
  4  5  1  0
  5  6  1  0
  6  7  1  0
  7  8  1  0
  8  9  2  0
  8 10  1  0
 10 11  1  0
 11 12  1  0
 12 13  2  0
 13 14  1  0
 14 15  1  0
 14 16  1  0
  7 17  1  0
 17 18  1  0
 18  4  1  0
 16 11  2  0
M  CHG  1   3   1
M  END
>  <EmbedRMS>  (36) 
0.202216898800577

>  <Gold.Version>  (36) 
2020.3.0

>  <Gold.Id.Protein>  (36) 
unknown|1q8t_protein|pdb

>  <Gold.PLP.Fitness>  (36) 
49.0453

>  <Gold.PLP.PLP>  (36) 
-38.5743

>  <Gold.PLP.part.hbond>  (36) 
-3.0000

>  <Gold.PLP.part.metal>  (36) 
0.0000

>  <Gold.PLP.part.buried>  (36) 
-3.7030

>  <Gold.PLP.part.nonpolar>  (36) 
-32.1982

>  <Gold.PLP.part.repulsive>  (36) 
0.1258

>  <Gold.PLP.ligand.clash>  (36) 
0.0000

>  <Gold.PLP.ligand.torsion>  (36) 
0.9219

>  <Gold.PLP.Chemscore.Hbond>  (36) 
3.9760

>  <Gold.PLP.Chemscore.CHOScore>  (36) 
0.0000

>  <Gold.PLP.Chemscore.Metal>  (36) 
0.0000

>  <Gold.Chemscore.Hbonds>  (36) 
donor molecule, donor type, donor heavy atom, donor atom, acceptor molecule, acceptor atom, score
      L1  H     3    24       P1  2902  2.00
      L1  H     3    25       P1  2691  1.00
      P1  H  2887  2891       L1     9  0.98

>  <Gold.PLP.Chemscore.Internal.Correction>  (36) 
0.3868

>  <Gold.PLP.Constraint>  (36) 
-0.0000

>  <Gold.Protein.RotatedTorsions>  (36) 
[  681  677  676  673 ] final  150.29 input -179.99 | X-H torsion
[  702  698  697  694 ] final -117.47 input  179.99 | X-H torsion
[ 2577 2569 2568 2566 ] final -127.45 input   -0.13 | X-H torsion
[ 2891 2887 2886 2883 ] final  111.53 input  179.98 | X-H torsion
[ 3175 3171 3170 3167 ] final -110.12 input -179.99 | X-H torsion
[ 5278 5270 5269 5267 ] final  -18.66 input    0.55 | X-H torsion
[  641  637  636  633 ] final   24.10 input  179.99 | X-H torsion
[ 1886 1878 1877 1875 ] final -172.60 input    1.60 | X-H torsion
[  965  957  956  954 ] final  123.67 input    0.45 | X-H torsion

>  <Gold.Protein.ActiveResidues>  (36) 
 LYS47   THR48   LEU49   GLY50   THR51   GLY52   SER53   PHE54   GLY55   ARG56  
 VAL57   MET58   LEU59   TYR69   ALA70   MET71   LYS72   ILE73   LEU74   GLU91  
 LEU95   VAL104  LYS105  MET118  VAL119  MET120  GLU121  TYR122  VAL123  PRO124 
 GLY125  GLY126  GLU127  MET128  PHE129  TYR164  ASP166  LEU167  LYS168  PRO169 
 GLU170  ASN171  LEU172  LEU173  ILE174  GLN181  VAL182  THR183  ASP184  PHE185 
 GLY186  PHE187  GLY200  THR201  ASN326  PHE327  TYR330  ARG18   ARG19   ASN20  
 ALA21   ILE22   HIS23  

>  <Gold.Protein.RotatedAtoms>  (36) 
    9.6039   19.4896    8.2494 H   0  0  0  0  0  0  0  0  0  0  0  0  # atno 641  bound_to 637 
   17.2167   13.7025    6.6769 H   0  0  0  0  0  0  0  0  0  0  0  0  # atno 681  bound_to 677 
   21.0031   11.5592   -0.7005 H   0  0  0  0  0  0  0  0  0  0  0  0  # atno 702  bound_to 698 
   -7.1539   16.5598   -0.0216 H   0  0  0  0  0  0  0  0  0  0  0  0  # atno 965  bound_to 957 
    0.6125   11.4251   11.0489 H   0  0  0  0  0  0  0  0  0  0  0  0  # atno 1886 bound_to 1878
   11.0593    2.5430   -2.7707 H   0  0  0  0  0  0  0  0  0  0  0  0  # atno 2577 bound_to 2569
    8.0820    6.8725    0.7043 H   0  0  0  0  0  0  0  0  0  0  0  0  # atno 2891 bound_to 2887
   18.9756    2.8284    0.2411 H   0  0  0  0  0  0  0  0  0  0  0  0  # atno 3175 bound_to 3171
   12.7832    9.8997   10.0927 H   0  0  0  0  0  0  0  0  0  0  0  0  # atno 5278 bound_to 5270
   16.2447   12.5506    6.1628 LP  0  0  0  0  0  0  0  0  0  0  0  0  # atno 5914 bound_to 677 
   15.8084   13.5246    7.3987 LP  0  0  0  0  0  0  0  0  0  0  0  0  # atno 5915 bound_to 677 
   20.2169   11.7083   -2.0778 LP  0  0  0  0  0  0  0  0  0  0  0  0  # atno 5920 bound_to 698 
   19.4324   11.8198   -0.6500 LP  0  0  0  0  0  0  0  0  0  0  0  0  # atno 5921 bound_to 698 
    9.5772    2.0274   -2.5010 LP  0  0  0  0  0  0  0  0  0  0  0  0  # atno 5950 bound_to 2569
    9.8488    3.3593   -3.4059 LP  0  0  0  0  0  0  0  0  0  0  0  0  # atno 5951 bound_to 2569
    8.0330    5.3077    0.4118 LP  0  0  0  0  0  0  0  0  0  0  0  0  # atno 5982 bound_to 2887
    7.1360    5.9643    1.6080 LP  0  0  0  0  0  0  0  0  0  0  0  0  # atno 5983 bound_to 2887
   17.8746    1.9391   -0.4886 LP  0  0  0  0  0  0  0  0  0  0  0  0  # atno 6000 bound_to 3171
   19.0436    2.6930   -1.3440 LP  0  0  0  0  0  0  0  0  0  0  0  0  # atno 6001 bound_to 3171
   14.3742    9.9170   10.0204 LP  0  0  0  0  0  0  0  0  0  0  0  0  # atno 6004 bound_to 5270
   13.4725   10.2341    8.6964 LP  0  0  0  0  0  0  0  0  0  0  0  0  # atno 6005 bound_to 5270
   10.7176   18.9378    7.2542 LP  0  0  0  0  0  0  0  0  0  0  0  0  # atno 6055 bound_to 637 
   11.1323   19.6377    8.6701 LP  0  0  0  0  0  0  0  0  0  0  0  0  # atno 6056 bound_to 637 
    1.9192   12.2325   10.6295 LP  0  0  0  0  0  0  0  0  0  0  0  0  # atno 6063 bound_to 1878
    1.8213   10.6190   10.3974 LP  0  0  0  0  0  0  0  0  0  0  0  0  # atno 6064 bound_to 1878
   -6.7528   15.3435   -0.9676 LP  0  0  0  0  0  0  0  0  0  0  0  0  # atno 6067 bound_to 957 
   -6.5208   16.8878   -1.4452 LP  0  0  0  0  0  0  0  0  0  0  0  0  # atno 6068 bound_to 957 

>  <STRIFE_LigEff_Score>  (36) 
2.7247388888888886

$$$$
unknown|pharmsElabsTestPreDocking|sdf|37|dock10
     RDKit          3D

 13 13  0  0  0  0  0  0  0  0999 V2000
    4.8657    9.3852    4.1742 C   0  0  0  0  0  0  0  0  0  0  0  0
    6.1739    9.3368    3.5168 N   0  0  0  0  0  0  0  0  0  0  0  0
    7.3688    9.2785    4.3093 C   0  0  0  0  0  0  0  0  0  0  0  0
    7.2761    9.3529    5.5596 O   0  0  0  0  0  0  0  0  0  0  0  0
    8.7598    9.1063    3.7753 C   0  0  0  0  0  0  0  0  0  0  0  0
    9.1012    7.6868    3.3151 C   0  0  0  0  0  0  0  0  0  0  0  0
   10.5848    7.4755    2.9483 C   0  0  0  0  0  0  0  0  0  0  0  0
   11.2474    8.7979    2.5310 C   0  0  0  0  0  0  0  0  0  0  0  0
   12.6149    8.7234    1.7843 C   0  0  0  0  0  0  0  0  0  0  0  0
   13.1025    9.9955    1.1118 C   0  0  0  0  0  0  0  0  0  0  0  0
   12.9176    7.4934    1.0600 N   0  0  0  0  0  0  0  0  0  0  0  0
   11.2428    9.7773    3.7223 C   0  0  0  0  0  0  0  0  0  0  0  0
    9.8445   10.0160    4.3310 C   0  0  0  0  0  0  0  0  0  0  0  0
  1  2  1  0
  2  3  1  0
  3  4  2  0
  3  5  1  0
  5  6  1  0
  6  7  1  0
  7  8  1  0
  8  9  1  0
  9 10  1  0
  9 11  1  0
  8 12  1  0
 12 13  1  0
 13  5  1  0
M  CHG  1  11   1
M  END
>  <EmbedRMS>  (37) 
0.29639754771625826

>  <Gold.Version>  (37) 
2020.3.0

>  <Gold.Id.Protein>  (37) 
unknown|1q8t_protein|pdb

>  <Gold.PLP.Fitness>  (37) 
35.1272

>  <Gold.PLP.PLP>  (37) 
-28.0611

>  <Gold.PLP.part.hbond>  (37) 
-2.0000

>  <Gold.PLP.part.metal>  (37) 
0.0000

>  <Gold.PLP.part.buried>  (37) 
-4.9955

>  <Gold.PLP.part.nonpolar>  (37) 
-21.2107

>  <Gold.PLP.part.repulsive>  (37) 
0.1187

>  <Gold.PLP.ligand.clash>  (37) 
0.0000

>  <Gold.PLP.ligand.torsion>  (37) 
0.7975

>  <Gold.PLP.Chemscore.Hbond>  (37) 
2.5440

>  <Gold.PLP.Chemscore.CHOScore>  (37) 
0.0000

>  <Gold.PLP.Chemscore.Metal>  (37) 
0.0000

>  <Gold.Chemscore.Hbonds>  (37) 
donor molecule, donor type, donor heavy atom, donor atom, acceptor molecule, acceptor atom, score
      L1  H    11    29       P1  2691  0.54
      L1  H    11    30       P1  2902  2.00

>  <Gold.PLP.Chemscore.Internal.Correction>  (37) 
1.0290

>  <Gold.PLP.Constraint>  (37) 
-0.0000

>  <Gold.Protein.RotatedTorsions>  (37) 
[  681  677  676  673 ] final  -78.93 input -179.99 | X-H torsion
[  702  698  697  694 ] final   -3.01 input  179.99 | X-H torsion
[ 2577 2569 2568 2566 ] final -125.64 input   -0.13 | X-H torsion
[ 2891 2887 2886 2883 ] final -107.35 input  179.98 | X-H torsion
[ 3175 3171 3170 3167 ] final  103.27 input -179.99 | X-H torsion
[ 5278 5270 5269 5267 ] final  -93.77 input    0.55 | X-H torsion
[  641  637  636  633 ] final    0.65 input  179.99 | X-H torsion
[ 1886 1878 1877 1875 ] final -140.69 input    1.60 | X-H torsion
[  965  957  956  954 ] final  112.73 input    0.45 | X-H torsion

>  <Gold.Protein.ActiveResidues>  (37) 
 LYS47   THR48   LEU49   GLY50   THR51   GLY52   SER53   PHE54   GLY55   ARG56  
 VAL57   MET58   LEU59   TYR69   ALA70   MET71   LYS72   ILE73   LEU74   GLU91  
 LEU95   VAL104  LYS105  MET118  VAL119  MET120  GLU121  TYR122  VAL123  PRO124 
 GLY125  GLY126  GLU127  MET128  PHE129  TYR164  ASP166  LEU167  LYS168  PRO169 
 GLU170  ASN171  LEU172  LEU173  ILE174  GLN181  VAL182  THR183  ASP184  PHE185 
 GLY186  PHE187  GLY200  THR201  ASN326  PHE327  TYR330  ARG18   ARG19   ASN20  
 ALA21   ILE22   HIS23  

>  <Gold.Protein.RotatedAtoms>  (37) 
    9.5849   19.3252    7.9253 H   0  0  0  0  0  0  0  0  0  0  0  0  # atno 641  bound_to 637 
   15.7391   13.3986    7.2910 H   0  0  0  0  0  0  0  0  0  0  0  0  # atno 681  bound_to 677 
   19.5218   11.8199   -0.6016 H   0  0  0  0  0  0  0  0  0  0  0  0  # atno 702  bound_to 698 
   -7.1717   16.3937    0.0141 H   0  0  0  0  0  0  0  0  0  0  0  0  # atno 965  bound_to 957 
    0.7080   10.9577   10.9271 H   0  0  0  0  0  0  0  0  0  0  0  0  # atno 1886 bound_to 1878
   11.0636    2.5661   -2.7864 H   0  0  0  0  0  0  0  0  0  0  0  0  # atno 2577 bound_to 2569
    7.1790    5.6607    1.4600 H   0  0  0  0  0  0  0  0  0  0  0  0  # atno 2891 bound_to 2887
   18.0141    1.9681   -0.8901 H   0  0  0  0  0  0  0  0  0  0  0  0  # atno 3175 bound_to 3171
   13.8164    9.8250   10.4393 H   0  0  0  0  0  0  0  0  0  0  0  0  # atno 5278 bound_to 5270
   17.2030   13.8115    6.8191 LP  0  0  0  0  0  0  0  0  0  0  0  0  # atno 5914 bound_to 677 
   16.4054   12.5837    6.0960 LP  0  0  0  0  0  0  0  0  0  0  0  0  # atno 5915 bound_to 677 
   21.0801   11.5298   -0.7599 LP  0  0  0  0  0  0  0  0  0  0  0  0  # atno 5920 bound_to 698 
   20.1273   11.7241   -2.0718 LP  0  0  0  0  0  0  0  0  0  0  0  0  # atno 5921 bound_to 698 
    9.6004    2.0129   -2.4892 LP  0  0  0  0  0  0  0  0  0  0  0  0  # atno 5950 bound_to 2569
    9.8211    3.3495   -3.4011 LP  0  0  0  0  0  0  0  0  0  0  0  0  # atno 5951 bound_to 2569
    7.9017    6.9917    0.9673 LP  0  0  0  0  0  0  0  0  0  0  0  0  # atno 5982 bound_to 2887
    8.2176    5.5556    0.2572 LP  0  0  0  0  0  0  0  0  0  0  0  0  # atno 5983 bound_to 2887
   19.2867    2.9105   -1.0580 LP  0  0  0  0  0  0  0  0  0  0  0  0  # atno 6000 bound_to 3171
   18.6433    2.6270    0.4159 LP  0  0  0  0  0  0  0  0  0  0  0  0  # atno 6001 bound_to 3171
   14.1535   10.1849    8.9248 LP  0  0  0  0  0  0  0  0  0  0  0  0  # atno 6004 bound_to 5270
   12.6061   10.0448    9.4274 LP  0  0  0  0  0  0  0  0  0  0  0  0  # atno 6005 bound_to 5270
   11.0586   19.0018    7.4168 LP  0  0  0  0  0  0  0  0  0  0  0  0  # atno 6055 bound_to 637 
   10.8114   19.7468    8.8488 LP  0  0  0  0  0  0  0  0  0  0  0  0  # atno 6056 bound_to 637 
    1.4666   12.3555   10.8500 LP  0  0  0  0  0  0  0  0  0  0  0  0  # atno 6063 bound_to 1878
    2.1734   10.9880   10.3051 LP  0  0  0  0  0  0  0  0  0  0  0  0  # atno 6064 bound_to 1878
   -6.6810   15.3946   -1.1243 LP  0  0  0  0  0  0  0  0  0  0  0  0  # atno 6067 bound_to 957 
   -6.5738   17.0115   -1.3260 LP  0  0  0  0  0  0  0  0  0  0  0  0  # atno 6068 bound_to 957 

>  <STRIFE_LigEff_Score>  (37) 
2.702092307692308

$$$$
unknown|pharmsElabsTestPreDocking|sdf|38|dock7
     RDKit          3D

 13 13  0  0  0  0  0  0  0  0999 V2000
    5.1044    9.1707    2.6333 C   0  0  0  0  0  0  0  0  0  0  0  0
    6.5160    9.2104    2.2437 N   0  0  0  0  0  0  0  0  0  0  0  0
    7.5354    9.0202    3.2356 C   0  0  0  0  0  0  0  0  0  0  0  0
    7.2005    8.9040    4.4405 O   0  0  0  0  0  0  0  0  0  0  0  0
    9.0068    8.9180    2.9629 C   0  0  0  0  0  0  0  0  0  0  0  0
    9.5524    7.4889    2.9041 C   0  0  0  0  0  0  0  0  0  0  0  0
   11.0899    7.3971    2.8147 C   0  0  0  0  0  0  0  0  0  0  0  0
   11.6872    8.6715    2.1974 C   0  0  0  0  0  0  0  0  0  0  0  0
   13.1625    8.6143    1.6940 C   0  0  0  0  0  0  0  0  0  0  0  0
   13.7396    9.8910    1.1064 C   0  0  0  0  0  0  0  0  0  0  0  0
   13.6006    7.3864    1.0388 N   0  0  0  0  0  0  0  0  0  0  0  0
   11.3890    9.8777    3.1110 C   0  0  0  0  0  0  0  0  0  0  0  0
    9.8917   10.0596    3.4387 C   0  0  0  0  0  0  0  0  0  0  0  0
  1  2  1  0
  2  3  1  0
  3  4  2  0
  3  5  1  0
  5  6  1  0
  6  7  1  0
  7  8  1  0
  8  9  1  0
  9 10  1  0
  9 11  1  0
  8 12  1  0
 12 13  1  0
 13  5  1  0
M  CHG  1  11   1
M  END
>  <EmbedRMS>  (38) 
0.29639754771625826

>  <Gold.Version>  (38) 
2020.3.0

>  <Gold.Id.Protein>  (38) 
unknown|1q8t_protein|pdb

>  <Gold.PLP.Fitness>  (38) 
34.3216

>  <Gold.PLP.PLP>  (38) 
-25.8081

>  <Gold.PLP.part.hbond>  (38) 
-2.0000

>  <Gold.PLP.part.metal>  (38) 
0.0000

>  <Gold.PLP.part.buried>  (38) 
-3.3162

>  <Gold.PLP.part.nonpolar>  (38) 
-20.2652

>  <Gold.PLP.part.repulsive>  (38) 
0.0527

>  <Gold.PLP.ligand.clash>  (38) 
0.0000

>  <Gold.PLP.ligand.torsion>  (38) 
0.5537

>  <Gold.PLP.Chemscore.Hbond>  (38) 
2.8640

>  <Gold.PLP.Chemscore.CHOScore>  (38) 
0.0000

>  <Gold.PLP.Chemscore.Metal>  (38) 
0.0000

>  <Gold.Chemscore.Hbonds>  (38) 
donor molecule, donor type, donor heavy atom, donor atom, acceptor molecule, acceptor atom, score
      L1  H    11    28       P1  2691  0.86
      L1  H    11    29       P1  2902  2.00

>  <Gold.PLP.Chemscore.Internal.Correction>  (38) 
1.0290

>  <Gold.PLP.Constraint>  (38) 
-0.0000

>  <Gold.Protein.RotatedTorsions>  (38) 
[  681  677  676  673 ] final -101.45 input -179.99 | X-H torsion
[  702  698  697  694 ] final  124.41 input  179.99 | X-H torsion
[ 2577 2569 2568 2566 ] final   95.82 input   -0.13 | X-H torsion
[ 2891 2887 2886 2883 ] final -121.26 input  179.98 | X-H torsion
[ 3175 3171 3170 3167 ] final  -67.62 input -179.99 | X-H torsion
[ 5278 5270 5269 5267 ] final   25.14 input    0.55 | X-H torsion
[  641  637  636  633 ] final   54.18 input  179.99 | X-H torsion
[ 1886 1878 1877 1875 ] final  102.19 input    1.60 | X-H torsion
[  965  957  956  954 ] final -165.86 input    0.45 | X-H torsion

>  <Gold.Protein.ActiveResidues>  (38) 
 LYS47   THR48   LEU49   GLY50   THR51   GLY52   SER53   PHE54   GLY55   ARG56  
 VAL57   MET58   LEU59   TYR69   ALA70   MET71   LYS72   ILE73   LEU74   GLU91  
 LEU95   VAL104  LYS105  MET118  VAL119  MET120  GLU121  TYR122  VAL123  PRO124 
 GLY125  GLY126  GLU127  MET128  PHE129  TYR164  ASP166  LEU167  LYS168  PRO169 
 GLU170  ASN171  LEU172  LEU173  ILE174  GLN181  VAL182  THR183  ASP184  PHE185 
 GLY186  PHE187  GLY200  THR201  ASN326  PHE327  TYR330  ARG18   ARG19   ASN20  
 ALA21   ILE22   HIS23  

>  <Gold.Protein.RotatedAtoms>  (38) 
    9.8344   19.6628    8.6138 H   0  0  0  0  0  0  0  0  0  0  0  0  # atno 641  bound_to 637 
   15.9595   13.6470    7.4008 H   0  0  0  0  0  0  0  0  0  0  0  0  # atno 681  bound_to 677 
   20.2493   11.7185   -2.0310 H   0  0  0  0  0  0  0  0  0  0  0  0  # atno 702  bound_to 698 
   -6.8021   17.1640   -0.7820 H   0  0  0  0  0  0  0  0  0  0  0  0  # atno 965  bound_to 957 
    1.4170   12.3088   10.8449 H   0  0  0  0  0  0  0  0  0  0  0  0  # atno 1886 bound_to 1878
    9.4342    2.2018   -2.6529 H   0  0  0  0  0  0  0  0  0  0  0  0  # atno 2577 bound_to 2569
    7.1540    5.8620    1.5372 H   0  0  0  0  0  0  0  0  0  0  0  0  # atno 2891 bound_to 2887
   19.3216    3.0172   -0.2747 H   0  0  0  0  0  0  0  0  0  0  0  0  # atno 3175 bound_to 3171
   12.6486   10.0552    9.4567 H   0  0  0  0  0  0  0  0  0  0  0  0  # atno 5278 bound_to 5270
   17.2986   13.5904    6.5407 LP  0  0  0  0  0  0  0  0  0  0  0  0  # atno 5914 bound_to 677 
   16.0777   12.5433    6.2589 LP  0  0  0  0  0  0  0  0  0  0  0  0  # atno 5915 bound_to 677 
   19.4173   11.8230   -0.6767 LP  0  0  0  0  0  0  0  0  0  0  0  0  # atno 5920 bound_to 698 
   21.0249   11.5375   -0.6515 LP  0  0  0  0  0  0  0  0  0  0  0  0  # atno 5921 bound_to 698 
   10.1166    3.4155   -3.4253 LP  0  0  0  0  0  0  0  0  0  0  0  0  # atno 5950 bound_to 2569
   11.0205    2.3304   -2.6056 LP  0  0  0  0  0  0  0  0  0  0  0  0  # atno 5951 bound_to 2569
    8.0441    6.9531    0.7930 LP  0  0  0  0  0  0  0  0  0  0  0  0  # atno 5982 bound_to 2887
    8.1015    5.3823    0.3503 LP  0  0  0  0  0  0  0  0  0  0  0  0  # atno 5983 bound_to 2887
   18.0502    2.1512    0.1367 LP  0  0  0  0  0  0  0  0  0  0  0  0  # atno 6000 bound_to 3171
   18.5037    2.2823   -1.4265 LP  0  0  0  0  0  0  0  0  0  0  0  0  # atno 6001 bound_to 3171
   13.8483    9.7999   10.4727 LP  0  0  0  0  0  0  0  0  0  0  0  0  # atno 6004 bound_to 5270
   14.1400   10.1876    8.9134 LP  0  0  0  0  0  0  0  0  0  0  0  0  # atno 6005 bound_to 5270
   10.2288   18.9586    7.2414 LP  0  0  0  0  0  0  0  0  0  0  0  0  # atno 6055 bound_to 637 
   11.3784   19.4345    8.2991 LP  0  0  0  0  0  0  0  0  0  0  0  0  # atno 6056 bound_to 637 
    2.1955   11.0300   10.3026 LP  0  0  0  0  0  0  0  0  0  0  0  0  # atno 6063 bound_to 1878
    0.6981   10.8912   10.9390 LP  0  0  0  0  0  0  0  0  0  0  0  0  # atno 6064 bound_to 1878
   -7.1604   15.7894   -0.0629 LP  0  0  0  0  0  0  0  0  0  0  0  0  # atno 6067 bound_to 957 
   -6.4838   15.8055   -1.5491 LP  0  0  0  0  0  0  0  0  0  0  0  0  # atno 6068 bound_to 957 

>  <STRIFE_LigEff_Score>  (38) 
2.640123076923077

$$$$
unknown|pharmsElabsTestPreDocking|sdf|39|dock9
     RDKit          3D

 17 17  0  0  0  0  0  0  0  0999 V2000
    3.3018    8.6207    2.1638 C   0  0  0  0  0  0  0  0  0  0  0  0
    4.6047    8.9098    2.1267 C   0  0  0  0  0  0  0  0  0  0  0  0
    5.4713    9.1633    3.3037 C   0  0  0  0  0  0  0  0  0  0  0  0
    4.9559    9.7706    4.4000 C   0  0  0  0  0  0  0  0  0  0  0  0
    5.7570   10.1355    5.6125 C   0  0  0  0  0  0  0  0  0  0  0  0
    6.8947    8.8889    3.2554 N   0  0  0  0  0  0  0  0  0  0  0  0
    7.9453    9.2788    2.3397 C   0  0  0  0  0  0  0  0  0  0  0  0
    7.6278   10.0703    1.4149 O   0  0  0  0  0  0  0  0  0  0  0  0
    9.4120    8.9448    2.3662 C   0  0  0  0  0  0  0  0  0  0  0  0
    9.7155    7.4808    2.6365 C   0  0  0  0  0  0  0  0  0  0  0  0
   11.1639    7.1051    2.4005 C   0  0  0  0  0  0  0  0  0  0  0  0
   12.2329    8.1548    2.7209 C   0  0  0  0  0  0  0  0  0  0  0  0
   13.5775    7.8805    2.0030 C   0  0  0  0  0  0  0  0  0  0  0  0
   14.5347    9.0516    1.7806 C   0  0  0  0  0  0  0  0  0  0  0  0
   13.4164    7.0600    0.8016 N   0  0  0  0  0  0  0  0  0  0  0  0
   11.8284    9.6389    2.5403 C   0  0  0  0  0  0  0  0  0  0  0  0
   10.3788   10.0000    2.8351 C   0  0  0  0  0  0  0  0  0  0  0  0
  1  2  2  0
  2  3  1  0
  3  4  2  0
  4  5  1  0
  3  6  1  0
  6  7  1  0
  7  8  2  0
  7  9  1  0
  9 10  1  0
 10 11  1  0
 11 12  1  0
 12 13  1  0
 13 14  1  0
 13 15  1  0
 12 16  1  0
 16 17  1  0
 17  9  1  0
M  CHG  1  15   1
M  END
>  <EmbedRMS>  (39) 
0.29216731409503444

>  <Gold.Version>  (39) 
2020.3.0

>  <Gold.Id.Protein>  (39) 
unknown|1q8t_protein|pdb

>  <Gold.PLP.Fitness>  (39) 
45.1156

>  <Gold.PLP.PLP>  (39) 
-39.4601

>  <Gold.PLP.part.hbond>  (39) 
-1.6912

>  <Gold.PLP.part.metal>  (39) 
0.0000

>  <Gold.PLP.part.buried>  (39) 
-1.8021

>  <Gold.PLP.part.nonpolar>  (39) 
-35.6776

>  <Gold.PLP.part.repulsive>  (39) 
0.0550

>  <Gold.PLP.ligand.clash>  (39) 
0.0000

>  <Gold.PLP.ligand.torsion>  (39) 
2.0475

>  <Gold.PLP.Chemscore.Hbond>  (39) 
2.9440

>  <Gold.PLP.Chemscore.CHOScore>  (39) 
0.0000

>  <Gold.PLP.Chemscore.Metal>  (39) 
0.0000

>  <Gold.Chemscore.Hbonds>  (39) 
donor molecule, donor type, donor heavy atom, donor atom, acceptor molecule, acceptor atom, score
      L1  H    15    37       P1  2902  2.00
      L1  H    15    38       P1  2691  0.94

>  <Gold.PLP.Chemscore.Internal.Correction>  (39) 
0.9185

>  <Gold.PLP.Constraint>  (39) 
-0.0000

>  <Gold.Protein.RotatedTorsions>  (39) 
[  681  677  676  673 ] final -105.18 input -179.99 | X-H torsion
[  702  698  697  694 ] final   88.07 input  179.99 | X-H torsion
[ 2577 2569 2568 2566 ] final   23.49 input   -0.13 | X-H torsion
[ 2891 2887 2886 2883 ] final  -59.48 input  179.98 | X-H torsion
[ 3175 3171 3170 3167 ] final  -94.37 input -179.99 | X-H torsion
[ 5278 5270 5269 5267 ] final   16.10 input    0.55 | X-H torsion
[  641  637  636  633 ] final   61.76 input  179.99 | X-H torsion
[ 1886 1878 1877 1875 ] final  -48.33 input    1.60 | X-H torsion
[  965  957  956  954 ] final    4.59 input    0.45 | X-H torsion

>  <Gold.Protein.ActiveResidues>  (39) 
 LYS47   THR48   LEU49   GLY50   THR51   GLY52   SER53   PHE54   GLY55   ARG56  
 VAL57   MET58   LEU59   TYR69   ALA70   MET71   LYS72   ILE73   LEU74   GLU91  
 LEU95   VAL104  LYS105  MET118  VAL119  MET120  GLU121  TYR122  VAL123  PRO124 
 GLY125  GLY126  GLU127  MET128  PHE129  TYR164  ASP166  LEU167  LYS168  PRO169 
 GLU170  ASN171  LEU172  LEU173  ILE174  GLN181  VAL182  THR183  ASP184  PHE185 
 GLY186  PHE187  GLY200  THR201  ASN326  PHE327  TYR330  ARG18   ARG19   ASN20  
 ALA21   ILE22   HIS23  

>  <Gold.Protein.RotatedAtoms>  (39) 
    9.9231   19.6945    8.6855 H   0  0  0  0  0  0  0  0  0  0  0  0  # atno 641  bound_to 637 
   16.0041   13.6836    7.4094 H   0  0  0  0  0  0  0  0  0  0  0  0  # atno 681  bound_to 677 
   19.7233   11.8085   -1.8650 H   0  0  0  0  0  0  0  0  0  0  0  0  # atno 702  bound_to 698 
   -6.7473   15.3874   -0.9396 H   0  0  0  0  0  0  0  0  0  0  0  0  # atno 965  bound_to 957 
    1.8493   10.6973   10.3795 H   0  0  0  0  0  0  0  0  0  0  0  0  # atno 1886 bound_to 1878
    9.4799    3.0706   -3.2529 H   0  0  0  0  0  0  0  0  0  0  0  0  # atno 2577 bound_to 2569
    7.4948    5.2092    0.9860 H   0  0  0  0  0  0  0  0  0  0  0  0  # atno 2891 bound_to 2887
   19.1371    2.9277    0.0854 H   0  0  0  0  0  0  0  0  0  0  0  0  # atno 3175 bound_to 3171
   12.6344   10.0214    9.5930 H   0  0  0  0  0  0  0  0  0  0  0  0  # atno 5278 bound_to 5270
   17.3019   13.5479    6.4965 LP  0  0  0  0  0  0  0  0  0  0  0  0  # atno 5914 bound_to 677 
   16.0275   12.5472    6.2940 LP  0  0  0  0  0  0  0  0  0  0  0  0  # atno 5915 bound_to 677 
   19.8413   11.7401   -0.2779 LP  0  0  0  0  0  0  0  0  0  0  0  0  # atno 5920 bound_to 698 
   21.1542   11.5257   -1.2249 LP  0  0  0  0  0  0  0  0  0  0  0  0  # atno 5921 bound_to 698 
   11.0535    2.9568   -3.0382 LP  0  0  0  0  0  0  0  0  0  0  0  0  # atno 5950 bound_to 2569
   10.0355    1.8743   -2.3611 LP  0  0  0  0  0  0  0  0  0  0  0  0  # atno 5951 bound_to 2569
    7.4029    6.7205    1.4799 LP  0  0  0  0  0  0  0  0  0  0  0  0  # atno 5982 bound_to 2887
    8.3840    6.3021    0.2434 LP  0  0  0  0  0  0  0  0  0  0  0  0  # atno 5983 bound_to 2887
   17.8935    1.9863   -0.2354 LP  0  0  0  0  0  0  0  0  0  0  0  0  # atno 6000 bound_to 3171
   18.8546    2.5413   -1.4333 LP  0  0  0  0  0  0  0  0  0  0  0  0  # atno 6001 bound_to 3171
   13.9838    9.8159   10.4138 LP  0  0  0  0  0  0  0  0  0  0  0  0  # atno 6004 bound_to 5270
   14.0194   10.2072    8.8288 LP  0  0  0  0  0  0  0  0  0  0  0  0  # atno 6005 bound_to 5270
   10.1108   18.9819    7.2741 LP  0  0  0  0  0  0  0  0  0  0  0  0  # atno 6055 bound_to 637 
   11.4029   19.3778    8.1908 LP  0  0  0  0  0  0  0  0  0  0  0  0  # atno 6056 bound_to 637 
    0.5743   11.3528   11.0724 LP  0  0  0  0  0  0  0  0  0  0  0  0  # atno 6063 bound_to 1878
    1.8643   12.2648   10.6592 LP  0  0  0  0  0  0  0  0  0  0  0  0  # atno 6064 bound_to 1878
   -6.5168   16.8764   -1.4541 LP  0  0  0  0  0  0  0  0  0  0  0  0  # atno 6067 bound_to 957 
   -7.1850   16.5896    0.0081 LP  0  0  0  0  0  0  0  0  0  0  0  0  # atno 6068 bound_to 957 

>  <STRIFE_LigEff_Score>  (39) 
2.653858823529412

$$$$
unknown|pharmsElabsTestPreDocking|sdf|40|dock6
     RDKit          3D

 16 16  0  0  0  0  0  0  0  0999 V2000
   14.1603    9.3048    1.5352 C   0  0  0  0  0  0  0  0  0  0  0  0
   13.4462    8.0265    1.9739 C   0  0  0  0  0  0  0  0  0  0  0  0
   13.3268    7.0808    0.8556 N   0  0  0  0  0  0  0  0  0  0  0  0
   12.1304    8.1639    2.7651 C   0  0  0  0  0  0  0  0  0  0  0  0
   11.0122    7.1021    2.5870 C   0  0  0  0  0  0  0  0  0  0  0  0
    9.6617    7.6396    2.1365 C   0  0  0  0  0  0  0  0  0  0  0  0
    9.2701    8.8952    2.9136 C   0  0  0  0  0  0  0  0  0  0  0  0
    7.8723    9.3225    2.5523 C   0  0  0  0  0  0  0  0  0  0  0  0
    7.6296    9.7272    1.3833 O   0  0  0  0  0  0  0  0  0  0  0  0
    6.8431    9.2755    3.5536 N   0  0  0  0  0  0  0  0  0  0  0  0
    5.4680    9.6681    3.3901 C   0  0  0  0  0  0  0  0  0  0  0  0
    4.9264    9.9824    1.8762 S   0  0  0  0  0  0  0  0  0  0  0  0
    4.4462    9.5876    4.4955 C   0  0  0  0  0  0  0  0  0  0  0  0
    3.0913    9.6817    3.9601 N   0  0  0  0  0  0  0  0  0  0  0  0
   10.2608   10.0088    2.5922 C   0  0  0  0  0  0  0  0  0  0  0  0
   11.6884    9.6420    2.9924 C   0  0  0  0  0  0  0  0  0  0  0  0
  1  2  1  0
  2  3  1  0
  2  4  1  0
  4  5  1  0
  5  6  1  0
  6  7  1  0
  7  8  1  0
  8  9  2  0
  8 10  1  0
 10 11  1  0
 11 12  2  0
 11 13  1  0
 13 14  1  0
  7 15  1  0
 15 16  1  0
 16  4  1  0
M  CHG  1   3   1
M  END
>  <EmbedRMS>  (40) 
0.21492586170883154

>  <Gold.Version>  (40) 
2020.3.0

>  <Gold.Id.Protein>  (40) 
unknown|1q8t_protein|pdb

>  <Gold.PLP.Fitness>  (40) 
40.9660

>  <Gold.PLP.PLP>  (40) 
-31.6552

>  <Gold.PLP.part.hbond>  (40) 
-2.7340

>  <Gold.PLP.part.metal>  (40) 
0.0000

>  <Gold.PLP.part.buried>  (40) 
-2.5589

>  <Gold.PLP.part.nonpolar>  (40) 
-26.9196

>  <Gold.PLP.part.repulsive>  (40) 
0.0503

>  <Gold.PLP.ligand.clash>  (40) 
0.0000

>  <Gold.PLP.ligand.torsion>  (40) 
1.4350

>  <Gold.PLP.Chemscore.Hbond>  (40) 
3.9120

>  <Gold.PLP.Chemscore.CHOScore>  (40) 
0.0000

>  <Gold.PLP.Chemscore.Metal>  (40) 
0.0000

>  <Gold.Chemscore.Hbonds>  (40) 
donor molecule, donor type, donor heavy atom, donor atom, acceptor molecule, acceptor atom, score
      L1  H     3    21       P1  2902  2.00
      L1  H     3    22       P1  2691  0.91
      P1  H  1888  1903       L1    14  1.00

>  <Gold.PLP.Chemscore.Internal.Correction>  (40) 
0.4448

>  <Gold.PLP.Constraint>  (40) 
-0.0000

>  <Gold.Protein.RotatedTorsions>  (40) 
[  681  677  676  673 ] final -123.75 input -179.99 | X-H torsion
[  702  698  697  694 ] final   68.91 input  179.99 | X-H torsion
[ 2577 2569 2568 2566 ] final  134.75 input   -0.13 | X-H torsion
[ 2891 2887 2886 2883 ] final  -73.56 input  179.98 | X-H torsion
[ 3175 3171 3170 3167 ] final   50.99 input -179.99 | X-H torsion
[ 5278 5270 5269 5267 ] final   29.98 input    0.55 | X-H torsion
[  641  637  636  633 ] final    3.12 input  179.99 | X-H torsion
[ 1886 1878 1877 1875 ] final  159.85 input    1.60 | X-H torsion
[  965  957  956  954 ] final -157.86 input    0.45 | X-H torsion

>  <Gold.Protein.ActiveResidues>  (40) 
 LYS47   THR48   LEU49   GLY50   THR51   GLY52   SER53   PHE54   GLY55   ARG56  
 VAL57   MET58   LEU59   TYR69   ALA70   MET71   LYS72   ILE73   LEU74   GLU91  
 LEU95   VAL104  LYS105  MET118  VAL119  MET120  GLU121  TYR122  VAL123  PRO124 
 GLY125  GLY126  GLU127  MET128  PHE129  TYR164  ASP166  LEU167  LYS168  PRO169 
 GLU170  ASN171  LEU172  LEU173  ILE174  GLN181  VAL182  THR183  ASP184  PHE185 
 GLY186  PHE187  GLY200  THR201  ASN326  PHE327  TYR330  ARG18   ARG19   ASN20  
 ALA21   ILE22   HIS23  

>  <Gold.Protein.RotatedAtoms>  (40) 
    9.5798   19.3428    7.9592 H   0  0  0  0  0  0  0  0  0  0  0  0  # atno 641  bound_to 637 
   16.2491   13.8371    7.4098 H   0  0  0  0  0  0  0  0  0  0  0  0  # atno 681  bound_to 677 
   19.5150   11.8414   -1.6540 H   0  0  0  0  0  0  0  0  0  0  0  0  # atno 702  bound_to 698 
   -6.7504   17.1565   -0.8956 H   0  0  0  0  0  0  0  0  0  0  0  0  # atno 965  bound_to 957 
    0.7303   11.8345   11.0668 H   0  0  0  0  0  0  0  0  0  0  0  0  # atno 1886 bound_to 1878
    9.9108    1.9242   -2.4252 H   0  0  0  0  0  0  0  0  0  0  0  0  # atno 2577 bound_to 2569
    7.3715    5.2907    1.1484 H   0  0  0  0  0  0  0  0  0  0  0  0  # atno 2891 bound_to 2887
   18.5377    2.2912   -1.3844 H   0  0  0  0  0  0  0  0  0  0  0  0  # atno 3175 bound_to 3171
   12.6653   10.0730    9.3850 H   0  0  0  0  0  0  0  0  0  0  0  0  # atno 5278 bound_to 5270
   17.2642   13.3221    6.2961 LP  0  0  0  0  0  0  0  0  0  0  0  0  # atno 5914 bound_to 677 
   15.8073   12.6115    6.4940 LP  0  0  0  0  0  0  0  0  0  0  0  0  # atno 5915 bound_to 677 
   20.1395   11.6857   -0.1969 LP  0  0  0  0  0  0  0  0  0  0  0  0  # atno 5920 bound_to 698 
   21.0751   11.5455   -1.5279 LP  0  0  0  0  0  0  0  0  0  0  0  0  # atno 5921 bound_to 698 
    9.5399    3.1929   -3.3130 LP  0  0  0  0  0  0  0  0  0  0  0  0  # atno 5950 bound_to 2569
   11.0954    2.8453   -2.9577 LP  0  0  0  0  0  0  0  0  0  0  0  0  # atno 5951 bound_to 2569
    7.5387    6.8608    1.3563 LP  0  0  0  0  0  0  0  0  0  0  0  0  # atno 5982 bound_to 2887
    8.3780    6.0759    0.1961 LP  0  0  0  0  0  0  0  0  0  0  0  0  # atno 5983 bound_to 2887
   19.3404    3.0571   -0.2422 LP  0  0  0  0  0  0  0  0  0  0  0  0  # atno 6000 bound_to 3171
   18.0386    2.1403    0.1202 LP  0  0  0  0  0  0  0  0  0  0  0  0  # atno 6001 bound_to 3171
   13.7724    9.7935   10.4955 LP  0  0  0  0  0  0  0  0  0  0  0  0  # atno 6004 bound_to 5270
   14.1985   10.1752    8.9660 LP  0  0  0  0  0  0  0  0  0  0  0  0  # atno 6005 bound_to 5270
   11.0264   18.9920    7.3941 LP  0  0  0  0  0  0  0  0  0  0  0  0  # atno 6055 bound_to 637 
   10.8489   19.7381    8.8358 LP  0  0  0  0  0  0  0  0  0  0  0  0  # atno 6056 bound_to 637 
    2.1973   11.9264   10.4547 LP  0  0  0  0  0  0  0  0  0  0  0  0  # atno 6063 bound_to 1878
    1.4193   10.4940   10.5534 LP  0  0  0  0  0  0  0  0  0  0  0  0  # atno 6064 bound_to 1878
   -7.1838   15.9071   -0.0089 LP  0  0  0  0  0  0  0  0  0  0  0  0  # atno 6067 bound_to 957 
   -6.5147   15.6957   -1.4834 LP  0  0  0  0  0  0  0  0  0  0  0  0  # atno 6068 bound_to 957 

>  <STRIFE_LigEff_Score>  (40) 
2.560375

$$$$
unknown|pharmsElabsTestPreDocking|sdf|41|dock10
     RDKit          3D

 18 19  0  0  0  0  0  0  0  0999 V2000
   14.4239    7.0066    2.6959 C   0  0  0  0  0  0  0  0  0  0  0  0
   13.0675    7.3631    2.0902 C   0  0  0  0  0  0  0  0  0  0  0  0
   13.1593    8.4796    1.1471 N   0  0  0  0  0  0  0  0  0  0  0  0
   11.8466    7.4845    3.0354 C   0  0  0  0  0  0  0  0  0  0  0  0
   10.5116    7.1221    2.3682 C   0  0  0  0  0  0  0  0  0  0  0  0
    9.2533    7.6358    3.0487 C   0  0  0  0  0  0  0  0  0  0  0  0
    9.4015    9.0476    3.5565 C   0  0  0  0  0  0  0  0  0  0  0  0
    8.1042    9.6955    3.9424 C   0  0  0  0  0  0  0  0  0  0  0  0
    7.5416   10.3389    3.0245 O   0  0  0  0  0  0  0  0  0  0  0  0
    7.4865    9.6430    5.2397 N   0  0  0  0  0  0  0  0  0  0  0  0
    6.2537   10.3980    5.5072 C   0  0  0  0  0  0  0  0  0  0  0  0
    5.1161    9.8605    4.6884 C   0  0  0  0  0  0  0  0  0  0  0  0
    3.9239    9.3459    5.1531 C   0  0  0  0  0  0  0  0  0  0  0  0
    3.1451    9.0258    4.0997 N   0  0  0  0  0  0  0  0  0  0  0  0
    3.8860    9.3578    3.0201 C   0  0  0  0  0  0  0  0  0  0  0  0
    5.0860    9.8705    3.3478 N   0  0  0  0  0  0  0  0  0  0  0  0
   10.5926    9.3214    4.4325 C   0  0  0  0  0  0  0  0  0  0  0  0
   11.8959    8.8303    3.8063 C   0  0  0  0  0  0  0  0  0  0  0  0
  1  2  1  0
  2  3  1  0
  2  4  1  0
  4  5  1  0
  5  6  1  0
  6  7  1  0
  7  8  1  0
  8  9  2  0
  8 10  1  0
 10 11  1  0
 11 12  1  0
 12 13  2  0
 13 14  1  0
 14 15  2  0
 15 16  1  0
  7 17  1  0
 17 18  1  0
 18  4  1  0
 16 12  1  0
M  CHG  1   3   1
M  END
>  <EmbedRMS>  (41) 
0.29359866989900446

>  <Gold.Version>  (41) 
2020.3.0

>  <Gold.Id.Protein>  (41) 
unknown|1q8t_protein|pdb

>  <Gold.PLP.Fitness>  (41) 
52.8686

>  <Gold.PLP.PLP>  (41) 
-42.2457

>  <Gold.PLP.part.hbond>  (41) 
-2.0000

>  <Gold.PLP.part.metal>  (41) 
0.0000

>  <Gold.PLP.part.buried>  (41) 
-2.9497

>  <Gold.PLP.part.nonpolar>  (41) 
-38.4236

>  <Gold.PLP.part.repulsive>  (41) 
0.1371

>  <Gold.PLP.ligand.clash>  (41) 
0.0000

>  <Gold.PLP.ligand.torsion>  (41) 
0.7814

>  <Gold.PLP.Chemscore.Hbond>  (41) 
2.8640

>  <Gold.PLP.Chemscore.CHOScore>  (41) 
0.9981

>  <Gold.PLP.Chemscore.Metal>  (41) 
0.0000

>  <Gold.Chemscore.Hbonds>  (41) 
donor molecule, donor type, donor heavy atom, donor atom, acceptor molecule, acceptor atom, score
      L1  H     3    25       P1  2902  1.98
      P1  H  1888  1903       L1    14  0.88
      L1  C    13    35       P1  1891  1.00

>  <Gold.PLP.Chemscore.Internal.Correction>  (41) 
0.5995

>  <Gold.PLP.Constraint>  (41) 
-0.0000

>  <Gold.Protein.RotatedTorsions>  (41) 
[  681  677  676  673 ] final   88.70 input -179.99 | X-H torsion
[  702  698  697  694 ] final  110.27 input  179.99 | X-H torsion
[ 2577 2569 2568 2566 ] final  -83.88 input   -0.13 | X-H torsion
[ 2891 2887 2886 2883 ] final   64.80 input  179.98 | X-H torsion
[ 3175 3171 3170 3167 ] final  174.95 input -179.99 | X-H torsion
[ 5278 5270 5269 5267 ] final   61.05 input    0.55 | X-H torsion
[  641  637  636  633 ] final -170.53 input  179.99 | X-H torsion
[ 1886 1878 1877 1875 ] final -138.07 input    1.60 | X-H torsion
[  965  957  956  954 ] final  -71.41 input    0.45 | X-H torsion

>  <Gold.Protein.ActiveResidues>  (41) 
 LYS47   THR48   LEU49   GLY50   THR51   GLY52   SER53   PHE54   GLY55   ARG56  
 VAL57   MET58   LEU59   TYR69   ALA70   MET71   LYS72   ILE73   LEU74   GLU91  
 LEU95   VAL104  LYS105  MET118  VAL119  MET120  GLU121  TYR122  VAL123  PRO124 
 GLY125  GLY126  GLU127  MET128  PHE129  TYR164  ASP166  LEU167  LYS168  PRO169 
 GLU170  ASN171  LEU172  LEU173  ILE174  GLN181  VAL182  THR183  ASP184  PHE185 
 GLY186  PHE187  GLY200  THR201  ASN326  PHE327  TYR330  ARG18   ARG19   ASN20  
 ALA21   ILE22   HIS23  

>  <Gold.Protein.RotatedAtoms>  (41) 
   11.3629   19.3074    8.0850 H   0  0  0  0  0  0  0  0  0  0  0  0  # atno 641  bound_to 637 
   17.0162   13.0079    6.1125 H   0  0  0  0  0  0  0  0  0  0  0  0  # atno 681  bound_to 677 
   20.0333   11.7563   -2.0073 H   0  0  0  0  0  0  0  0  0  0  0  0  # atno 702  bound_to 698 
   -6.4359   16.2081   -1.6065 H   0  0  0  0  0  0  0  0  0  0  0  0  # atno 965  bound_to 957 
    0.7265   10.9239   10.9132 H   0  0  0  0  0  0  0  0  0  0  0  0  # atno 1886 bound_to 1878
   10.9192    3.0718   -3.1482 H   0  0  0  0  0  0  0  0  0  0  0  0  # atno 2577 bound_to 2569
    8.3353    6.3559    0.2873 H   0  0  0  0  0  0  0  0  0  0  0  0  # atno 2891 bound_to 2887
   18.1110    2.1739    0.1338 H   0  0  0  0  0  0  0  0  0  0  0  0  # atno 3175 bound_to 3171
   12.9100   10.1743    8.9848 H   0  0  0  0  0  0  0  0  0  0  0  0  # atno 5278 bound_to 5270
   15.6072   12.8278    6.8325 LP  0  0  0  0  0  0  0  0  0  0  0  0  # atno 5914 bound_to 677 
   16.6570   13.9785    7.3230 LP  0  0  0  0  0  0  0  0  0  0  0  0  # atno 5915 bound_to 677 
   19.5515   11.7956   -0.4895 LP  0  0  0  0  0  0  0  0  0  0  0  0  # atno 5920 bound_to 698 
   21.1179   11.5251   -0.8637 LP  0  0  0  0  0  0  0  0  0  0  0  0  # atno 5921 bound_to 698 
   10.2422    1.8745   -2.3460 LP  0  0  0  0  0  0  0  0  0  0  0  0  # atno 5950 bound_to 2569
    9.3313    2.9555   -3.1634 LP  0  0  0  0  0  0  0  0  0  0  0  0  # atno 5951 bound_to 2569
    7.5369    5.1463    0.9476 LP  0  0  0  0  0  0  0  0  0  0  0  0  # atno 5982 bound_to 2887
    7.3655    6.6694    1.5111 LP  0  0  0  0  0  0  0  0  0  0  0  0  # atno 5983 bound_to 2887
   18.4702    2.2589   -1.4152 LP  0  0  0  0  0  0  0  0  0  0  0  0  # atno 6000 bound_to 3171
   19.3579    3.0620   -0.3045 LP  0  0  0  0  0  0  0  0  0  0  0  0  # atno 6001 bound_to 3171
   13.2675    9.7900   10.4886 LP  0  0  0  0  0  0  0  0  0  0  0  0  # atno 6004 bound_to 5270
   14.4459   10.0722    9.3939 LP  0  0  0  0  0  0  0  0  0  0  0  0  # atno 6005 bound_to 5270
   10.0001   19.7550    8.7759 LP  0  0  0  0  0  0  0  0  0  0  0  0  # atno 6055 bound_to 637 
    9.9973   19.0125    7.3215 LP  0  0  0  0  0  0  0  0  0  0  0  0  # atno 6056 bound_to 637 
    1.4271   12.3530   10.8670 LP  0  0  0  0  0  0  0  0  0  0  0  0  # atno 6063 bound_to 1878
    2.1935   11.0260   10.3028 LP  0  0  0  0  0  0  0  0  0  0  0  0  # atno 6064 bound_to 1878
   -6.9855   17.1154   -0.4192 LP  0  0  0  0  0  0  0  0  0  0  0  0  # atno 6067 bound_to 957 
   -7.0443   15.4863   -0.3243 LP  0  0  0  0  0  0  0  0  0  0  0  0  # atno 6068 bound_to 957 

>  <STRIFE_LigEff_Score>  (41) 
2.9371444444444443

$$$$
unknown|pharmsElabsTestPreDocking|sdf|42|dock10
     RDKit          3D

 18 19  0  0  0  0  0  0  0  0999 V2000
   14.4511    9.4834    1.2078 C   0  0  0  0  0  0  0  0  0  0  0  0
   13.6808    8.2433    1.6291 C   0  0  0  0  0  0  0  0  0  0  0  0
   14.0142    7.0335    0.8853 N   0  0  0  0  0  0  0  0  0  0  0  0
   12.1899    8.4431    2.0399 C   0  0  0  0  0  0  0  0  0  0  0  0
   11.5037    7.3089    2.8173 C   0  0  0  0  0  0  0  0  0  0  0  0
    9.9721    7.4790    2.8098 C   0  0  0  0  0  0  0  0  0  0  0  0
    9.5012    8.9251    2.6363 C   0  0  0  0  0  0  0  0  0  0  0  0
    8.0229    9.1184    2.7727 C   0  0  0  0  0  0  0  0  0  0  0  0
    7.4729    9.4927    1.7141 O   0  0  0  0  0  0  0  0  0  0  0  0
    7.2391    8.9098    3.9705 N   0  0  0  0  0  0  0  0  0  0  0  0
    5.8216    9.2311    4.0960 C   0  0  0  0  0  0  0  0  0  0  0  0
    4.9566    8.9654    3.0169 C   0  0  0  0  0  0  0  0  0  0  0  0
    3.5865    9.2500    3.1080 C   0  0  0  0  0  0  0  0  0  0  0  0
    3.0584    9.8124    4.2708 C   0  0  0  0  0  0  0  0  0  0  0  0
    3.8916   10.0816    5.3486 C   0  0  0  0  0  0  0  0  0  0  0  0
    5.2488    9.7852    5.2740 C   0  0  0  0  0  0  0  0  0  0  0  0
   10.4158   10.0886    2.9694 C   0  0  0  0  0  0  0  0  0  0  0  0
   11.9133    9.7926    2.7373 C   0  0  0  0  0  0  0  0  0  0  0  0
  1  2  1  0
  2  3  1  0
  2  4  1  0
  4  5  1  0
  5  6  1  0
  6  7  1  0
  7  8  1  0
  8  9  2  0
  8 10  1  0
 10 11  1  0
 11 12  2  0
 12 13  1  0
 13 14  2  0
 14 15  1  0
 15 16  2  0
  7 17  1  0
 17 18  1  0
 18  4  1  0
 16 11  1  0
M  CHG  1   3   1
M  END
>  <EmbedRMS>  (42) 
0.24964892458419108

>  <Gold.Version>  (42) 
2020.3.0

>  <Gold.Id.Protein>  (42) 
unknown|1q8t_protein|pdb

>  <Gold.PLP.Fitness>  (42) 
55.9177

>  <Gold.PLP.PLP>  (42) 
-47.9089

>  <Gold.PLP.part.hbond>  (42) 
-2.0000

>  <Gold.PLP.part.metal>  (42) 
0.0000

>  <Gold.PLP.part.buried>  (42) 
-1.6909

>  <Gold.PLP.part.nonpolar>  (42) 
-44.9911

>  <Gold.PLP.part.repulsive>  (42) 
0.0722

>  <Gold.PLP.ligand.clash>  (42) 
0.0000

>  <Gold.PLP.ligand.torsion>  (42) 
0.9270

>  <Gold.PLP.Chemscore.Hbond>  (42) 
2.9760

>  <Gold.PLP.Chemscore.CHOScore>  (42) 
0.0000

>  <Gold.PLP.Chemscore.Metal>  (42) 
0.0000

>  <Gold.Chemscore.Hbonds>  (42) 
donor molecule, donor type, donor heavy atom, donor atom, acceptor molecule, acceptor atom, score
      L1  H     3    23       P1  2691  0.99
      L1  H     3    25       P1  2902  1.98

>  <Gold.PLP.Chemscore.Internal.Correction>  (42) 
0.9348

>  <Gold.PLP.Constraint>  (42) 
-0.0000

>  <Gold.Protein.RotatedTorsions>  (42) 
[  681  677  676  673 ] final  -18.70 input -179.99 | X-H torsion
[  702  698  697  694 ] final  -71.86 input  179.99 | X-H torsion
[ 2577 2569 2568 2566 ] final  -70.26 input   -0.13 | X-H torsion
[ 2891 2887 2886 2883 ] final -171.27 input  179.98 | X-H torsion
[ 3175 3171 3170 3167 ] final   82.26 input -179.99 | X-H torsion
[ 5278 5270 5269 5267 ] final  -99.20 input    0.55 | X-H torsion
[  641  637  636  633 ] final  -76.39 input  179.99 | X-H torsion
[ 1886 1878 1877 1875 ] final -103.75 input    1.60 | X-H torsion
[  965  957  956  954 ] final   85.71 input    0.45 | X-H torsion

>  <Gold.Protein.ActiveResidues>  (42) 
 LYS47   THR48   LEU49   GLY50   THR51   GLY52   SER53   PHE54   GLY55   ARG56  
 VAL57   MET58   LEU59   TYR69   ALA70   MET71   LYS72   ILE73   LEU74   GLU91  
 LEU95   VAL104  LYS105  MET118  VAL119  MET120  GLU121  TYR122  VAL123  PRO124 
 GLY125  GLY126  GLU127  MET128  PHE129  TYR164  ASP166  LEU167  LYS168  PRO169 
 GLU170  ASN171  LEU172  LEU173  ILE174  GLN181  VAL182  THR183  ASP184  PHE185 
 GLY186  PHE187  GLY200  THR201  ASN326  PHE327  TYR330  ARG18   ARG19   ASN20  
 ALA21   ILE22   HIS23  

>  <Gold.Protein.RotatedAtoms>  (42) 
   10.4025   18.9447    7.2694 H   0  0  0  0  0  0  0  0  0  0  0  0  # atno 641  bound_to 637 
   15.7084   12.7512    6.6682 H   0  0  0  0  0  0  0  0  0  0  0  0  # atno 681  bound_to 677 
   20.4640   11.6465   -0.2711 H   0  0  0  0  0  0  0  0  0  0  0  0  # atno 702  bound_to 698 
   -7.1584   15.9773   -0.0238 H   0  0  0  0  0  0  0  0  0  0  0  0  # atno 965  bound_to 957 
    1.0864   10.6012   10.6995 H   0  0  0  0  0  0  0  0  0  0  0  0  # atno 1886 bound_to 1878
   10.7807    3.1991   -3.2467 H   0  0  0  0  0  0  0  0  0  0  0  0  # atno 2577 bound_to 2569
    7.3421    6.5944    1.4947 H   0  0  0  0  0  0  0  0  0  0  0  0  # atno 2891 bound_to 2887
   18.1825    2.0581   -1.1551 H   0  0  0  0  0  0  0  0  0  0  0  0  # atno 3175 bound_to 3171
   13.8954    9.8332   10.4095 H   0  0  0  0  0  0  0  0  0  0  0  0  # atno 5278 bound_to 5270
   16.4697   13.9417    7.4025 LP  0  0  0  0  0  0  0  0  0  0  0  0  # atno 5914 bound_to 677 
   17.1709   13.1348    6.1681 LP  0  0  0  0  0  0  0  0  0  0  0  0  # atno 5915 bound_to 677 
   20.8840   11.5848   -1.8064 LP  0  0  0  0  0  0  0  0  0  0  0  0  # atno 5920 bound_to 698 
   19.3323   11.8515   -1.3731 LP  0  0  0  0  0  0  0  0  0  0  0  0  # atno 5921 bound_to 698 
   10.4615    1.9163   -2.3591 LP  0  0  0  0  0  0  0  0  0  0  0  0  # atno 5950 bound_to 2569
    9.2578    2.7795   -3.0466 LP  0  0  0  0  0  0  0  0  0  0  0  0  # atno 5951 bound_to 2569
    8.3701    6.4281    0.2897 LP  0  0  0  0  0  0  0  0  0  0  0  0  # atno 5982 bound_to 2887
    7.5775    5.1366    0.8983 LP  0  0  0  0  0  0  0  0  0  0  0  0  # atno 5983 bound_to 2887
   19.3825    3.0222   -0.7474 LP  0  0  0  0  0  0  0  0  0  0  0  0  # atno 6000 bound_to 3171
   18.3703    2.4206    0.3841 LP  0  0  0  0  0  0  0  0  0  0  0  0  # atno 6001 bound_to 3171
   14.0838   10.1976    8.8705 LP  0  0  0  0  0  0  0  0  0  0  0  0  # atno 6004 bound_to 5270
   12.5927   10.0235    9.5131 LP  0  0  0  0  0  0  0  0  0  0  0  0  # atno 6005 bound_to 5270
   11.3177   19.5112    8.4427 LP  0  0  0  0  0  0  0  0  0  0  0  0  # atno 6055 bound_to 637 
    9.6912   19.6383    8.5136 LP  0  0  0  0  0  0  0  0  0  0  0  0  # atno 6056 bound_to 637 
    0.9415   12.1485   11.0462 LP  0  0  0  0  0  0  0  0  0  0  0  0  # atno 6063 bound_to 1878
    2.3001   11.5703   10.3486 LP  0  0  0  0  0  0  0  0  0  0  0  0  # atno 6064 bound_to 1878
   -6.5304   15.6504   -1.4499 LP  0  0  0  0  0  0  0  0  0  0  0  0  # atno 6067 bound_to 957 
   -6.7384   17.1943   -0.9606 LP  0  0  0  0  0  0  0  0  0  0  0  0  # atno 6068 bound_to 957 

>  <STRIFE_LigEff_Score>  (42) 
3.106538888888889

$$$$
unknown|pharmsElabsTestPreDocking|sdf|43|dock1
     RDKit          3D

 18 19  0  0  0  0  0  0  0  0999 V2000
   14.3908    9.5223    1.1238 C   0  0  0  0  0  0  0  0  0  0  0  0
   13.6331    8.2826    1.5687 C   0  0  0  0  0  0  0  0  0  0  0  0
   13.9722    7.0642    0.8417 N   0  0  0  0  0  0  0  0  0  0  0  0
   12.1431    8.4766    1.9853 C   0  0  0  0  0  0  0  0  0  0  0  0
   11.4529    7.3242    2.7318 C   0  0  0  0  0  0  0  0  0  0  0  0
    9.9220    7.4999    2.7293 C   0  0  0  0  0  0  0  0  0  0  0  0
    9.4562    8.9520    2.5953 C   0  0  0  0  0  0  0  0  0  0  0  0
    7.9787    9.1468    2.7373 C   0  0  0  0  0  0  0  0  0  0  0  0
    7.4312    9.5599    1.6919 O   0  0  0  0  0  0  0  0  0  0  0  0
    7.1930    8.9003    3.9266 N   0  0  0  0  0  0  0  0  0  0  0  0
    5.7768    9.2232    4.0622 C   0  0  0  0  0  0  0  0  0  0  0  0
    5.3030    9.7468    5.2806 C   0  0  0  0  0  0  0  0  0  0  0  0
    3.9503   10.0800    5.4414 C   0  0  0  0  0  0  0  0  0  0  0  0
    3.0472    9.8881    4.3951 C   0  0  0  0  0  0  0  0  0  0  0  0
    3.4915    9.3749    3.1837 C   0  0  0  0  0  0  0  0  0  0  0  0
    4.8351    9.0590    3.0091 C   0  0  0  0  0  0  0  0  0  0  0  0
   10.3752   10.1027    2.9596 C   0  0  0  0  0  0  0  0  0  0  0  0
   11.8714    9.8076    2.7191 C   0  0  0  0  0  0  0  0  0  0  0  0
  1  2  1  0
  2  3  1  0
  2  4  1  0
  4  5  1  0
  5  6  1  0
  6  7  1  0
  7  8  1  0
  8  9  2  0
  8 10  1  0
 10 11  1  0
 11 12  2  0
 12 13  1  0
 13 14  2  0
 14 15  1  0
 15 16  2  0
  7 17  1  0
 17 18  1  0
 18  4  1  0
 16 11  1  0
M  CHG  1   3   1
M  END
>  <EmbedRMS>  (43) 
0.24964892458419108

>  <Gold.Version>  (43) 
2020.3.0

>  <Gold.Id.Protein>  (43) 
unknown|1q8t_protein|pdb

>  <Gold.PLP.Fitness>  (43) 
55.7227

>  <Gold.PLP.PLP>  (43) 
-47.6741

>  <Gold.PLP.part.hbond>  (43) 
-2.0000

>  <Gold.PLP.part.metal>  (43) 
0.0000

>  <Gold.PLP.part.buried>  (43) 
-1.3900

>  <Gold.PLP.part.nonpolar>  (43) 
-45.2983

>  <Gold.PLP.part.repulsive>  (43) 
0.0697

>  <Gold.PLP.ligand.clash>  (43) 
0.0000

>  <Gold.PLP.ligand.torsion>  (43) 
0.8846

>  <Gold.PLP.Chemscore.Hbond>  (43) 
2.9600

>  <Gold.PLP.Chemscore.CHOScore>  (43) 
0.0000

>  <Gold.PLP.Chemscore.Metal>  (43) 
0.0000

>  <Gold.Chemscore.Hbonds>  (43) 
donor molecule, donor type, donor heavy atom, donor atom, acceptor molecule, acceptor atom, score
      L1  H     3    24       P1  2902  1.98
      L1  H     3    25       P1  2691  0.98

>  <Gold.PLP.Chemscore.Internal.Correction>  (43) 
0.9377

>  <Gold.PLP.Constraint>  (43) 
-0.0000

>  <Gold.Protein.RotatedTorsions>  (43) 
[  681  677  676  673 ] final  118.64 input -179.99 | X-H torsion
[  702  698  697  694 ] final -115.25 input  179.99 | X-H torsion
[ 2577 2569 2568 2566 ] final  -99.94 input   -0.13 | X-H torsion
[ 2891 2887 2886 2883 ] final  173.01 input  179.98 | X-H torsion
[ 3175 3171 3170 3167 ] final -130.27 input -179.99 | X-H torsion
[ 5278 5270 5269 5267 ] final   37.86 input    0.55 | X-H torsion
[  641  637  636  633 ] final -145.25 input  179.99 | X-H torsion
[ 1886 1878 1877 1875 ] final  176.45 input    1.60 | X-H torsion
[  965  957  956  954 ] final   29.05 input    0.45 | X-H torsion

>  <Gold.Protein.ActiveResidues>  (43) 
 LYS47   THR48   LEU49   GLY50   THR51   GLY52   SER53   PHE54   GLY55   ARG56  
 VAL57   MET58   LEU59   TYR69   ALA70   MET71   LYS72   ILE73   LEU74   GLU91  
 LEU95   VAL104  LYS105  MET118  VAL119  MET120  GLU121  TYR122  VAL123  PRO124 
 GLY125  GLY126  GLU127  MET128  PHE129  TYR164  ASP166  LEU167  LYS168  PRO169 
 GLU170  ASN171  LEU172  LEU173  ILE174  GLN181  VAL182  THR183  ASP184  PHE185 
 GLY186  PHE187  GLY200  THR201  ASN326  PHE327  TYR330  ARG18   ARG19   ASN20  
 ALA21   ILE22   HIS23  

>  <Gold.Protein.RotatedAtoms>  (43) 
   11.2766   19.1374    7.7426 H   0  0  0  0  0  0  0  0  0  0  0  0  # atno 641  bound_to 637 
   17.2257   13.3583    6.3302 H   0  0  0  0  0  0  0  0  0  0  0  0  # atno 681  bound_to 677 
   20.9858   11.5617   -0.6704 H   0  0  0  0  0  0  0  0  0  0  0  0  # atno 702  bound_to 698 
   -6.9042   15.4014   -0.5945 H   0  0  0  0  0  0  0  0  0  0  0  0  # atno 965  bound_to 957 
    0.6376   11.5931   11.0665 H   0  0  0  0  0  0  0  0  0  0  0  0  # atno 1886 bound_to 1878
   11.0284    2.8908   -3.0145 H   0  0  0  0  0  0  0  0  0  0  0  0  # atno 2577 bound_to 2569
    7.4751    6.7665    1.3819 H   0  0  0  0  0  0  0  0  0  0  0  0  # atno 2891 bound_to 2887
   18.7343    2.6648    0.3564 H   0  0  0  0  0  0  0  0  0  0  0  0  # atno 3175 bound_to 3171
   12.7055   10.1013    9.2722 H   0  0  0  0  0  0  0  0  0  0  0  0  # atno 5278 bound_to 5270
   15.8324   12.5992    6.4663 LP  0  0  0  0  0  0  0  0  0  0  0  0  # atno 5914 bound_to 677 
   16.2113   13.8383    7.4601 LP  0  0  0  0  0  0  0  0  0  0  0  0  # atno 5915 bound_to 677 
   20.2529   11.7019   -2.0777 LP  0  0  0  0  0  0  0  0  0  0  0  0  # atno 5920 bound_to 698 
   19.4146   11.8236   -0.6816 LP  0  0  0  0  0  0  0  0  0  0  0  0  # atno 5921 bound_to 698 
    9.9800    1.8807   -2.3696 LP  0  0  0  0  0  0  0  0  0  0  0  0  # atno 5950 bound_to 2569
    9.4785    3.1398   -3.2806 LP  0  0  0  0  0  0  0  0  0  0  0  0  # atno 5951 bound_to 2569
    8.3855    6.1824    0.2130 LP  0  0  0  0  0  0  0  0  0  0  0  0  # atno 5982 bound_to 2887
    7.4222    5.2011    1.0937 LP  0  0  0  0  0  0  0  0  0  0  0  0  # atno 5983 bound_to 2887
   17.9331    1.9400   -0.8133 LP  0  0  0  0  0  0  0  0  0  0  0  0  # atno 6000 bound_to 3171
   19.2389    2.8643   -1.1407 LP  0  0  0  0  0  0  0  0  0  0  0  0  # atno 6001 bound_to 3171
   13.6452    9.7864   10.5190 LP  0  0  0  0  0  0  0  0  0  0  0  0  # atno 6004 bound_to 5270
   14.2833   10.1526    9.0611 LP  0  0  0  0  0  0  0  0  0  0  0  0  # atno 6005 bound_to 5270
   10.3937   19.7932    8.8939 LP  0  0  0  0  0  0  0  0  0  0  0  0  # atno 6055 bound_to 637 
    9.6946   19.1532    7.5641 LP  0  0  0  0  0  0  0  0  0  0  0  0  # atno 6056 bound_to 637 
    2.0470   12.1297   10.5556 LP  0  0  0  0  0  0  0  0  0  0  0  0  # atno 6063 bound_to 1878
    1.6671   10.5449   10.4528 LP  0  0  0  0  0  0  0  0  0  0  0  0  # atno 6064 bound_to 1878
   -6.4422   16.5234   -1.6254 LP  0  0  0  0  0  0  0  0  0  0  0  0  # atno 6067 bound_to 957 
   -7.0944   16.9279   -0.1840 LP  0  0  0  0  0  0  0  0  0  0  0  0  # atno 6068 bound_to 957 

>  <STRIFE_LigEff_Score>  (43) 
3.095705555555556

$$$$
unknown|pharmsElabsTestPreDocking|sdf|44|dock3
     RDKit          3D

 18 19  0  0  0  0  0  0  0  0999 V2000
   14.6513    9.1440    1.3671 C   0  0  0  0  0  0  0  0  0  0  0  0
   13.7638    7.9423    1.6445 C   0  0  0  0  0  0  0  0  0  0  0  0
   14.0222    6.7821    0.7988 N   0  0  0  0  0  0  0  0  0  0  0  0
   12.2805    8.2328    2.0277 C   0  0  0  0  0  0  0  0  0  0  0  0
   11.5540    7.2037    2.9080 C   0  0  0  0  0  0  0  0  0  0  0  0
   10.0294    7.4256    2.8774 C   0  0  0  0  0  0  0  0  0  0  0  0
    9.6097    8.8637    2.5629 C   0  0  0  0  0  0  0  0  0  0  0  0
    8.1391    9.1207    2.6736 C   0  0  0  0  0  0  0  0  0  0  0  0
    7.6495    9.6435    1.6488 O   0  0  0  0  0  0  0  0  0  0  0  0
    7.3005    8.8193    3.8132 N   0  0  0  0  0  0  0  0  0  0  0  0
    5.8975    9.2012    3.9299 C   0  0  0  0  0  0  0  0  0  0  0  0
    5.4078    9.6558    5.1695 C   0  0  0  0  0  0  0  0  0  0  0  0
    4.0677   10.0430    5.3140 C   0  0  0  0  0  0  0  0  0  0  0  0
    3.1925    9.9744    4.2293 C   0  0  0  0  0  0  0  0  0  0  0  0
    3.6530    9.5309    2.9966 C   0  0  0  0  0  0  0  0  0  0  0  0
    4.9853    9.1625    2.8393 C   0  0  0  0  0  0  0  0  0  0  0  0
   10.5644   10.0213    2.7861 C   0  0  0  0  0  0  0  0  0  0  0  0
   12.0507    9.6522    2.5902 C   0  0  0  0  0  0  0  0  0  0  0  0
  1  2  1  0
  2  3  1  0
  2  4  1  0
  4  5  1  0
  5  6  1  0
  6  7  1  0
  7  8  1  0
  8  9  2  0
  8 10  1  0
 10 11  1  0
 11 12  2  0
 12 13  1  0
 13 14  2  0
 14 15  1  0
 15 16  2  0
  7 17  1  0
 17 18  1  0
 18  4  1  0
 16 11  1  0
M  CHG  1   3   1
M  END
>  <EmbedRMS>  (44) 
0.24964892458419108

>  <Gold.Version>  (44) 
2020.3.0

>  <Gold.Id.Protein>  (44) 
unknown|1q8t_protein|pdb

>  <Gold.PLP.Fitness>  (44) 
54.1427

>  <Gold.PLP.PLP>  (44) 
-46.4812

>  <Gold.PLP.part.hbond>  (44) 
-1.9341

>  <Gold.PLP.part.metal>  (44) 
0.0000

>  <Gold.PLP.part.buried>  (44) 
-2.1652

>  <Gold.PLP.part.nonpolar>  (44) 
-43.5962

>  <Gold.PLP.part.repulsive>  (44) 
0.0958

>  <Gold.PLP.ligand.clash>  (44) 
0.0000

>  <Gold.PLP.ligand.torsion>  (44) 
1.1251

>  <Gold.PLP.Chemscore.Hbond>  (44) 
2.9920

>  <Gold.PLP.Chemscore.CHOScore>  (44) 
0.0000

>  <Gold.PLP.Chemscore.Metal>  (44) 
0.0000

>  <Gold.Chemscore.Hbonds>  (44) 
donor molecule, donor type, donor heavy atom, donor atom, acceptor molecule, acceptor atom, score
      L1  H     3    24       P1  2902  2.00
      L1  H     3    25       P1  2691  0.99

>  <Gold.PLP.Chemscore.Internal.Correction>  (44) 
0.9356

>  <Gold.PLP.Constraint>  (44) 
-0.0000

>  <Gold.Protein.RotatedTorsions>  (44) 
[  681  677  676  673 ] final   30.09 input -179.99 | X-H torsion
[  702  698  697  694 ] final   81.65 input  179.99 | X-H torsion
[ 2577 2569 2568 2566 ] final -164.23 input   -0.13 | X-H torsion
[ 2891 2887 2886 2883 ] final  167.69 input  179.98 | X-H torsion
[ 3175 3171 3170 3167 ] final -111.44 input -179.99 | X-H torsion
[ 5278 5270 5269 5267 ] final -136.47 input    0.55 | X-H torsion
[  641  637  636  633 ] final   74.13 input  179.99 | X-H torsion
[ 1886 1878 1877 1875 ] final -132.31 input    1.60 | X-H torsion
[  965  957  956  954 ] final   37.83 input    0.45 | X-H torsion

>  <Gold.Protein.ActiveResidues>  (44) 
 LYS47   THR48   LEU49   GLY50   THR51   GLY52   SER53   PHE54   GLY55   ARG56  
 VAL57   MET58   LEU59   TYR69   ALA70   MET71   LYS72   ILE73   LEU74   GLU91  
 LEU95   VAL104  LYS105  MET118  VAL119  MET120  GLU121  TYR122  VAL123  PRO124 
 GLY125  GLY126  GLU127  MET128  PHE129  TYR164  ASP166  LEU167  LYS168  PRO169 
 GLU170  ASN171  LEU172  LEU173  ILE174  GLN181  VAL182  THR183  ASP184  PHE185 
 GLY186  PHE187  GLY200  THR201  ASN326  PHE327  TYR330  ARG18   ARG19   ASN20  
 ALA21   ILE22   HIS23  

>  <Gold.Protein.RotatedAtoms>  (44) 
   10.0875   19.7329    8.7788 H   0  0  0  0  0  0  0  0  0  0  0  0  # atno 641  bound_to 637 
   16.2449   12.5966    6.1825 H   0  0  0  0  0  0  0  0  0  0  0  0  # atno 681  bound_to 677 
   19.6459   11.8211   -1.8022 H   0  0  0  0  0  0  0  0  0  0  0  0  # atno 702  bound_to 698 
   -6.9576   15.4454   -0.4762 H   0  0  0  0  0  0  0  0  0  0  0  0  # atno 965  bound_to 957 
    0.7723   10.8533   10.8809 H   0  0  0  0  0  0  0  0  0  0  0  0  # atno 1886 bound_to 1878
   10.7948    2.1241   -2.4993 H   0  0  0  0  0  0  0  0  0  0  0  0  # atno 2577 bound_to 2569
    7.5253    6.8135    1.3350 H   0  0  0  0  0  0  0  0  0  0  0  0  # atno 2891 bound_to 2887
   18.9607    2.8188    0.2517 H   0  0  0  0  0  0  0  0  0  0  0  0  # atno 3175 bound_to 3171
   14.3163    9.9303   10.0336 H   0  0  0  0  0  0  0  0  0  0  0  0  # atno 5278 bound_to 5270
   15.8104   13.5269    7.3997 LP  0  0  0  0  0  0  0  0  0  0  0  0  # atno 5914 bound_to 677 
   17.2655   13.7123    6.6821 LP  0  0  0  0  0  0  0  0  0  0  0  0  # atno 5915 bound_to 677 
   19.9381   11.7222   -0.2395 LP  0  0  0  0  0  0  0  0  0  0  0  0  # atno 5920 bound_to 698 
   21.1389   11.5304   -1.3293 LP  0  0  0  0  0  0  0  0  0  0  0  0  # atno 5921 bound_to 698 
    9.2624    2.4308   -2.8042 LP  0  0  0  0  0  0  0  0  0  0  0  0  # atno 5950 bound_to 2569
   10.4421    3.3969   -3.3885 LP  0  0  0  0  0  0  0  0  0  0  0  0  # atno 5951 bound_to 2569
    8.3801    6.0962    0.1986 LP  0  0  0  0  0  0  0  0  0  0  0  0  # atno 5982 bound_to 2887
    7.3747    5.2379    1.1574 LP  0  0  0  0  0  0  0  0  0  0  0  0  # atno 5983 bound_to 2887
   17.8756    1.9371   -0.5103 LP  0  0  0  0  0  0  0  0  0  0  0  0  # atno 6000 bound_to 3171
   19.0582    2.7052   -1.3336 LP  0  0  0  0  0  0  0  0  0  0  0  0  # atno 6001 bound_to 3171
   13.5087   10.2348    8.6950 LP  0  0  0  0  0  0  0  0  0  0  0  0  # atno 6004 bound_to 5270
   12.7250    9.8841   10.0840 LP  0  0  0  0  0  0  0  0  0  0  0  0  # atno 6005 bound_to 5270
    9.9327   19.0340    7.3566 LP  0  0  0  0  0  0  0  0  0  0  0  0  # atno 6055 bound_to 637 
   11.4080   19.2853    8.0101 LP  0  0  0  0  0  0  0  0  0  0  0  0  # atno 6056 bound_to 637 
    1.3402   12.3407   10.9032 LP  0  0  0  0  0  0  0  0  0  0  0  0  # atno 6063 bound_to 1878
    2.2321   11.1127   10.3005 LP  0  0  0  0  0  0  0  0  0  0  0  0  # atno 6064 bound_to 1878
   -6.4317   16.3818   -1.6516 LP  0  0  0  0  0  0  0  0  0  0  0  0  # atno 6067 bound_to 957 
   -7.0487   17.0231   -0.2825 LP  0  0  0  0  0  0  0  0  0  0  0  0  # atno 6068 bound_to 957 

>  <STRIFE_LigEff_Score>  (44) 
3.0079277777777778

$$$$
unknown|pharmsElabsTestPreDocking|sdf|45|dock4
     RDKit          3D

 18 19  0  0  0  0  0  0  0  0999 V2000
   14.4441    7.0206    2.5351 C   0  0  0  0  0  0  0  0  0  0  0  0
   13.0685    7.3836    1.9783 C   0  0  0  0  0  0  0  0  0  0  0  0
   13.1286    8.5146    1.0501 N   0  0  0  0  0  0  0  0  0  0  0  0
   11.8782    7.4880    2.9637 C   0  0  0  0  0  0  0  0  0  0  0  0
   10.5269    7.1069    2.3412 C   0  0  0  0  0  0  0  0  0  0  0  0
    9.2849    7.6030    3.0632 C   0  0  0  0  0  0  0  0  0  0  0  0
    9.4301    9.0168    3.5664 C   0  0  0  0  0  0  0  0  0  0  0  0
    8.1375    9.6466    3.9955 C   0  0  0  0  0  0  0  0  0  0  0  0
    7.5832   10.3600    3.1254 O   0  0  0  0  0  0  0  0  0  0  0  0
    7.5157    9.5056    5.2841 N   0  0  0  0  0  0  0  0  0  0  0  0
    6.2887   10.2502    5.6030 C   0  0  0  0  0  0  0  0  0  0  0  0
    5.1448    9.7721    4.7566 C   0  0  0  0  0  0  0  0  0  0  0  0
    3.9015    9.3612    5.1894 C   0  0  0  0  0  0  0  0  0  0  0  0
    3.1399    9.0662    4.1163 N   0  0  0  0  0  0  0  0  0  0  0  0
    3.9423    9.3088    3.0571 C   0  0  0  0  0  0  0  0  0  0  0  0
    5.1644    9.7421    3.4160 N   0  0  0  0  0  0  0  0  0  0  0  0
   10.6458    9.3074    4.4024 C   0  0  0  0  0  0  0  0  0  0  0  0
   11.9343    8.8344    3.7330 C   0  0  0  0  0  0  0  0  0  0  0  0
  1  2  1  0
  2  3  1  0
  2  4  1  0
  4  5  1  0
  5  6  1  0
  6  7  1  0
  7  8  1  0
  8  9  2  0
  8 10  1  0
 10 11  1  0
 11 12  1  0
 12 13  2  0
 13 14  1  0
 14 15  2  0
 15 16  1  0
  7 17  1  0
 17 18  1  0
 18  4  1  0
 16 12  1  0
M  CHG  1   3   1
M  END
>  <EmbedRMS>  (45) 
0.29359866989900446

>  <Gold.Version>  (45) 
2020.3.0

>  <Gold.Id.Protein>  (45) 
unknown|1q8t_protein|pdb

>  <Gold.PLP.Fitness>  (45) 
53.0942

>  <Gold.PLP.PLP>  (45) 
-42.4165

>  <Gold.PLP.part.hbond>  (45) 
-2.0000

>  <Gold.PLP.part.metal>  (45) 
0.0000

>  <Gold.PLP.part.buried>  (45) 
-2.8573

>  <Gold.PLP.part.nonpolar>  (45) 
-38.4305

>  <Gold.PLP.part.repulsive>  (45) 
0.1374

>  <Gold.PLP.ligand.clash>  (45) 
0.0000

>  <Gold.PLP.ligand.torsion>  (45) 
0.7637

>  <Gold.PLP.Chemscore.Hbond>  (45) 
2.8960

>  <Gold.PLP.Chemscore.CHOScore>  (45) 
0.9738

>  <Gold.PLP.Chemscore.Metal>  (45) 
0.0000

>  <Gold.Chemscore.Hbonds>  (45) 
donor molecule, donor type, donor heavy atom, donor atom, acceptor molecule, acceptor atom, score
      L1  H     3    23       P1  2902  2.00
      P1  H  1888  1903       L1    14  0.90
      L1  C    13    35       P1  1891  0.97

>  <Gold.PLP.Chemscore.Internal.Correction>  (45) 
0.5958

>  <Gold.PLP.Constraint>  (45) 
-0.0000

>  <Gold.Protein.RotatedTorsions>  (45) 
[  681  677  676  673 ] final  133.04 input -179.99 | X-H torsion
[  702  698  697  694 ] final -179.33 input  179.99 | X-H torsion
[ 2577 2569 2568 2566 ] final  -97.51 input   -0.13 | X-H torsion
[ 2891 2887 2886 2883 ] final  -86.80 input  179.98 | X-H torsion
[ 3175 3171 3170 3167 ] final  102.04 input -179.99 | X-H torsion
[ 5278 5270 5269 5267 ] final  120.13 input    0.55 | X-H torsion
[  641  637  636  633 ] final  159.47 input  179.99 | X-H torsion
[ 1886 1878 1877 1875 ] final   45.15 input    1.60 | X-H torsion
[  965  957  956  954 ] final -178.44 input    0.45 | X-H torsion

>  <Gold.Protein.ActiveResidues>  (45) 
 LYS47   THR48   LEU49   GLY50   THR51   GLY52   SER53   PHE54   GLY55   ARG56  
 VAL57   MET58   LEU59   TYR69   ALA70   MET71   LYS72   ILE73   LEU74   GLU91  
 LEU95   VAL104  LYS105  MET118  VAL119  MET120  GLU121  TYR122  VAL123  PRO124 
 GLY125  GLY126  GLU127  MET128  PHE129  TYR164  ASP166  LEU167  LYS168  PRO169 
 GLU170  ASN171  LEU172  LEU173  ILE174  GLN181  VAL182  THR183  ASP184  PHE185 
 GLY186  PHE187  GLY200  THR201  ASN326  PHE327  TYR330  ARG18   ARG19   ASN20  
 ALA21   ILE22   HIS23  

>  <Gold.Protein.RotatedAtoms>  (45) 
   11.2440   19.5163    8.4811 H   0  0  0  0  0  0  0  0  0  0  0  0  # atno 641  bound_to 637 
   17.2525   13.5248    6.4786 H   0  0  0  0  0  0  0  0  0  0  0  0  # atno 681  bound_to 677 
   20.9757   11.5818   -1.6212 H   0  0  0  0  0  0  0  0  0  0  0  0  # atno 702  bound_to 698 
   -6.8829   17.1406   -0.6049 H   0  0  0  0  0  0  0  0  0  0  0  0  # atno 965  bound_to 957 
    2.1129   11.9707   10.4805 H   0  0  0  0  0  0  0  0  0  0  0  0  # atno 1886 bound_to 1878
   11.0160    2.9199   -3.0356 H   0  0  0  0  0  0  0  0  0  0  0  0  # atno 2577 bound_to 2569
    7.2761    5.4098    1.2874 H   0  0  0  0  0  0  0  0  0  0  0  0  # atno 2891 bound_to 2887
   18.0219    1.9716   -0.9075 H   0  0  0  0  0  0  0  0  0  0  0  0  # atno 3175 bound_to 3171
   13.7663   10.2349    8.7755 H   0  0  0  0  0  0  0  0  0  0  0  0  # atno 5278 bound_to 5270
   16.0041   12.5502    6.3114 LP  0  0  0  0  0  0  0  0  0  0  0  0  # atno 5914 bound_to 677 
   16.0114   13.7121    7.4588 LP  0  0  0  0  0  0  0  0  0  0  0  0  # atno 5915 bound_to 677 
   19.4052   11.8423   -1.5654 LP  0  0  0  0  0  0  0  0  0  0  0  0  # atno 5920 bound_to 698 
   20.2729   11.6620   -0.1939 LP  0  0  0  0  0  0  0  0  0  0  0  0  # atno 5921 bound_to 698 
   10.0193    1.8759   -2.3634 LP  0  0  0  0  0  0  0  0  0  0  0  0  # atno 5950 bound_to 2569
    9.4523    3.1140   -3.2646 LP  0  0  0  0  0  0  0  0  0  0  0  0  # atno 5951 bound_to 2569
    7.6786    6.9491    1.2154 LP  0  0  0  0  0  0  0  0  0  0  0  0  # atno 5982 bound_to 2887
    8.3385    5.8623    0.1907 LP  0  0  0  0  0  0  0  0  0  0  0  0  # atno 5983 bound_to 2887
   19.2949    2.9188   -1.0414 LP  0  0  0  0  0  0  0  0  0  0  0  0  # atno 6000 bound_to 3171
   18.6269    2.6151    0.4175 LP  0  0  0  0  0  0  0  0  0  0  0  0  # atno 6001 bound_to 3171
   12.6186    9.9430    9.8406 LP  0  0  0  0  0  0  0  0  0  0  0  0  # atno 6004 bound_to 5270
   14.1938    9.8555   10.2622 LP  0  0  0  0  0  0  0  0  0  0  0  0  # atno 6005 bound_to 5270
    9.6549   19.6136    8.4614 LP  0  0  0  0  0  0  0  0  0  0  0  0  # atno 6055 bound_to 637 
   10.4678   18.9338    7.2189 LP  0  0  0  0  0  0  0  0  0  0  0  0  # atno 6056 bound_to 637 
    1.4993   10.5019   10.5194 LP  0  0  0  0  0  0  0  0  0  0  0  0  # atno 6063 bound_to 1878
    0.6617   11.7751   11.1059 LP  0  0  0  0  0  0  0  0  0  0  0  0  # atno 6064 bound_to 1878
   -7.1104   15.6242   -0.1762 LP  0  0  0  0  0  0  0  0  0  0  0  0  # atno 6067 bound_to 957 
   -6.4487   15.9954   -1.6223 LP  0  0  0  0  0  0  0  0  0  0  0  0  # atno 6068 bound_to 957 

>  <STRIFE_LigEff_Score>  (45) 
2.9496777777777776

$$$$
unknown|pharmsElabsTestPreDocking|sdf|46|dock9
     RDKit          3D

 19 20  0  0  0  0  0  0  0  0999 V2000
   14.3965    7.0818    3.5918 C   0  0  0  0  0  0  0  0  0  0  0  0
   13.6050    7.8084    2.4940 C   0  0  0  0  0  0  0  0  0  0  0  0
   13.7212    7.0824    1.2242 N   0  0  0  0  0  0  0  0  0  0  0  0
   12.1178    8.1739    2.8371 C   0  0  0  0  0  0  0  0  0  0  0  0
   11.0438    7.2482    2.2350 C   0  0  0  0  0  0  0  0  0  0  0  0
    9.6971    7.9033    1.9917 C   0  0  0  0  0  0  0  0  0  0  0  0
    9.3016    8.8582    3.1112 C   0  0  0  0  0  0  0  0  0  0  0  0
    7.9079    9.3750    2.8587 C   0  0  0  0  0  0  0  0  0  0  0  0
    7.5548   10.5042    3.3040 O   0  0  0  0  0  0  0  0  0  0  0  0
    6.9795    8.5700    2.1326 N   0  0  0  0  0  0  0  0  0  0  0  0
    5.6253    9.0331    1.8552 C   0  0  0  0  0  0  0  0  0  0  0  0
    4.9177    9.3223    3.1391 C   0  0  0  0  0  0  0  0  0  0  0  0
    3.5497    9.6213    3.1539 C   0  0  0  0  0  0  0  0  0  0  0  0
    2.9260    9.8297    4.3422 N   0  0  0  0  0  0  0  0  0  0  0  0
    3.6023    9.7403    5.5173 C   0  0  0  0  0  0  0  0  0  0  0  0
    4.9612    9.4203    5.5054 C   0  0  0  0  0  0  0  0  0  0  0  0
    5.5871    9.2121    4.3182 N   0  0  0  0  0  0  0  0  0  0  0  0
   10.2834   10.0318    3.1996 C   0  0  0  0  0  0  0  0  0  0  0  0
   11.7741    9.6440    3.1556 C   0  0  0  0  0  0  0  0  0  0  0  0
  1  2  1  0
  2  3  1  0
  2  4  1  0
  4  5  1  0
  5  6  1  0
  6  7  1  0
  7  8  1  0
  8  9  2  0
  8 10  1  0
 10 11  1  0
 11 12  1  0
 12 13  2  0
 13 14  1  0
 14 15  2  0
 15 16  1  0
 16 17  2  0
  7 18  1  0
 18 19  1  0
 19  4  1  0
 17 12  1  0
M  CHG  1   3   1
M  END
>  <EmbedRMS>  (46) 
0.15954075783698252

>  <Gold.Version>  (46) 
2020.3.0

>  <Gold.Id.Protein>  (46) 
unknown|1q8t_protein|pdb

>  <Gold.PLP.Fitness>  (46) 
56.4638

>  <Gold.PLP.PLP>  (46) 
-41.5189

>  <Gold.PLP.part.hbond>  (46) 
-4.0000

>  <Gold.PLP.part.metal>  (46) 
0.0000

>  <Gold.PLP.part.buried>  (46) 
-1.4458

>  <Gold.PLP.part.nonpolar>  (46) 
-37.4995

>  <Gold.PLP.part.repulsive>  (46) 
0.1985

>  <Gold.PLP.ligand.clash>  (46) 
0.1299

>  <Gold.PLP.ligand.torsion>  (46) 
1.9838

>  <Gold.PLP.Chemscore.Hbond>  (46) 
5.0000

>  <Gold.PLP.Chemscore.CHOScore>  (46) 
1.1301

>  <Gold.PLP.Chemscore.Metal>  (46) 
0.0000

>  <Gold.Chemscore.Hbonds>  (46) 
donor molecule, donor type, donor heavy atom, donor atom, acceptor molecule, acceptor atom, score
      L1  H     3    24       P1  2691  1.00
      L1  H     3    25       P1  2902  2.00
      L1  H    10    33       P1  2887  1.00
      P1  H  1888  1903       L1    14  1.00
      L1  C    13    36       P1  1855  0.69
      L1  C    15    37       P1  1891  0.44

>  <Gold.PLP.Chemscore.Internal.Correction>  (46) 
0.6521

>  <Gold.PLP.Constraint>  (46) 
-0.0000

>  <Gold.Protein.RotatedTorsions>  (46) 
[  681  677  676  673 ] final  -51.96 input -179.99 | X-H torsion
[  702  698  697  694 ] final   30.60 input  179.99 | X-H torsion
[ 2577 2569 2568 2566 ] final  131.05 input   -0.13 | X-H torsion
[ 2891 2887 2886 2883 ] final  -65.19 input  179.98 | X-H torsion
[ 3175 3171 3170 3167 ] final  145.19 input -179.99 | X-H torsion
[ 5278 5270 5269 5267 ] final   50.92 input    0.55 | X-H torsion
[  641  637  636  633 ] final  -90.70 input  179.99 | X-H torsion
[ 1886 1878 1877 1875 ] final   24.38 input    1.60 | X-H torsion
[  965  957  956  954 ] final  150.58 input    0.45 | X-H torsion

>  <Gold.Protein.ActiveResidues>  (46) 
 LYS47   THR48   LEU49   GLY50   THR51   GLY52   SER53   PHE54   GLY55   ARG56  
 VAL57   MET58   LEU59   TYR69   ALA70   MET71   LYS72   ILE73   LEU74   GLU91  
 LEU95   VAL104  LYS105  MET118  VAL119  MET120  GLU121  TYR122  VAL123  PRO124 
 GLY125  GLY126  GLU127  MET128  PHE129  TYR164  ASP166  LEU167  LYS168  PRO169 
 GLU170  ASN171  LEU172  LEU173  ILE174  GLN181  VAL182  THR183  ASP184  PHE185 
 GLY186  PHE187  GLY200  THR201  ASN326  PHE327  TYR330  ARG18   ARG19   ASN20  
 ALA21   ILE22   HIS23  

>  <Gold.Protein.RotatedAtoms>  (46) 
   10.6250   18.9399    7.2846 H   0  0  0  0  0  0  0  0  0  0  0  0  # atno 641  bound_to 637 
   15.6161   13.0796    7.0510 H   0  0  0  0  0  0  0  0  0  0  0  0  # atno 681  bound_to 677 
   19.3512   11.8595   -1.0894 H   0  0  0  0  0  0  0  0  0  0  0  0  # atno 702  bound_to 698 
   -7.0586   16.9114   -0.2236 H   0  0  0  0  0  0  0  0  0  0  0  0  # atno 965  bound_to 957 
    2.2316   11.6877   10.3799 H   0  0  0  0  0  0  0  0  0  0  0  0  # atno 1886 bound_to 1878
    9.8564    1.9380   -2.4388 H   0  0  0  0  0  0  0  0  0  0  0  0  # atno 2577 bound_to 2569
    7.4426    5.2362    1.0530 H   0  0  0  0  0  0  0  0  0  0  0  0  # atno 2891 bound_to 2887
   17.9395    1.9961   -0.2543 H   0  0  0  0  0  0  0  0  0  0  0  0  # atno 3175 bound_to 3171
   12.8060   10.1448    9.1002 H   0  0  0  0  0  0  0  0  0  0  0  0  # atno 5278 bound_to 5270
   16.9377   13.9641    7.1348 LP  0  0  0  0  0  0  0  0  0  0  0  0  # atno 5914 bound_to 677 
   16.8001   12.7668    6.0330 LP  0  0  0  0  0  0  0  0  0  0  0  0  # atno 5915 bound_to 677 
   20.7317   11.5836   -0.3441 LP  0  0  0  0  0  0  0  0  0  0  0  0  # atno 5920 bound_to 698 
   20.6552   11.6286   -1.9746 LP  0  0  0  0  0  0  0  0  0  0  0  0  # atno 5921 bound_to 698 
    9.5858    3.2271   -3.3333 LP  0  0  0  0  0  0  0  0  0  0  0  0  # atno 5950 bound_to 2569
   11.1067    2.7967   -2.9230 LP  0  0  0  0  0  0  0  0  0  0  0  0  # atno 5951 bound_to 2569
    7.4558    6.7827    1.4336 LP  0  0  0  0  0  0  0  0  0  0  0  0  # atno 5982 bound_to 2887
    8.3861    6.2114    0.2192 LP  0  0  0  0  0  0  0  0  0  0  0  0  # atno 5983 bound_to 2887
   18.8601    2.5456   -1.4318 LP  0  0  0  0  0  0  0  0  0  0  0  0  # atno 6000 bound_to 3171
   19.1484    2.9624    0.1205 LP  0  0  0  0  0  0  0  0  0  0  0  0  # atno 6001 bound_to 3171
   13.4307    9.7839   10.5202 LP  0  0  0  0  0  0  0  0  0  0  0  0  # atno 6004 bound_to 5270
   14.3921   10.1094    9.2410 LP  0  0  0  0  0  0  0  0  0  0  0  0  # atno 6005 bound_to 5270
   11.1902   19.6065    8.6154 LP  0  0  0  0  0  0  0  0  0  0  0  0  # atno 6055 bound_to 637 
    9.5843   19.5479    8.3249 LP  0  0  0  0  0  0  0  0  0  0  0  0  # atno 6056 bound_to 637 
    1.1895   10.5165   10.6585 LP  0  0  0  0  0  0  0  0  0  0  0  0  # atno 6063 bound_to 1878
    0.8467   12.0584   11.0726 LP  0  0  0  0  0  0  0  0  0  0  0  0  # atno 6064 bound_to 1878
   -6.9342   15.3620   -0.5687 LP  0  0  0  0  0  0  0  0  0  0  0  0  # atno 6067 bound_to 957 
   -6.4397   16.4990   -1.6314 LP  0  0  0  0  0  0  0  0  0  0  0  0  # atno 6068 bound_to 957 

>  <STRIFE_LigEff_Score>  (46) 
2.971778947368421

$$$$
unknown|pharmsElabsTestPreDocking|sdf|47|dock4
     RDKit          3D

 19 20  0  0  0  0  0  0  0  0999 V2000
   14.6432    7.4603    2.9559 C   0  0  0  0  0  0  0  0  0  0  0  0
   13.4359    7.5754    2.0253 C   0  0  0  0  0  0  0  0  0  0  0  0
   13.5322    8.7771    1.1855 N   0  0  0  0  0  0  0  0  0  0  0  0
   12.0301    7.3990    2.6329 C   0  0  0  0  0  0  0  0  0  0  0  0
   10.7919    7.3374    1.6988 C   0  0  0  0  0  0  0  0  0  0  0  0
    9.7122    8.3758    1.9686 C   0  0  0  0  0  0  0  0  0  0  0  0
    9.4150    8.5012    3.4615 C   0  0  0  0  0  0  0  0  0  0  0  0
    8.2462    9.4217    3.6895 C   0  0  0  0  0  0  0  0  0  0  0  0
    7.7705   10.0936    2.7314 O   0  0  0  0  0  0  0  0  0  0  0  0
    7.6880    9.5424    5.0034 N   0  0  0  0  0  0  0  0  0  0  0  0
    6.5771   10.4373    5.3031 C   0  0  0  0  0  0  0  0  0  0  0  0
    5.3254    9.9204    4.6768 C   0  0  0  0  0  0  0  0  0  0  0  0
    4.1064    9.7146    5.2928 C   0  0  0  0  0  0  0  0  0  0  0  0
    3.2472    9.1944    4.3955 N   0  0  0  0  0  0  0  0  0  0  0  0
    3.8991    9.0560    3.2505 N   0  0  0  0  0  0  0  0  0  0  0  0
    3.2977    8.5424    2.0293 C   0  0  0  0  0  0  0  0  0  0  0  0
    5.1660    9.4875    3.3794 C   0  0  0  0  0  0  0  0  0  0  0  0
   10.6546    9.0331    4.1729 C   0  0  0  0  0  0  0  0  0  0  0  0
   11.8535    8.0993    4.0152 C   0  0  0  0  0  0  0  0  0  0  0  0
  1  2  1  0
  2  3  1  0
  2  4  1  0
  4  5  1  0
  5  6  1  0
  6  7  1  0
  7  8  1  0
  8  9  2  0
  8 10  1  0
 10 11  1  0
 11 12  1  0
 12 13  1  0
 13 14  2  0
 14 15  1  0
 15 16  1  0
 15 17  1  0
  7 18  1  0
 18 19  1  0
 19  4  1  0
 17 12  2  0
M  CHG  1   3   1
M  END
>  <EmbedRMS>  (47) 
0.19659211194601114

>  <Gold.Version>  (47) 
2020.3.0

>  <Gold.Id.Protein>  (47) 
unknown|1q8t_protein|pdb

>  <Gold.PLP.Fitness>  (47) 
59.8880

>  <Gold.PLP.PLP>  (47) 
-51.5970

>  <Gold.PLP.part.hbond>  (47) 
-2.0000

>  <Gold.PLP.part.metal>  (47) 
0.0000

>  <Gold.PLP.part.buried>  (47) 
-5.4613

>  <Gold.PLP.part.nonpolar>  (47) 
-43.9452

>  <Gold.PLP.part.repulsive>  (47) 
0.1331

>  <Gold.PLP.ligand.clash>  (47) 
0.0000

>  <Gold.PLP.ligand.torsion>  (47) 
0.5634

>  <Gold.PLP.Chemscore.Hbond>  (47) 
3.0000

>  <Gold.PLP.Chemscore.CHOScore>  (47) 
0.0000

>  <Gold.PLP.Chemscore.Metal>  (47) 
0.0000

>  <Gold.Chemscore.Hbonds>  (47) 
donor molecule, donor type, donor heavy atom, donor atom, acceptor molecule, acceptor atom, score
      L1  H     3    25       P1  2902  2.00
      P1  H  1888  1903       L1    14  1.00

>  <Gold.PLP.Chemscore.Internal.Correction>  (47) 
0.4179

>  <Gold.PLP.Constraint>  (47) 
-0.0000

>  <Gold.Protein.RotatedTorsions>  (47) 
[  681  677  676  673 ] final  -43.32 input -179.99 | X-H torsion
[  702  698  697  694 ] final  -10.26 input  179.99 | X-H torsion
[ 2577 2569 2568 2566 ] final  -90.78 input   -0.13 | X-H torsion
[ 2891 2887 2886 2883 ] final   15.19 input  179.98 | X-H torsion
[ 3175 3171 3170 3167 ] final  131.81 input -179.99 | X-H torsion
[ 5278 5270 5269 5267 ] final  -70.79 input    0.55 | X-H torsion
[  641  637  636  633 ] final -123.78 input  179.99 | X-H torsion
[ 1886 1878 1877 1875 ] final  125.41 input    1.60 | X-H torsion
[  965  957  956  954 ] final -108.81 input    0.45 | X-H torsion

>  <Gold.Protein.ActiveResidues>  (47) 
 LYS47   THR48   LEU49   GLY50   THR51   GLY52   SER53   PHE54   GLY55   ARG56  
 VAL57   MET58   LEU59   TYR69   ALA70   MET71   LYS72   ILE73   LEU74   GLU91  
 LEU95   VAL104  LYS105  MET118  VAL119  MET120  GLU121  TYR122  VAL123  PRO124 
 GLY125  GLY126  GLU127  MET128  PHE129  TYR164  ASP166  LEU167  LYS168  PRO169 
 GLU170  ASN171  LEU172  LEU173  ILE174  GLN181  VAL182  THR183  ASP184  PHE185 
 GLY186  PHE187  GLY200  THR201  ASN326  PHE327  TYR330  ARG18   ARG19   ASN20  
 ALA21   ILE22   HIS23  

>  <Gold.Protein.RotatedAtoms>  (47) 
   11.0802   19.0236    7.4981 H   0  0  0  0  0  0  0  0  0  0  0  0  # atno 641  bound_to 637 
   15.6140   12.9831    6.9566 H   0  0  0  0  0  0  0  0  0  0  0  0  # atno 681  bound_to 677 
   19.5936   11.8055   -0.5150 H   0  0  0  0  0  0  0  0  0  0  0  0  # atno 702  bound_to 698 
   -6.4923   16.7631   -1.4709 H   0  0  0  0  0  0  0  0  0  0  0  0  # atno 965  bound_to 957 
    1.0945   12.2073   10.9698 H   0  0  0  0  0  0  0  0  0  0  0  0  # atno 1886 bound_to 1878
   10.9738    2.9974   -3.0925 H   0  0  0  0  0  0  0  0  0  0  0  0  # atno 2577 bound_to 2569
    8.2001    5.6167    0.2667 H   0  0  0  0  0  0  0  0  0  0  0  0  # atno 2891 bound_to 2887
   17.9221    1.9565   -0.4584 H   0  0  0  0  0  0  0  0  0  0  0  0  # atno 3175 bound_to 3171
   13.4621    9.8109   10.4814 H   0  0  0  0  0  0  0  0  0  0  0  0  # atno 5278 bound_to 5270
   16.8262   13.9815    7.2211 LP  0  0  0  0  0  0  0  0  0  0  0  0  # atno 5914 bound_to 677 
   16.9138   12.8510    6.0460 LP  0  0  0  0  0  0  0  0  0  0  0  0  # atno 5915 bound_to 677 
   21.1203   11.5249   -0.8721 LP  0  0  0  0  0  0  0  0  0  0  0  0  # atno 5920 bound_to 698 
   20.0117   11.7442   -2.0508 LP  0  0  0  0  0  0  0  0  0  0  0  0  # atno 5921 bound_to 698 
   10.1290    1.8697   -2.3510 LP  0  0  0  0  0  0  0  0  0  0  0  0  # atno 5950 bound_to 2569
    9.3870    3.0386   -3.2170 LP  0  0  0  0  0  0  0  0  0  0  0  0  # atno 5951 bound_to 2569
    7.1702    5.6008    1.4813 LP  0  0  0  0  0  0  0  0  0  0  0  0  # atno 5982 bound_to 2887
    7.8745    6.9929    0.9991 LP  0  0  0  0  0  0  0  0  0  0  0  0  # atno 5983 bound_to 2887
   19.0217    2.6749   -1.3586 LP  0  0  0  0  0  0  0  0  0  0  0  0  # atno 6000 bound_to 3171
   19.0052    2.8749    0.2620 LP  0  0  0  0  0  0  0  0  0  0  0  0  # atno 6001 bound_to 3171
   14.3803   10.1154    9.2161 LP  0  0  0  0  0  0  0  0  0  0  0  0  # atno 6004 bound_to 5270
   12.7521   10.1291    9.0917 LP  0  0  0  0  0  0  0  0  0  0  0  0  # atno 6005 bound_to 5270
   10.7426   19.7607    8.8684 LP  0  0  0  0  0  0  0  0  0  0  0  0  # atno 6055 bound_to 637 
    9.5525   19.3056    7.8470 LP  0  0  0  0  0  0  0  0  0  0  0  0  # atno 6056 bound_to 637 
    2.2992   11.3946   10.3190 LP  0  0  0  0  0  0  0  0  0  0  0  0  # atno 6063 bound_to 1878
    0.9339   10.6333   10.7911 LP  0  0  0  0  0  0  0  0  0  0  0  0  # atno 6064 bound_to 1878
   -7.1666   16.6892   -0.0304 LP  0  0  0  0  0  0  0  0  0  0  0  0  # atno 6067 bound_to 957 
   -6.8038   15.3279   -0.8560 LP  0  0  0  0  0  0  0  0  0  0  0  0  # atno 6068 bound_to 957 

>  <STRIFE_LigEff_Score>  (47) 
3.1519999999999997

$$$$
unknown|pharmsElabsTestPreDocking|sdf|48|dock8
     RDKit          3D

 19 19  0  0  0  0  0  0  0  0999 V2000
    6.9902   10.7049    6.2290 C   0  0  0  0  0  0  0  0  0  0  0  0
    5.7404   10.0542    5.7190 C   0  0  0  0  0  0  0  0  0  0  0  0
    5.3679   10.0464    4.4199 C   0  0  0  0  0  0  0  0  0  0  0  0
    6.2276   10.7218    3.3665 C   0  0  0  0  0  0  0  0  0  0  0  0
    7.5714   10.1549    3.3540 N   0  0  0  0  0  0  0  0  0  0  0  0
    7.8929    8.9267    2.6924 C   0  0  0  0  0  0  0  0  0  0  0  0
    7.0250    8.3283    1.9970 O   0  0  0  0  0  0  0  0  0  0  0  0
    9.2814    8.3671    2.8239 C   0  0  0  0  0  0  0  0  0  0  0  0
    9.7706    7.8335    1.4731 C   0  0  0  0  0  0  0  0  0  0  0  0
   11.1699    7.2487    1.6121 C   0  0  0  0  0  0  0  0  0  0  0  0
   12.1546    8.3309    2.1017 C   0  0  0  0  0  0  0  0  0  0  0  0
   13.6092    7.7733    2.0865 C   0  0  0  0  0  0  0  0  0  0  0  0
   13.8703    6.9377    3.3553 C   0  0  0  0  0  0  0  0  0  0  0  0
   13.8736    6.9455    0.9025 N   0  0  0  0  0  0  0  0  0  0  0  0
   11.6845    8.8523    3.4825 C   0  0  0  0  0  0  0  0  0  0  0  0
   10.2536    9.4118    3.3994 C   0  0  0  0  0  0  0  0  0  0  0  0
    4.0984    9.3769    4.0052 C   0  0  0  0  0  0  0  0  0  0  0  0
    3.7356    9.2095    2.5533 C   0  0  0  0  0  0  0  0  0  0  0  0
    3.2976    8.9083    4.9117 N   0  0  0  0  0  0  0  0  0  0  0  0
  1  2  1  0
  2  3  2  0
  3  4  1  0
  4  5  1  0
  5  6  1  0
  6  7  2  0
  6  8  1  0
  8  9  1  0
  9 10  1  0
 10 11  1  0
 11 12  1  0
 12 13  1  0
 12 14  1  0
 11 15  1  0
 15 16  1  0
  3 17  1  0
 17 18  1  0
 17 19  2  0
 16  8  1  0
M  CHG  1  14   1
M  END
>  <EmbedRMS>  (48) 
0.029553590920788075

>  <Gold.Version>  (48) 
2020.3.0

>  <Gold.Id.Protein>  (48) 
unknown|1q8t_protein|pdb

>  <Gold.PLP.Fitness>  (48) 
50.3673

>  <Gold.PLP.PLP>  (48) 
-38.0005

>  <Gold.PLP.part.hbond>  (48) 
-5.0000

>  <Gold.PLP.part.metal>  (48) 
0.0000

>  <Gold.PLP.part.buried>  (48) 
1.2086

>  <Gold.PLP.part.nonpolar>  (48) 
-35.1145

>  <Gold.PLP.part.repulsive>  (48) 
0.0757

>  <Gold.PLP.ligand.clash>  (48) 
0.5222

>  <Gold.PLP.ligand.torsion>  (48) 
0.9425

>  <Gold.PLP.Chemscore.Hbond>  (48) 
4.8713

>  <Gold.PLP.Chemscore.CHOScore>  (48) 
0.0000

>  <Gold.PLP.Chemscore.Metal>  (48) 
0.0000

>  <Gold.Chemscore.Hbonds>  (48) 
donor molecule, donor type, donor heavy atom, donor atom, acceptor molecule, acceptor atom, score
      L1  H    14    38       P1  2902  2.00
      L1  H    14    39       P1  2691  1.00
      L1  H    19    47       P1  1891  0.01
      P1  H  2887  2891       L1     7  1.00
      P1  H  1888  1903       L1    19  0.86

>  <Gold.PLP.Chemscore.Internal.Correction>  (48) 
0.1603

>  <Gold.PLP.Constraint>  (48) 
-0.0000

>  <Gold.Protein.RotatedTorsions>  (48) 
[  681  677  676  673 ] final  -46.26 input -179.99 | X-H torsion
[  702  698  697  694 ] final   55.48 input  179.99 | X-H torsion
[ 2577 2569 2568 2566 ] final   96.48 input   -0.13 | X-H torsion
[ 2891 2887 2886 2883 ] final  155.07 input  179.98 | X-H torsion
[ 3175 3171 3170 3167 ] final -149.88 input -179.99 | X-H torsion
[ 5278 5270 5269 5267 ] final  125.21 input    0.55 | X-H torsion
[  641  637  636  633 ] final  -73.09 input  179.99 | X-H torsion
[ 1886 1878 1877 1875 ] final    2.50 input    1.60 | X-H torsion
[  965  957  956  954 ] final -160.12 input    0.45 | X-H torsion

>  <Gold.Protein.ActiveResidues>  (48) 
 LYS47   THR48   LEU49   GLY50   THR51   GLY52   SER53   PHE54   GLY55   ARG56  
 VAL57   MET58   LEU59   TYR69   ALA70   MET71   LYS72   ILE73   LEU74   GLU91  
 LEU95   VAL104  LYS105  MET118  VAL119  MET120  GLU121  TYR122  VAL123  PRO124 
 GLY125  GLY126  GLU127  MET128  PHE129  TYR164  ASP166  LEU167  LYS168  PRO169 
 GLU170  ASN171  LEU172  LEU173  ILE174  GLN181  VAL182  THR183  ASP184  PHE185 
 GLY186  PHE187  GLY200  THR201  ASN326  PHE327  TYR330  ARG18   ARG19   ASN20  
 ALA21   ILE22   HIS23  

>  <Gold.Protein.RotatedAtoms>  (48) 
   10.3514   18.9493    7.2730 H   0  0  0  0  0  0  0  0  0  0  0  0  # atno 641  bound_to 637 
   15.6126   13.0153    6.9894 H   0  0  0  0  0  0  0  0  0  0  0  0  # atno 681  bound_to 677 
   19.4153   11.8555   -1.4701 H   0  0  0  0  0  0  0  0  0  0  0  0  # atno 702  bound_to 698 
   -6.7650   17.1604   -0.8635 H   0  0  0  0  0  0  0  0  0  0  0  0  # atno 965  bound_to 957 
    2.2440   11.3539   10.3175 H   0  0  0  0  0  0  0  0  0  0  0  0  # atno 1886 bound_to 1878
    9.4399    2.1950   -2.6478 H   0  0  0  0  0  0  0  0  0  0  0  0  # atno 2577 bound_to 2569
    7.6512    6.8982    1.2095 H   0  0  0  0  0  0  0  0  0  0  0  0  # atno 2891 bound_to 2887
   18.4888    2.4842    0.3661 H   0  0  0  0  0  0  0  0  0  0  0  0  # atno 3175 bound_to 3171
   13.8418   10.2298    8.7993 H   0  0  0  0  0  0  0  0  0  0  0  0  # atno 5278 bound_to 5270
   16.8653   13.9774    7.1928 LP  0  0  0  0  0  0  0  0  0  0  0  0  # atno 5914 bound_to 677 
   16.8762   12.8211    6.0398 LP  0  0  0  0  0  0  0  0  0  0  0  0  # atno 5915 bound_to 677 
   20.3566   11.6473   -0.2020 LP  0  0  0  0  0  0  0  0  0  0  0  0  # atno 5920 bound_to 698 
   20.9628   11.5691   -1.7162 LP  0  0  0  0  0  0  0  0  0  0  0  0  # atno 5921 bound_to 698 
   10.1058    3.4145   -3.4254 LP  0  0  0  0  0  0  0  0  0  0  0  0  # atno 5950 bound_to 2569
   11.0253    2.3385   -2.6109 LP  0  0  0  0  0  0  0  0  0  0  0  0  # atno 5951 bound_to 2569
    8.3460    5.8920    0.1891 LP  0  0  0  0  0  0  0  0  0  0  0  0  # atno 5982 bound_to 2887
    7.2763    5.3529    1.2990 LP  0  0  0  0  0  0  0  0  0  0  0  0  # atno 5983 bound_to 2887
   18.0725    2.0064   -1.0948 LP  0  0  0  0  0  0  0  0  0  0  0  0  # atno 6000 bound_to 3171
   19.3579    2.9880   -0.8694 LP  0  0  0  0  0  0  0  0  0  0  0  0  # atno 6001 bound_to 3171
   12.6010    9.9624    9.7613 LP  0  0  0  0  0  0  0  0  0  0  0  0  # atno 6004 bound_to 5270
   14.1319    9.8414   10.3164 LP  0  0  0  0  0  0  0  0  0  0  0  0  # atno 6005 bound_to 5270
   11.3398   19.4877    8.3991 LP  0  0  0  0  0  0  0  0  0  0  0  0  # atno 6055 bound_to 637 
    9.7229   19.6568    8.5534 LP  0  0  0  0  0  0  0  0  0  0  0  0  # atno 6056 bound_to 637 
    0.8990   10.6592   10.8109 LP  0  0  0  0  0  0  0  0  0  0  0  0  # atno 6063 bound_to 1878
    1.1240   12.2671   10.9859 LP  0  0  0  0  0  0  0  0  0  0  0  0  # atno 6064 bound_to 1878
   -7.1779   15.8729   -0.0227 LP  0  0  0  0  0  0  0  0  0  0  0  0  # atno 6067 bound_to 957 
   -6.5053   15.7258   -1.5034 LP  0  0  0  0  0  0  0  0  0  0  0  0  # atno 6068 bound_to 957 

>  <STRIFE_LigEff_Score>  (48) 
2.6509105263157893

$$$$
unknown|pharmsElabsTestPreDocking|sdf|49|dock2
     RDKit          3D

 18 19  0  0  0  0  0  0  0  0999 V2000
   14.4240    9.5002    1.0915 C   0  0  0  0  0  0  0  0  0  0  0  0
   13.6708    8.2599    1.5421 C   0  0  0  0  0  0  0  0  0  0  0  0
   14.0059    7.0416    0.8129 N   0  0  0  0  0  0  0  0  0  0  0  0
   12.1836    8.4525    1.9693 C   0  0  0  0  0  0  0  0  0  0  0  0
   11.5217    7.3296    2.7833 C   0  0  0  0  0  0  0  0  0  0  0  0
    9.9883    7.4820    2.7936 C   0  0  0  0  0  0  0  0  0  0  0  0
    9.4980    8.9180    2.5922 C   0  0  0  0  0  0  0  0  0  0  0  0
    8.0196    9.0977    2.7451 C   0  0  0  0  0  0  0  0  0  0  0  0
    7.4477    9.4210    1.6813 O   0  0  0  0  0  0  0  0  0  0  0  0
    7.2579    8.9284    3.9632 N   0  0  0  0  0  0  0  0  0  0  0  0
    5.8384    9.2363    4.0988 C   0  0  0  0  0  0  0  0  0  0  0  0
    4.9655    8.9465    3.0325 C   0  0  0  0  0  0  0  0  0  0  0  0
    3.5933    9.2177    3.1338 C   0  0  0  0  0  0  0  0  0  0  0  0
    3.0710    9.7904    4.2941 C   0  0  0  0  0  0  0  0  0  0  0  0
    3.9122   10.0833    5.3595 C   0  0  0  0  0  0  0  0  0  0  0  0
    5.2717    9.8004    5.2750 C   0  0  0  0  0  0  0  0  0  0  0  0
   10.4035   10.0996    2.8843 C   0  0  0  0  0  0  0  0  0  0  0  0
   11.9009    9.8152    2.6380 C   0  0  0  0  0  0  0  0  0  0  0  0
  1  2  1  0
  2  3  1  0
  2  4  1  0
  4  5  1  0
  5  6  1  0
  6  7  1  0
  7  8  1  0
  8  9  2  0
  8 10  1  0
 10 11  1  0
 11 12  2  0
 12 13  1  0
 13 14  2  0
 14 15  1  0
 15 16  2  0
  7 17  1  0
 17 18  1  0
 18  4  1  0
 16 11  1  0
M  CHG  1   3   1
M  END
>  <EmbedRMS>  (49) 
0.24964892458419108

>  <Gold.Version>  (49) 
2020.3.0

>  <Gold.Id.Protein>  (49) 
unknown|1q8t_protein|pdb

>  <Gold.PLP.Fitness>  (49) 
56.1891

>  <Gold.PLP.PLP>  (49) 
-48.1062

>  <Gold.PLP.part.hbond>  (49) 
-2.0000

>  <Gold.PLP.part.metal>  (49) 
0.0000

>  <Gold.PLP.part.buried>  (49) 
-1.3758

>  <Gold.PLP.part.nonpolar>  (49) 
-44.8811

>  <Gold.PLP.part.repulsive>  (49) 
0.0731

>  <Gold.PLP.ligand.clash>  (49) 
0.0000

>  <Gold.PLP.ligand.torsion>  (49) 
0.9201

>  <Gold.PLP.Chemscore.Hbond>  (49) 
2.9920

>  <Gold.PLP.Chemscore.CHOScore>  (49) 
0.0000

>  <Gold.PLP.Chemscore.Metal>  (49) 
0.0000

>  <Gold.Chemscore.Hbonds>  (49) 
donor molecule, donor type, donor heavy atom, donor atom, acceptor molecule, acceptor atom, score
      L1  H     3    23       P1  2902  2.00
      L1  H     3    24       P1  2691  0.99

>  <Gold.PLP.Chemscore.Internal.Correction>  (49) 
0.9472

>  <Gold.PLP.Constraint>  (49) 
-0.0000

>  <Gold.Protein.RotatedTorsions>  (49) 
[  681  677  676  673 ] final    7.59 input -179.99 | X-H torsion
[  702  698  697  694 ] final  175.56 input  179.99 | X-H torsion
[ 2577 2569 2568 2566 ] final   83.21 input   -0.13 | X-H torsion
[ 2891 2887 2886 2883 ] final  -30.66 input  179.98 | X-H torsion
[ 3175 3171 3170 3167 ] final  -75.18 input -179.99 | X-H torsion
[ 5278 5270 5269 5267 ] final   56.09 input    0.55 | X-H torsion
[  641  637  636  633 ] final  144.51 input  179.99 | X-H torsion
[ 1886 1878 1877 1875 ] final  155.98 input    1.60 | X-H torsion
[  965  957  956  954 ] final   56.68 input    0.45 | X-H torsion

>  <Gold.Protein.ActiveResidues>  (49) 
 LYS47   THR48   LEU49   GLY50   THR51   GLY52   SER53   PHE54   GLY55   ARG56  
 VAL57   MET58   LEU59   TYR69   ALA70   MET71   LYS72   ILE73   LEU74   GLU91  
 LEU95   VAL104  LYS105  MET118  VAL119  MET120  GLU121  TYR122  VAL123  PRO124 
 GLY125  GLY126  GLU127  MET128  PHE129  TYR164  ASP166  LEU167  LYS168  PRO169 
 GLU170  ASN171  LEU172  LEU173  ILE174  GLN181  VAL182  THR183  ASP184  PHE185 
 GLY186  PHE187  GLY200  THR201  ASN326  PHE327  TYR330  ARG18   ARG19   ASN20  
 ALA21   ILE22   HIS23  

>  <Gold.Protein.RotatedAtoms>  (49) 
   11.1027   19.6068    8.6428 H   0  0  0  0  0  0  0  0  0  0  0  0  # atno 641  bound_to 637 
   15.9537   12.6092    6.3755 H   0  0  0  0  0  0  0  0  0  0  0  0  # atno 681  bound_to 677 
   20.9303   11.5911   -1.6862 H   0  0  0  0  0  0  0  0  0  0  0  0  # atno 702  bound_to 698 
   -7.0588   15.6032   -0.2506 H   0  0  0  0  0  0  0  0  0  0  0  0  # atno 965  bound_to 957 
    0.7606   11.8865   11.0623 H   0  0  0  0  0  0  0  0  0  0  0  0  # atno 1886 bound_to 1878
    9.3439    2.3422   -2.7570 H   0  0  0  0  0  0  0  0  0  0  0  0  # atno 2577 bound_to 2569
    7.7857    5.2044    0.6480 H   0  0  0  0  0  0  0  0  0  0  0  0  # atno 2891 bound_to 2887
   19.2830    3.0030   -0.1640 H   0  0  0  0  0  0  0  0  0  0  0  0  # atno 3175 bound_to 3171
   12.8564   10.1604    9.0391 H   0  0  0  0  0  0  0  0  0  0  0  0  # atno 5278 bound_to 5270
   16.0846   13.7637    7.4646 LP  0  0  0  0  0  0  0  0  0  0  0  0  # atno 5914 bound_to 677 
   17.2979   13.4622    6.4141 LP  0  0  0  0  0  0  0  0  0  0  0  0  # atno 5915 bound_to 677 
   19.3705   11.8470   -1.4891 LP  0  0  0  0  0  0  0  0  0  0  0  0  # atno 5920 bound_to 698 
   20.3553   11.6476   -0.2018 LP  0  0  0  0  0  0  0  0  0  0  0  0  # atno 5921 bound_to 698 
   10.3231    3.4148   -3.4097 LP  0  0  0  0  0  0  0  0  0  0  0  0  # atno 5950 bound_to 2569
   10.9091    2.1833   -2.5116 LP  0  0  0  0  0  0  0  0  0  0  0  0  # atno 5951 bound_to 2569
    7.1994    6.3215    1.6201 LP  0  0  0  0  0  0  0  0  0  0  0  0  # atno 5982 bound_to 2887
    8.2814    6.7061    0.4590 LP  0  0  0  0  0  0  0  0  0  0  0  0  # atno 5983 bound_to 2887
   17.9913    2.0952    0.0427 LP  0  0  0  0  0  0  0  0  0  0  0  0  # atno 6000 bound_to 3171
   18.6034    2.3532   -1.4491 LP  0  0  0  0  0  0  0  0  0  0  0  0  # atno 6001 bound_to 3171
   13.3466    9.7861   10.5075 LP  0  0  0  0  0  0  0  0  0  0  0  0  # atno 6004 bound_to 5270
   14.4230   10.0907    9.3179 LP  0  0  0  0  0  0  0  0  0  0  0  0  # atno 6005 bound_to 5270
    9.5606   19.5148    8.2574 LP  0  0  0  0  0  0  0  0  0  0  0  0  # atno 6055 bound_to 637 
   10.7109   18.9373    7.2524 LP  0  0  0  0  0  0  0  0  0  0  0  0  # atno 6056 bound_to 637 
    2.2236   11.8723   10.4339 LP  0  0  0  0  0  0  0  0  0  0  0  0  # atno 6063 bound_to 1878
    1.3611   10.4933   10.5789 LP  0  0  0  0  0  0  0  0  0  0  0  0  # atno 6064 bound_to 1878
   -6.4398   16.0733   -1.6402 LP  0  0  0  0  0  0  0  0  0  0  0  0  # atno 6067 bound_to 957 
   -6.9340   17.1655   -0.5314 LP  0  0  0  0  0  0  0  0  0  0  0  0  # atno 6068 bound_to 957 

>  <STRIFE_LigEff_Score>  (49) 
3.1216166666666667

$$$$
unknown|pharmsElabsTestPreDocking|sdf|50|dock9
     RDKit          3D

 15 15  0  0  0  0  0  0  0  0999 V2000
    4.5481    9.7895    5.3006 C   0  0  0  0  0  0  0  0  0  0  0  0
    5.2511    9.3970    4.0336 C   0  0  0  0  0  0  0  0  0  0  0  0
    4.5475    8.8164    2.8384 C   0  0  0  0  0  0  0  0  0  0  0  0
    6.6253    8.8977    4.2347 N   0  0  0  0  0  0  0  0  0  0  0  0
    7.5277    9.1892    3.1528 C   0  0  0  0  0  0  0  0  0  0  0  0
    7.0704    9.7203    2.1111 O   0  0  0  0  0  0  0  0  0  0  0  0
    8.9865    8.9333    3.0688 C   0  0  0  0  0  0  0  0  0  0  0  0
    9.3233    7.4942    2.7830 C   0  0  0  0  0  0  0  0  0  0  0  0
   10.7504    7.3188    2.3014 C   0  0  0  0  0  0  0  0  0  0  0  0
   11.7861    8.1726    3.0326 C   0  0  0  0  0  0  0  0  0  0  0  0
   13.2589    7.9335    2.5494 C   0  0  0  0  0  0  0  0  0  0  0  0
   14.2499    7.4224    3.6087 C   0  0  0  0  0  0  0  0  0  0  0  0
   13.3257    7.0948    1.3494 N   0  0  0  0  0  0  0  0  0  0  0  0
   11.3722    9.6098    3.4193 C   0  0  0  0  0  0  0  0  0  0  0  0
    9.9258    9.7416    3.9223 C   0  0  0  0  0  0  0  0  0  0  0  0
  1  2  1  0
  2  3  1  0
  2  4  1  0
  4  5  1  0
  5  6  2  0
  5  7  1  0
  7  8  1  0
  8  9  1  0
  9 10  1  0
 10 11  1  0
 11 12  1  0
 11 13  1  0
 10 14  1  0
 14 15  1  0
 15  7  1  0
M  CHG  1  13   1
M  END
>  <EmbedRMS>  (50) 
0.35838126622633487

>  <Gold.Version>  (50) 
2020.3.0

>  <Gold.Id.Protein>  (50) 
unknown|1q8t_protein|pdb

>  <Gold.PLP.Fitness>  (50) 
42.1274

>  <Gold.PLP.PLP>  (50) 
-35.9644

>  <Gold.PLP.part.hbond>  (50) 
-1.9819

>  <Gold.PLP.part.metal>  (50) 
0.0000

>  <Gold.PLP.part.buried>  (50) 
-3.8795

>  <Gold.PLP.part.nonpolar>  (50) 
-30.0854

>  <Gold.PLP.part.repulsive>  (50) 
0.0354

>  <Gold.PLP.ligand.clash>  (50) 
0.0000

>  <Gold.PLP.ligand.torsion>  (50) 
1.8268

>  <Gold.PLP.Chemscore.Hbond>  (50) 
2.8320

>  <Gold.PLP.Chemscore.CHOScore>  (50) 
0.0000

>  <Gold.PLP.Chemscore.Metal>  (50) 
0.0000

>  <Gold.Chemscore.Hbonds>  (50) 
donor molecule, donor type, donor heavy atom, donor atom, acceptor molecule, acceptor atom, score
      L1  H    13    34       P1  2902  2.00
      L1  H    13    35       P1  2691  0.83

>  <Gold.PLP.Chemscore.Internal.Correction>  (50) 
1.3205

>  <Gold.PLP.Constraint>  (50) 
-0.0000

>  <Gold.Protein.RotatedTorsions>  (50) 
[  681  677  676  673 ] final   51.01 input -179.99 | X-H torsion
[  702  698  697  694 ] final    4.40 input  179.99 | X-H torsion
[ 2577 2569 2568 2566 ] final -130.09 input   -0.13 | X-H torsion
[ 2891 2887 2886 2883 ] final  177.98 input  179.98 | X-H torsion
[ 3175 3171 3170 3167 ] final  136.28 input -179.99 | X-H torsion
[ 5278 5270 5269 5267 ] final  -31.54 input    0.55 | X-H torsion
[  641  637  636  633 ] final   29.80 input  179.99 | X-H torsion
[ 1886 1878 1877 1875 ] final  171.61 input    1.60 | X-H torsion
[  965  957  956  954 ] final -116.67 input    0.45 | X-H torsion

>  <Gold.Protein.ActiveResidues>  (50) 
 LYS47   THR48   LEU49   GLY50   THR51   GLY52   SER53   PHE54   GLY55   ARG56  
 VAL57   MET58   LEU59   TYR69   ALA70   MET71   LYS72   ILE73   LEU74   GLU91  
 LEU95   VAL104  LYS105  MET118  VAL119  MET120  GLU121  TYR122  VAL123  PRO124 
 GLY125  GLY126  GLU127  MET128  PHE129  TYR164  ASP166  LEU167  LYS168  PRO169 
 GLU170  ASN171  LEU172  LEU173  ILE174  GLN181  VAL182  THR183  ASP184  PHE185 
 GLY186  PHE187  GLY200  THR201  ASN326  PHE327  TYR330  ARG18   ARG19   ASN20  
 ALA21   ILE22   HIS23  

>  <Gold.Protein.RotatedAtoms>  (50) 
    9.6308   19.5271    8.3256 H   0  0  0  0  0  0  0  0  0  0  0  0  # atno 641  bound_to 637 
   16.5422   12.6775    6.0786 H   0  0  0  0  0  0  0  0  0  0  0  0  # atno 681  bound_to 677 
   19.4604   11.8326   -0.6988 H   0  0  0  0  0  0  0  0  0  0  0  0  # atno 702  bound_to 698 
   -6.5225   16.8606   -1.4026 H   0  0  0  0  0  0  0  0  0  0  0  0  # atno 965  bound_to 957 
    0.6580   11.6659   11.0699 H   0  0  0  0  0  0  0  0  0  0  0  0  # atno 1886 bound_to 1878
   11.0515    2.5094   -2.7480 H   0  0  0  0  0  0  0  0  0  0  0  0  # atno 2577 bound_to 2569
    7.4304    6.7172    1.4220 H   0  0  0  0  0  0  0  0  0  0  0  0  # atno 2891 bound_to 2887
   17.9235    1.9666   -0.3893 H   0  0  0  0  0  0  0  0  0  0  0  0  # atno 3175 bound_to 3171
   12.9122    9.8641   10.2426 H   0  0  0  0  0  0  0  0  0  0  0  0  # atno 5278 bound_to 5270
   15.6409   13.2701    7.2501 LP  0  0  0  0  0  0  0  0  0  0  0  0  # atno 5914 bound_to 677 
   17.1222   13.8840    6.9411 LP  0  0  0  0  0  0  0  0  0  0  0  0  # atno 5915 bound_to 677 
   21.0250   11.5375   -0.6516 LP  0  0  0  0  0  0  0  0  0  0  0  0  # atno 5920 bound_to 698 
   20.2471   11.7029   -2.0779 LP  0  0  0  0  0  0  0  0  0  0  0  0  # atno 5921 bound_to 698 
    9.5444    2.0497   -2.5188 LP  0  0  0  0  0  0  0  0  0  0  0  0  # atno 5950 bound_to 2569
    9.8898    3.3724   -3.4120 LP  0  0  0  0  0  0  0  0  0  0  0  0  # atno 5951 bound_to 2569
    8.3857    6.2620    0.2318 LP  0  0  0  0  0  0  0  0  0  0  0  0  # atno 5982 bound_to 2887
    7.4691    5.1734    1.0327 LP  0  0  0  0  0  0  0  0  0  0  0  0  # atno 5983 bound_to 2887
   18.9697    2.6324   -1.3883 LP  0  0  0  0  0  0  0  0  0  0  0  0  # atno 6000 bound_to 3171
   19.0557    2.9066    0.2192 LP  0  0  0  0  0  0  0  0  0  0  0  0  # atno 6001 bound_to 3171
   14.4467    9.9652    9.8278 LP  0  0  0  0  0  0  0  0  0  0  0  0  # atno 6004 bound_to 5270
   13.2643   10.2233    8.7314 LP  0  0  0  0  0  0  0  0  0  0  0  0  # atno 6005 bound_to 5270
   10.6260   18.9327    7.2341 LP  0  0  0  0  0  0  0  0  0  0  0  0  # atno 6055 bound_to 637 
   11.1955   19.6034    8.6098 LP  0  0  0  0  0  0  0  0  0  0  0  0  # atno 6056 bound_to 637 
    2.0967   12.0758   10.5245 LP  0  0  0  0  0  0  0  0  0  0  0  0  # atno 6063 bound_to 1878
    1.5959   10.5222   10.4803 LP  0  0  0  0  0  0  0  0  0  0  0  0  # atno 6064 bound_to 1878
   -7.1880   16.5699    0.0143 LP  0  0  0  0  0  0  0  0  0  0  0  0  # atno 6067 bound_to 957 
   -6.7506   15.3446   -0.9726 LP  0  0  0  0  0  0  0  0  0  0  0  0  # atno 6068 bound_to 957 

>  <STRIFE_LigEff_Score>  (50) 
2.8084933333333333

$$$$
unknown|pharmsElabsTestPreDocking|sdf|51|dock8
     RDKit          3D

 19 20  0  0  0  0  0  0  0  0999 V2000
   14.0081    9.8688    0.9062 C   0  0  0  0  0  0  0  0  0  0  0  0
   13.6596    8.5960    1.6762 C   0  0  0  0  0  0  0  0  0  0  0  0
   13.8868    7.3883    0.8798 N   0  0  0  0  0  0  0  0  0  0  0  0
   12.3227    8.5487    2.4565 C   0  0  0  0  0  0  0  0  0  0  0  0
   11.3666    7.4474    1.9758 C   0  0  0  0  0  0  0  0  0  0  0  0
    9.9030    7.6103    2.3516 C   0  0  0  0  0  0  0  0  0  0  0  0
    9.4240    9.0347    2.2251 C   0  0  0  0  0  0  0  0  0  0  0  0
    7.9317    9.1835    2.2719 C   0  0  0  0  0  0  0  0  0  0  0  0
    7.3109    8.1467    2.6120 O   0  0  0  0  0  0  0  0  0  0  0  0
    7.1823   10.3695    1.9535 N   0  0  0  0  0  0  0  0  0  0  0  0
    5.7132   10.2922    1.9749 C   0  0  0  0  0  0  0  0  0  0  0  0
    5.1836   10.0808    3.3557 C   0  0  0  0  0  0  0  0  0  0  0  0
    5.8460   10.3627    4.5345 C   0  0  0  0  0  0  0  0  0  0  0  0
    5.0469   10.0863    5.5844 N   0  0  0  0  0  0  0  0  0  0  0  0
    3.8768    9.6312    5.0956 C   0  0  0  0  0  0  0  0  0  0  0  0
    3.9348    9.6179    3.7205 C   0  0  0  0  0  0  0  0  0  0  0  0
    2.8779    9.2119    2.8517 N   0  0  0  0  0  0  0  0  0  0  0  0
   10.2423   10.0819    2.9271 C   0  0  0  0  0  0  0  0  0  0  0  0
   11.7280    9.9758    2.5904 C   0  0  0  0  0  0  0  0  0  0  0  0
  1  2  1  0
  2  3  1  0
  2  4  1  0
  4  5  1  0
  5  6  1  0
  6  7  1  0
  7  8  1  0
  8  9  2  0
  8 10  1  0
 10 11  1  0
 11 12  1  0
 12 13  2  0
 13 14  1  0
 14 15  1  0
 15 16  2  0
 16 17  1  0
  7 18  1  0
 18 19  1  0
 19  4  1  0
 16 12  1  0
M  CHG  1   3   1
M  END
>  <EmbedRMS>  (51) 
0.2848972241218716

>  <Gold.Version>  (51) 
2020.3.0

>  <Gold.Id.Protein>  (51) 
unknown|1q8t_protein|pdb

>  <Gold.PLP.Fitness>  (51) 
60.8199

>  <Gold.PLP.PLP>  (51) 
-43.1230

>  <Gold.PLP.part.hbond>  (51) 
-4.1313

>  <Gold.PLP.part.metal>  (51) 
0.0000

>  <Gold.PLP.part.buried>  (51) 
-2.4877

>  <Gold.PLP.part.nonpolar>  (51) 
-36.9396

>  <Gold.PLP.part.repulsive>  (51) 
0.0469

>  <Gold.PLP.ligand.clash>  (51) 
0.0443

>  <Gold.PLP.ligand.torsion>  (51) 
1.7461

>  <Gold.PLP.Chemscore.Hbond>  (51) 
5.8720

>  <Gold.PLP.Chemscore.CHOScore>  (51) 
1.0000

>  <Gold.PLP.Chemscore.Metal>  (51) 
0.0000

>  <Gold.Chemscore.Hbonds>  (51) 
donor molecule, donor type, donor heavy atom, donor atom, acceptor molecule, acceptor atom, score
      L1  H     3    24       P1  2902  2.00
      L1  H     3    26       P1  2691  0.96
      L1  H    17    39       P1  1855  1.00
      L1  H    17    40       P1  1855  1.00
      P1  H  2887  2891       L1     9  0.91
      L1  C    15    38       P1  1891  1.00

>  <Gold.PLP.Chemscore.Internal.Correction>  (51) 
0.6175

>  <Gold.PLP.Constraint>  (51) 
-0.0000

>  <Gold.Protein.RotatedTorsions>  (51) 
[  681  677  676  673 ] final -164.34 input -179.99 | X-H torsion
[  702  698  697  694 ] final  -84.19 input  179.99 | X-H torsion
[ 2577 2569 2568 2566 ] final  141.21 input   -0.13 | X-H torsion
[ 2891 2887 2886 2883 ] final  147.14 input  179.98 | X-H torsion
[ 3175 3171 3170 3167 ] final   36.69 input -179.99 | X-H torsion
[ 5278 5270 5269 5267 ] final -149.28 input    0.55 | X-H torsion
[  641  637  636  633 ] final -147.79 input  179.99 | X-H torsion
[ 1886 1878 1877 1875 ] final  -11.66 input    1.60 | X-H torsion
[  965  957  956  954 ] final -172.71 input    0.45 | X-H torsion

>  <Gold.Protein.ActiveResidues>  (51) 
 LYS47   THR48   LEU49   GLY50   THR51   GLY52   SER53   PHE54   GLY55   ARG56  
 VAL57   MET58   LEU59   TYR69   ALA70   MET71   LYS72   ILE73   LEU74   GLU91  
 LEU95   VAL104  LYS105  MET118  VAL119  MET120  GLU121  TYR122  VAL123  PRO124 
 GLY125  GLY126  GLU127  MET128  PHE129  TYR164  ASP166  LEU167  LYS168  PRO169 
 GLU170  ASN171  LEU172  LEU173  ILE174  GLN181  VAL182  THR183  ASP184  PHE185 
 GLY186  PHE187  GLY200  THR201  ASN326  PHE327  TYR330  ARG18   ARG19   ASN20  
 ALA21   ILE22   HIS23  

>  <Gold.Protein.RotatedAtoms>  (51) 
   11.2928   19.1532    7.7752 H   0  0  0  0  0  0  0  0  0  0  0  0  # atno 641  bound_to 637 
   16.8131   13.9553    7.1776 H   0  0  0  0  0  0  0  0  0  0  0  0  # atno 681  bound_to 677 
   20.6405   11.6166   -0.3417 H   0  0  0  0  0  0  0  0  0  0  0  0  # atno 702  bound_to 698 
   -6.8463   17.1566   -0.6849 H   0  0  0  0  0  0  0  0  0  0  0  0  # atno 965  bound_to 957 
    2.1892   11.1404   10.3052 H   0  0  0  0  0  0  0  0  0  0  0  0  # atno 1886 bound_to 1878
   10.0085    1.9073   -2.4063 H   0  0  0  0  0  0  0  0  0  0  0  0  # atno 2577 bound_to 2569
    7.7331    6.9310    1.1226 H   0  0  0  0  0  0  0  0  0  0  0  0  # atno 2891 bound_to 2887
   18.7174    2.4214   -1.4066 H   0  0  0  0  0  0  0  0  0  0  0  0  # atno 3175 bound_to 3171
   14.3921    9.9754    9.8541 H   0  0  0  0  0  0  0  0  0  0  0  0  # atno 5278 bound_to 5270
   16.9009   12.8405    6.0436 LP  0  0  0  0  0  0  0  0  0  0  0  0  # atno 5914 bound_to 677 
   15.5770   12.9687    6.9909 LP  0  0  0  0  0  0  0  0  0  0  0  0  # atno 5915 bound_to 677 
   20.7284   11.6148   -1.9322 LP  0  0  0  0  0  0  0  0  0  0  0  0  # atno 5920 bound_to 698 
   19.3024   11.8530   -1.1730 LP  0  0  0  0  0  0  0  0  0  0  0  0  # atno 5921 bound_to 698 
    9.4659    3.1277   -3.2731 LP  0  0  0  0  0  0  0  0  0  0  0  0  # atno 5950 bound_to 2569
   11.0664    2.9284   -3.0175 LP  0  0  0  0  0  0  0  0  0  0  0  0  # atno 5951 bound_to 2569
    8.3100    5.7673    0.2010 LP  0  0  0  0  0  0  0  0  0  0  0  0  # atno 5982 bound_to 2887
    7.2262    5.4431    1.3786 LP  0  0  0  0  0  0  0  0  0  0  0  0  # atno 5983 bound_to 2887
   19.2496    3.0177   -0.0293 LP  0  0  0  0  0  0  0  0  0  0  0  0  # atno 6000 bound_to 3171
   17.9403    2.0427   -0.0693 LP  0  0  0  0  0  0  0  0  0  0  0  0  # atno 6001 bound_to 3171
   13.3002   10.2260    8.7220 LP  0  0  0  0  0  0  0  0  0  0  0  0  # atno 6004 bound_to 5270
   12.8537    9.8455   10.2459 LP  0  0  0  0  0  0  0  0  0  0  0  0  # atno 6005 bound_to 5270
   10.3522   19.7931    8.8891 LP  0  0  0  0  0  0  0  0  0  0  0  0  # atno 6055 bound_to 637 
    9.7191   19.1367    7.5345 LP  0  0  0  0  0  0  0  0  0  0  0  0  # atno 6056 bound_to 637 
    0.7501   10.8124   10.9027 LP  0  0  0  0  0  0  0  0  0  0  0  0  # atno 6063 bound_to 1878
    1.3307   12.3387   10.9071 LP  0  0  0  0  0  0  0  0  0  0  0  0  # atno 6064 bound_to 1878
   -7.1350   15.6960   -0.1205 LP  0  0  0  0  0  0  0  0  0  0  0  0  # atno 6067 bound_to 957 
   -6.4626   15.9067   -1.5936 LP  0  0  0  0  0  0  0  0  0  0  0  0  # atno 6068 bound_to 957 

>  <STRIFE_LigEff_Score>  (51) 
3.2010473684210523

$$$$
unknown|pharmsElabsTestPreDocking|sdf|52|dock8
     RDKit          3D

 16 16  0  0  0  0  0  0  0  0999 V2000
   14.0831    9.3613    1.4000 C   0  0  0  0  0  0  0  0  0  0  0  0
   13.4491    8.1051    1.9971 C   0  0  0  0  0  0  0  0  0  0  0  0
   13.2515    7.0757    0.9674 N   0  0  0  0  0  0  0  0  0  0  0  0
   12.2101    8.2744    2.8985 C   0  0  0  0  0  0  0  0  0  0  0  0
   11.1034    7.1861    2.8957 C   0  0  0  0  0  0  0  0  0  0  0  0
    9.7054    7.6716    2.5410 C   0  0  0  0  0  0  0  0  0  0  0  0
    9.3610    8.9698    3.2688 C   0  0  0  0  0  0  0  0  0  0  0  0
    7.9267    9.3506    3.0142 C   0  0  0  0  0  0  0  0  0  0  0  0
    7.5568    9.6277    1.8413 O   0  0  0  0  0  0  0  0  0  0  0  0
    7.0088    9.4062    4.1181 N   0  0  0  0  0  0  0  0  0  0  0  0
    5.6183    9.7736    4.0603 C   0  0  0  0  0  0  0  0  0  0  0  0
    4.9165    9.9229    2.5875 S   0  0  0  0  0  0  0  0  0  0  0  0
    4.7192    9.8071    5.2698 C   0  0  0  0  0  0  0  0  0  0  0  0
    3.5874    8.9001    5.1027 N   0  0  0  0  0  0  0  0  0  0  0  0
   10.2932   10.0748    2.7840 C   0  0  0  0  0  0  0  0  0  0  0  0
   11.7594    9.7574    3.0706 C   0  0  0  0  0  0  0  0  0  0  0  0
  1  2  1  0
  2  3  1  0
  2  4  1  0
  4  5  1  0
  5  6  1  0
  6  7  1  0
  7  8  1  0
  8  9  2  0
  8 10  1  0
 10 11  1  0
 11 12  2  0
 11 13  1  0
 13 14  1  0
  7 15  1  0
 15 16  1  0
 16  4  1  0
M  CHG  1   3   1
M  END
>  <EmbedRMS>  (52) 
0.21492586170883154

>  <Gold.Version>  (52) 
2020.3.0

>  <Gold.Id.Protein>  (52) 
unknown|1q8t_protein|pdb

>  <Gold.PLP.Fitness>  (52) 
42.8792

>  <Gold.PLP.PLP>  (52) 
-34.0517

>  <Gold.PLP.part.hbond>  (52) 
-3.2007

>  <Gold.PLP.part.metal>  (52) 
0.0000

>  <Gold.PLP.part.buried>  (52) 
-4.1056

>  <Gold.PLP.part.nonpolar>  (52) 
-26.8510

>  <Gold.PLP.part.repulsive>  (52) 
0.0480

>  <Gold.PLP.ligand.clash>  (52) 
0.0000

>  <Gold.PLP.ligand.torsion>  (52) 
1.3378

>  <Gold.PLP.Chemscore.Hbond>  (52) 
3.6880

>  <Gold.PLP.Chemscore.CHOScore>  (52) 
0.0000

>  <Gold.PLP.Chemscore.Metal>  (52) 
0.0000

>  <Gold.Chemscore.Hbonds>  (52) 
donor molecule, donor type, donor heavy atom, donor atom, acceptor molecule, acceptor atom, score
      L1  H     3    21       P1  2902  2.00
      L1  H     3    22       P1  2691  0.69
      L1  H    14    34       P1  1891  1.00

>  <Gold.PLP.Chemscore.Internal.Correction>  (52) 
0.4390

>  <Gold.PLP.Constraint>  (52) 
-0.0000

>  <Gold.Protein.RotatedTorsions>  (52) 
[  681  677  676  673 ] final  150.85 input -179.99 | X-H torsion
[  702  698  697  694 ] final    5.86 input  179.99 | X-H torsion
[ 2577 2569 2568 2566 ] final   94.13 input   -0.13 | X-H torsion
[ 2891 2887 2886 2883 ] final  171.14 input  179.98 | X-H torsion
[ 3175 3171 3170 3167 ] final    3.54 input -179.99 | X-H torsion
[ 5278 5270 5269 5267 ] final   -0.07 input    0.55 | X-H torsion
[  641  637  636  633 ] final  -15.72 input  179.99 | X-H torsion
[ 1886 1878 1877 1875 ] final  -49.14 input    1.60 | X-H torsion
[  965  957  956  954 ] final -101.21 input    0.45 | X-H torsion

>  <Gold.Protein.ActiveResidues>  (52) 
 LYS47   THR48   LEU49   GLY50   THR51   GLY52   SER53   PHE54   GLY55   ARG56  
 VAL57   MET58   LEU59   TYR69   ALA70   MET71   LYS72   ILE73   LEU74   GLU91  
 LEU95   VAL104  LYS105  MET118  VAL119  MET120  GLU121  TYR122  VAL123  PRO124 
 GLY125  GLY126  GLU127  MET128  PHE129  TYR164  ASP166  LEU167  LYS168  PRO169 
 GLU170  ASN171  LEU172  LEU173  ILE174  GLN181  VAL182  THR183  ASP184  PHE185 
 GLY186  PHE187  GLY200  THR201  ASN326  PHE327  TYR330  ARG18   ARG19   ASN20  
 ALA21   ILE22   HIS23  

>  <Gold.Protein.RotatedAtoms>  (52) 
    9.6588   19.2110    7.7098 H   0  0  0  0  0  0  0  0  0  0  0  0  # atno 641  bound_to 637 
   17.2144   13.7077    6.6836 H   0  0  0  0  0  0  0  0  0  0  0  0  # atno 681  bound_to 677 
   19.4497   11.8349   -0.7190 H   0  0  0  0  0  0  0  0  0  0  0  0  # atno 702  bound_to 698 
   -6.4688   16.6600   -1.5249 H   0  0  0  0  0  0  0  0  0  0  0  0  # atno 965  bound_to 957 
    1.8392   10.6903   10.3828 H   0  0  0  0  0  0  0  0  0  0  0  0  # atno 1886 bound_to 1878
    9.4199    2.2196   -2.6663 H   0  0  0  0  0  0  0  0  0  0  0  0  # atno 2577 bound_to 2569
    7.4925    6.7837    1.3659 H   0  0  0  0  0  0  0  0  0  0  0  0  # atno 2891 bound_to 2887
   19.0982    2.7240   -1.2496 H   0  0  0  0  0  0  0  0  0  0  0  0  # atno 3175 bound_to 3171
   12.6644    9.9618    9.8361 H   0  0  0  0  0  0  0  0  0  0  0  0  # atno 5278 bound_to 5270
   16.2529   12.5517    6.1588 LP  0  0  0  0  0  0  0  0  0  0  0  0  # atno 5914 bound_to 677 
   15.8026   13.5180    7.3957 LP  0  0  0  0  0  0  0  0  0  0  0  0  # atno 5915 bound_to 677 
   21.0125   11.5393   -0.6311 LP  0  0  0  0  0  0  0  0  0  0  0  0  # atno 5920 bound_to 698 
   20.2708   11.6987   -2.0772 LP  0  0  0  0  0  0  0  0  0  0  0  0  # atno 5921 bound_to 698 
   10.1443    3.4176   -3.4247 LP  0  0  0  0  0  0  0  0  0  0  0  0  # atno 5950 bound_to 2569
   11.0079    2.3096   -2.5921 LP  0  0  0  0  0  0  0  0  0  0  0  0  # atno 5951 bound_to 2569
    8.3842    6.1522    0.2072 LP  0  0  0  0  0  0  0  0  0  0  0  0  # atno 5982 bound_to 2887
    7.4052    5.2132    1.1163 LP  0  0  0  0  0  0  0  0  0  0  0  0  # atno 5983 bound_to 2887
   18.9060    2.8102    0.3287 LP  0  0  0  0  0  0  0  0  0  0  0  0  # atno 6000 bound_to 3171
   17.8831    1.9319   -0.5925 LP  0  0  0  0  0  0  0  0  0  0  0  0  # atno 6001 bound_to 3171
   14.1961    9.8560   10.2599 LP  0  0  0  0  0  0  0  0  0  0  0  0  # atno 6004 bound_to 5270
   13.7756   10.2298    8.7269 LP  0  0  0  0  0  0  0  0  0  0  0  0  # atno 6005 bound_to 5270
   11.2417   19.0828    7.5955 LP  0  0  0  0  0  0  0  0  0  0  0  0  # atno 6055 bound_to 637 
   10.5503   19.7861    8.8970 LP  0  0  0  0  0  0  0  0  0  0  0  0  # atno 6056 bound_to 637 
    0.5742   11.3660   11.0746 LP  0  0  0  0  0  0  0  0  0  0  0  0  # atno 6063 bound_to 1878
    1.8750   12.2590   10.6535 LP  0  0  0  0  0  0  0  0  0  0  0  0  # atno 6064 bound_to 1878
   -7.1396   16.7972   -0.0874 LP  0  0  0  0  0  0  0  0  0  0  0  0  # atno 6067 bound_to 957 
   -6.8556   15.3285   -0.7422 LP  0  0  0  0  0  0  0  0  0  0  0  0  # atno 6068 bound_to 957 

>  <STRIFE_LigEff_Score>  (52) 
2.67995

$$$$
unknown|pharmsElabsTestPreDocking|sdf|53|dock8
     RDKit          3D

 18 18  0  0  0  0  0  0  0  0999 V2000
    5.2101    9.2025    1.3439 C   0  0  0  0  0  0  0  0  0  0  0  0
    4.7678    9.0950    2.5997 C   0  0  0  0  0  0  0  0  0  0  0  0
    3.2941    8.8983    2.8518 C   0  0  0  0  0  0  0  0  0  0  0  0
    5.7162    9.3170    3.7310 C   0  0  0  0  0  0  0  0  0  0  0  0
    5.3418   10.0822    4.7737 C   0  0  0  0  0  0  0  0  0  0  0  0
    6.2424   10.3799    5.9322 C   0  0  0  0  0  0  0  0  0  0  0  0
    7.0699    8.8228    3.6700 N   0  0  0  0  0  0  0  0  0  0  0  0
    8.0710    9.2901    2.7578 C   0  0  0  0  0  0  0  0  0  0  0  0
    7.7707   10.0956    1.8313 O   0  0  0  0  0  0  0  0  0  0  0  0
    9.4966    8.8187    2.9232 C   0  0  0  0  0  0  0  0  0  0  0  0
    9.9338    8.0576    1.6775 C   0  0  0  0  0  0  0  0  0  0  0  0
   11.3189    7.4525    1.8206 C   0  0  0  0  0  0  0  0  0  0  0  0
   12.3456    8.3404    2.5491 C   0  0  0  0  0  0  0  0  0  0  0  0
   13.8483    8.1134    2.1555 C   0  0  0  0  0  0  0  0  0  0  0  0
   14.8162    7.8189    3.3114 C   0  0  0  0  0  0  0  0  0  0  0  0
   14.0017    7.1051    1.1004 N   0  0  0  0  0  0  0  0  0  0  0  0
   11.9231    9.7270    3.0783 C   0  0  0  0  0  0  0  0  0  0  0  0
   10.4134   10.0203    3.1769 C   0  0  0  0  0  0  0  0  0  0  0  0
  1  2  2  0
  2  3  1  0
  2  4  1  0
  4  5  2  0
  5  6  1  0
  4  7  1  0
  7  8  1  0
  8  9  2  0
  8 10  1  0
 10 11  1  0
 11 12  1  0
 12 13  1  0
 13 14  1  0
 14 15  1  0
 14 16  1  0
 13 17  1  0
 17 18  1  0
 18 10  1  0
M  CHG  1  16   1
M  END
>  <EmbedRMS>  (53) 
0.16480955270904202

>  <Gold.Version>  (53) 
2020.3.0

>  <Gold.Id.Protein>  (53) 
unknown|1q8t_protein|pdb

>  <Gold.PLP.Fitness>  (53) 
47.3825

>  <Gold.PLP.PLP>  (53) 
-41.5506

>  <Gold.PLP.part.hbond>  (53) 
-2.0000

>  <Gold.PLP.part.metal>  (53) 
0.0000

>  <Gold.PLP.part.buried>  (53) 
-3.3218

>  <Gold.PLP.part.nonpolar>  (53) 
-36.6342

>  <Gold.PLP.part.repulsive>  (53) 
0.0598

>  <Gold.PLP.ligand.clash>  (53) 
0.0000

>  <Gold.PLP.ligand.torsion>  (53) 
2.2776

>  <Gold.PLP.Chemscore.Hbond>  (53) 
3.0000

>  <Gold.PLP.Chemscore.CHOScore>  (53) 
0.0000

>  <Gold.PLP.Chemscore.Metal>  (53) 
0.0000

>  <Gold.Chemscore.Hbonds>  (53) 
donor molecule, donor type, donor heavy atom, donor atom, acceptor molecule, acceptor atom, score
      L1  H    16    40       P1  2691  1.00
      L1  H    16    41       P1  2902  2.00

>  <Gold.PLP.Chemscore.Internal.Correction>  (53) 
1.3870

>  <Gold.PLP.Constraint>  (53) 
-0.0000

>  <Gold.Protein.RotatedTorsions>  (53) 
[  681  677  676  673 ] final   74.03 input -179.99 | X-H torsion
[  702  698  697  694 ] final -163.42 input  179.99 | X-H torsion
[ 2577 2569 2568 2566 ] final  138.52 input   -0.13 | X-H torsion
[ 2891 2887 2886 2883 ] final  150.06 input  179.98 | X-H torsion
[ 3175 3171 3170 3167 ] final  -98.11 input -179.99 | X-H torsion
[ 5278 5270 5269 5267 ] final  143.90 input    0.55 | X-H torsion
[  641  637  636  633 ] final  170.85 input  179.99 | X-H torsion
[ 1886 1878 1877 1875 ] final  141.80 input    1.60 | X-H torsion
[  965  957  956  954 ] final  -89.41 input    0.45 | X-H torsion

>  <Gold.Protein.ActiveResidues>  (53) 
 LYS47   THR48   LEU49   GLY50   THR51   GLY52   SER53   PHE54   GLY55   ARG56  
 VAL57   MET58   LEU59   TYR69   ALA70   MET71   LYS72   ILE73   LEU74   GLU91  
 LEU95   VAL104  LYS105  MET118  VAL119  MET120  GLU121  TYR122  VAL123  PRO124 
 GLY125  GLY126  GLU127  MET128  PHE129  TYR164  ASP166  LEU167  LYS168  PRO169 
 GLU170  ASN171  LEU172  LEU173  ILE174  GLN181  VAL182  THR183  ASP184  PHE185 
 GLY186  PHE187  GLY200  THR201  ASN326  PHE327  TYR330  ARG18   ARG19   ASN20  
 ALA21   ILE22   HIS23  

>  <Gold.Protein.RotatedAtoms>  (53) 
   11.3167   19.4395    8.3385 H   0  0  0  0  0  0  0  0  0  0  0  0  # atno 641  bound_to 637 
   16.8513   12.8567    6.0648 H   0  0  0  0  0  0  0  0  0  0  0  0  # atno 681  bound_to 677 
   21.0778   11.5594   -1.3961 H   0  0  0  0  0  0  0  0  0  0  0  0  # atno 702  bound_to 698 
   -6.4440   16.4872   -1.5828 H   0  0  0  0  0  0  0  0  0  0  0  0  # atno 965  bound_to 957 
    0.8969   12.0578   11.0314 H   0  0  0  0  0  0  0  0  0  0  0  0  # atno 1886 bound_to 1878
    9.9675    1.9132   -2.4134 H   0  0  0  0  0  0  0  0  0  0  0  0  # atno 2577 bound_to 2569
    7.7028    6.9209    1.1552 H   0  0  0  0  0  0  0  0  0  0  0  0  # atno 2891 bound_to 2887
   19.1017    2.9069    0.1270 H   0  0  0  0  0  0  0  0  0  0  0  0  # atno 3175 bound_to 3171
   14.0946   10.1977    8.9399 H   0  0  0  0  0  0  0  0  0  0  0  0  # atno 5278 bound_to 5270
   15.5763   12.9876    7.0100 LP  0  0  0  0  0  0  0  0  0  0  0  0  # atno 5914 bound_to 677 
   16.8614   13.9779    7.1957 LP  0  0  0  0  0  0  0  0  0  0  0  0  # atno 5915 bound_to 677 
   19.5537   11.8201   -1.7789 LP  0  0  0  0  0  0  0  0  0  0  0  0  # atno 5920 bound_to 698 
   20.0170   11.7078   -0.2171 LP  0  0  0  0  0  0  0  0  0  0  0  0  # atno 5921 bound_to 698 
    9.4957    3.1556   -3.2903 LP  0  0  0  0  0  0  0  0  0  0  0  0  # atno 5950 bound_to 2569
   11.0799    2.8942   -2.9927 LP  0  0  0  0  0  0  0  0  0  0  0  0  # atno 5951 bound_to 2569
    8.3245    5.8127    0.1950 LP  0  0  0  0  0  0  0  0  0  0  0  0  # atno 5982 bound_to 2887
    7.2435    5.4084    1.3503 LP  0  0  0  0  0  0  0  0  0  0  0  0  # atno 5983 bound_to 2887
   17.8839    1.9715   -0.2944 LP  0  0  0  0  0  0  0  0  0  0  0  0  # atno 6000 bound_to 3171
   18.9016    2.5781   -1.4182 LP  0  0  0  0  0  0  0  0  0  0  0  0  # atno 6001 bound_to 3171
   12.5994   10.0357    9.4640 LP  0  0  0  0  0  0  0  0  0  0  0  0  # atno 6004 bound_to 5270
   13.8675    9.8018   10.4658 LP  0  0  0  0  0  0  0  0  0  0  0  0  # atno 6005 bound_to 5270
    9.7641   19.6777    8.5988 LP  0  0  0  0  0  0  0  0  0  0  0  0  # atno 6055 bound_to 637 
   10.2821   18.9506    7.2315 LP  0  0  0  0  0  0  0  0  0  0  0  0  # atno 6056 bound_to 637 
    2.2886   11.6586   10.3687 LP  0  0  0  0  0  0  0  0  0  0  0  0  # atno 6063 bound_to 1878
    1.1525   10.5268   10.6766 LP  0  0  0  0  0  0  0  0  0  0  0  0  # atno 6064 bound_to 1878
   -7.0869   16.9457   -0.2002 LP  0  0  0  0  0  0  0  0  0  0  0  0  # atno 6067 bound_to 957 
   -6.9344   15.3621   -0.5684 LP  0  0  0  0  0  0  0  0  0  0  0  0  # atno 6068 bound_to 957 

>  <STRIFE_LigEff_Score>  (53) 
2.632361111111111

$$$$
unknown|pharmsElabsTestPreDocking|sdf|54|dock8
     RDKit          3D

 17 17  0  0  0  0  0  0  0  0999 V2000
   14.6100    9.1389    1.5586 C   0  0  0  0  0  0  0  0  0  0  0  0
   13.6917    7.9532    1.8013 C   0  0  0  0  0  0  0  0  0  0  0  0
   13.9383    6.8020    0.9395 N   0  0  0  0  0  0  0  0  0  0  0  0
   12.2084    8.2700    2.1682 C   0  0  0  0  0  0  0  0  0  0  0  0
   11.4476    7.2462    3.0253 C   0  0  0  0  0  0  0  0  0  0  0  0
    9.9265    7.5008    2.9790 C   0  0  0  0  0  0  0  0  0  0  0  0
    9.5357    8.9479    2.6656 C   0  0  0  0  0  0  0  0  0  0  0  0
    8.0695    9.2501    2.7902 C   0  0  0  0  0  0  0  0  0  0  0  0
    7.7706   10.1111    3.6540 O   0  0  0  0  0  0  0  0  0  0  0  0
    7.0111    8.6333    2.0446 N   0  0  0  0  0  0  0  0  0  0  0  0
    5.6826    8.9636    2.3860 N   0  0  0  0  0  0  0  0  0  0  0  0
    5.2310    8.9043    3.6001 C   0  0  0  0  0  0  0  0  0  0  0  0
    3.8687    9.2598    3.9024 N   0  0  0  0  0  0  0  0  0  0  0  0
    2.9433    9.6996    2.8603 C   0  0  0  0  0  0  0  0  0  0  0  0
    3.4111    9.1889    5.2284 N   0  0  0  0  0  0  0  0  0  0  0  0
   10.5175   10.0823    2.9137 C   0  0  0  0  0  0  0  0  0  0  0  0
   12.0001    9.6849    2.7459 C   0  0  0  0  0  0  0  0  0  0  0  0
  1  2  1  0
  2  3  1  0
  2  4  1  0
  4  5  1  0
  5  6  1  0
  6  7  1  0
  7  8  1  0
  8  9  2  0
  8 10  1  0
 10 11  1  0
 11 12  2  0
 12 13  1  0
 13 14  1  0
 13 15  1  0
  7 16  1  0
 16 17  1  0
 17  4  1  0
M  CHG  1   3   1
M  END
>  <EmbedRMS>  (54) 
0.2570984896337683

>  <Gold.Version>  (54) 
2020.3.0

>  <Gold.Id.Protein>  (54) 
unknown|1q8t_protein|pdb

>  <Gold.PLP.Fitness>  (54) 
44.7519

>  <Gold.PLP.PLP>  (54) 
-33.6597

>  <Gold.PLP.part.hbond>  (54) 
-4.8356

>  <Gold.PLP.part.metal>  (54) 
0.0000

>  <Gold.PLP.part.buried>  (54) 
-2.0534

>  <Gold.PLP.part.nonpolar>  (54) 
-27.8750

>  <Gold.PLP.part.repulsive>  (54) 
0.0883

>  <Gold.PLP.ligand.clash>  (54) 
0.0000

>  <Gold.PLP.ligand.torsion>  (54) 
1.0977

>  <Gold.PLP.Chemscore.Hbond>  (54) 
4.0977

>  <Gold.PLP.Chemscore.CHOScore>  (54) 
0.0000

>  <Gold.PLP.Chemscore.Metal>  (54) 
0.0000

>  <Gold.Chemscore.Hbonds>  (54) 
donor molecule, donor type, donor heavy atom, donor atom, acceptor molecule, acceptor atom, score
      L1  H     3    23       P1  2902  2.00
      L1  H     3    24       P1  2691  0.98
      L1  H    10    31       P1  2887  0.35
      P1  H  1888  1903       L1    15  0.76

>  <Gold.PLP.Chemscore.Internal.Correction>  (54) 
0.9943

>  <Gold.PLP.Constraint>  (54) 
-0.0000

>  <Gold.Protein.RotatedTorsions>  (54) 
[  681  677  676  673 ] final  137.74 input -179.99 | X-H torsion
[  702  698  697  694 ] final  -14.54 input  179.99 | X-H torsion
[ 2577 2569 2568 2566 ] final  -10.64 input   -0.13 | X-H torsion
[ 2891 2887 2886 2883 ] final   40.61 input  179.98 | X-H torsion
[ 3175 3171 3170 3167 ] final  166.14 input -179.99 | X-H torsion
[ 5278 5270 5269 5267 ] final  -64.07 input    0.55 | X-H torsion
[  641  637  636  633 ] final   45.66 input  179.99 | X-H torsion
[ 1886 1878 1877 1875 ] final  -48.20 input    1.60 | X-H torsion
[  965  957  956  954 ] final  -46.62 input    0.45 | X-H torsion

>  <Gold.Protein.ActiveResidues>  (54) 
 LYS47   THR48   LEU49   GLY50   THR51   GLY52   SER53   PHE54   GLY55   ARG56  
 VAL57   MET58   LEU59   TYR69   ALA70   MET71   LYS72   ILE73   LEU74   GLU91  
 LEU95   VAL104  LYS105  MET118  VAL119  MET120  GLU121  TYR122  VAL123  PRO124 
 GLY125  GLY126  GLU127  MET128  PHE129  TYR164  ASP166  LEU167  LYS168  PRO169 
 GLU170  ASN171  LEU172  LEU173  ILE174  GLN181  VAL182  THR183  ASP184  PHE185 
 GLY186  PHE187  GLY200  THR201  ASN326  PHE327  TYR330  ARG18   ARG19   ASN20  
 ALA21   ILE22   HIS23  

>  <Gold.Protein.RotatedAtoms>  (54) 
    9.7480   19.6207    8.5218 H   0  0  0  0  0  0  0  0  0  0  0  0  # atno 641  bound_to 637 
   17.2500   13.5762    6.5311 H   0  0  0  0  0  0  0  0  0  0  0  0  # atno 681  bound_to 677 
   19.6407   11.7962   -0.4685 H   0  0  0  0  0  0  0  0  0  0  0  0  # atno 702  bound_to 698 
   -6.4834   15.8391   -1.5098 H   0  0  0  0  0  0  0  0  0  0  0  0  # atno 965  bound_to 957 
    1.8508   10.6984   10.3790 H   0  0  0  0  0  0  0  0  0  0  0  0  # atno 1886 bound_to 1878
    9.9134    3.3287   -3.4003 H   0  0  0  0  0  0  0  0  0  0  0  0  # atno 2577 bound_to 2569
    8.3222    5.9879    0.2142 H   0  0  0  0  0  0  0  0  0  0  0  0  # atno 2891 bound_to 2887
   18.0427    2.1102    0.0329 H   0  0  0  0  0  0  0  0  0  0  0  0  # atno 3175 bound_to 3171
   13.3581    9.8133   10.4675 H   0  0  0  0  0  0  0  0  0  0  0  0  # atno 5278 bound_to 5270
   16.0666   12.5439    6.2664 LP  0  0  0  0  0  0  0  0  0  0  0  0  # atno 5914 bound_to 677 
   15.9514   13.6644    7.4486 LP  0  0  0  0  0  0  0  0  0  0  0  0  # atno 5915 bound_to 677 
   21.1374   11.5232   -0.9403 LP  0  0  0  0  0  0  0  0  0  0  0  0  # atno 5920 bound_to 698 
   19.9450   11.7556   -2.0315 LP  0  0  0  0  0  0  0  0  0  0  0  0  # atno 5921 bound_to 698 
   11.0948    2.5049   -2.7213 LP  0  0  0  0  0  0  0  0  0  0  0  0  # atno 5950 bound_to 2569
    9.5378    2.0544   -2.5226 LP  0  0  0  0  0  0  0  0  0  0  0  0  # atno 5951 bound_to 2569
    7.3169    5.2978    1.2387 LP  0  0  0  0  0  0  0  0  0  0  0  0  # atno 5982 bound_to 2887
    7.5992    6.9052    1.2969 LP  0  0  0  0  0  0  0  0  0  0  0  0  # atno 5983 bound_to 2887
   18.5857    2.3404   -1.4462 LP  0  0  0  0  0  0  0  0  0  0  0  0  # atno 6000 bound_to 3171
   19.3143    3.0476   -0.1673 LP  0  0  0  0  0  0  0  0  0  0  0  0  # atno 6001 bound_to 3171
   14.4222   10.0913    9.3154 LP  0  0  0  0  0  0  0  0  0  0  0  0  # atno 6004 bound_to 5270
   12.8197   10.1507    9.0070 LP  0  0  0  0  0  0  0  0  0  0  0  0  # atno 6005 bound_to 5270
   10.3664   18.9409    7.2217 LP  0  0  0  0  0  0  0  0  0  0  0  0  # atno 6055 bound_to 637 
   11.3318   19.4966    8.4157 LP  0  0  0  0  0  0  0  0  0  0  0  0  # atno 6056 bound_to 637 
    0.5743   11.3507   11.0720 LP  0  0  0  0  0  0  0  0  0  0  0  0  # atno 6063 bound_to 1878
    1.8626   12.2657   10.6601 LP  0  0  0  0  0  0  0  0  0  0  0  0  # atno 6064 bound_to 1878
   -6.8219   17.2114   -0.7768 LP  0  0  0  0  0  0  0  0  0  0  0  0  # atno 6067 bound_to 957 
   -7.1578   15.7788   -0.0687 LP  0  0  0  0  0  0  0  0  0  0  0  0  # atno 6068 bound_to 957 

>  <STRIFE_LigEff_Score>  (54) 
2.6324647058823527

$$$$
unknown|pharmsElabsTestPreDocking|sdf|55|dock7
     RDKit          3D

 17 18  0  0  0  0  0  0  0  0999 V2000
   13.7573    7.0961    3.5357 C   0  0  0  0  0  0  0  0  0  0  0  0
   13.5029    7.9958    2.3102 C   0  0  0  0  0  0  0  0  0  0  0  0
   13.7876    7.2348    1.0869 N   0  0  0  0  0  0  0  0  0  0  0  0
   12.0436    8.5391    2.3384 C   0  0  0  0  0  0  0  0  0  0  0  0
   11.0461    7.3781    2.1460 C   0  0  0  0  0  0  0  0  0  0  0  0
    9.6298    7.9190    2.0124 C   0  0  0  0  0  0  0  0  0  0  0  0
    9.2406    8.6987    3.2724 C   0  0  0  0  0  0  0  0  0  0  0  0
    7.8377    9.2179    3.1486 C   0  0  0  0  0  0  0  0  0  0  0  0
    7.5027    9.8935    2.1373 O   0  0  0  0  0  0  0  0  0  0  0  0
    6.9016    8.9362    4.1968 N   0  0  0  0  0  0  0  0  0  0  0  0
    5.5251    9.3297    4.2159 C   0  0  0  0  0  0  0  0  0  0  0  0
    4.8041    9.8017    5.3010 C   0  0  0  0  0  0  0  0  0  0  0  0
    3.5292   10.0324    4.8298 C   0  0  0  0  0  0  0  0  0  0  0  0
    3.5284    9.6952    3.4912 C   0  0  0  0  0  0  0  0  0  0  0  0
    4.7469    9.2677    3.1216 N   0  0  0  0  0  0  0  0  0  0  0  0
   10.2319    9.8397    3.5576 C   0  0  0  0  0  0  0  0  0  0  0  0
   11.6751    9.3132    3.6285 C   0  0  0  0  0  0  0  0  0  0  0  0
  1  2  1  0
  2  3  1  0
  2  4  1  0
  4  5  1  0
  5  6  1  0
  6  7  1  0
  7  8  1  0
  8  9  2  0
  8 10  1  0
 10 11  1  0
 11 12  2  0
 12 13  1  0
 13 14  2  0
 14 15  1  0
  7 16  1  0
 16 17  1  0
 17  4  1  0
 15 11  1  0
M  CHG  1   3   1
M  END
>  <EmbedRMS>  (55) 
0.03061905892919758

>  <Gold.Version>  (55) 
2020.3.0

>  <Gold.Id.Protein>  (55) 
unknown|1q8t_protein|pdb

>  <Gold.PLP.Fitness>  (55) 
53.4634

>  <Gold.PLP.PLP>  (55) 
-42.4955

>  <Gold.PLP.part.hbond>  (55) 
-2.0000

>  <Gold.PLP.part.metal>  (55) 
0.0000

>  <Gold.PLP.part.buried>  (55) 
-4.2161

>  <Gold.PLP.part.nonpolar>  (55) 
-36.4661

>  <Gold.PLP.part.repulsive>  (55) 
0.0541

>  <Gold.PLP.ligand.clash>  (55) 
0.0000

>  <Gold.PLP.ligand.torsion>  (55) 
0.5106

>  <Gold.PLP.Chemscore.Hbond>  (55) 
3.0000

>  <Gold.PLP.Chemscore.CHOScore>  (55) 
0.9868

>  <Gold.PLP.Chemscore.Metal>  (55) 
0.0000

>  <Gold.Chemscore.Hbonds>  (55) 
donor molecule, donor type, donor heavy atom, donor atom, acceptor molecule, acceptor atom, score
      L1  H     3    22       P1  2902  2.00
      L1  H     3    24       P1  2691  1.00
      L1  C    14    34       P1  1855  0.99

>  <Gold.PLP.Chemscore.Internal.Correction>  (55) 
0.0286

>  <Gold.PLP.Constraint>  (55) 
-0.0000

>  <Gold.Protein.RotatedTorsions>  (55) 
[  681  677  676  673 ] final -108.10 input -179.99 | X-H torsion
[  702  698  697  694 ] final -146.54 input  179.99 | X-H torsion
[ 2577 2569 2568 2566 ] final  -59.00 input   -0.13 | X-H torsion
[ 2891 2887 2886 2883 ] final    7.34 input  179.98 | X-H torsion
[ 3175 3171 3170 3167 ] final  -21.01 input -179.99 | X-H torsion
[ 5278 5270 5269 5267 ] final   52.16 input    0.55 | X-H torsion
[  641  637  636  633 ] final   81.52 input  179.99 | X-H torsion
[ 1886 1878 1877 1875 ] final -101.37 input    1.60 | X-H torsion
[  965  957  956  954 ] final  156.55 input    0.45 | X-H torsion

>  <Gold.Protein.ActiveResidues>  (55) 
 LYS47   THR48   LEU49   GLY50   THR51   GLY52   SER53   PHE54   GLY55   ARG56  
 VAL57   MET58   LEU59   TYR69   ALA70   MET71   LYS72   ILE73   LEU74   GLU91  
 LEU95   VAL104  LYS105  MET118  VAL119  MET120  GLU121  TYR122  VAL123  PRO124 
 GLY125  GLY126  GLU127  MET128  PHE129  TYR164  ASP166  LEU167  LYS168  PRO169 
 GLU170  ASN171  LEU172  LEU173  ILE174  GLN181  VAL182  THR183  ASP184  PHE185 
 GLY186  PHE187  GLY200  THR201  ASN326  PHE327  TYR330  ARG18   ARG19   ASN20  
 ALA21   ILE22   HIS23  

>  <Gold.Protein.RotatedAtoms>  (55) 
   10.1947   19.7475    8.8189 H   0  0  0  0  0  0  0  0  0  0  0  0  # atno 641  bound_to 637 
   16.0402   13.7110    7.4142 H   0  0  0  0  0  0  0  0  0  0  0  0  # atno 681  bound_to 677 
   21.1152   11.5477   -1.1361 H   0  0  0  0  0  0  0  0  0  0  0  0  # atno 702  bound_to 698 
   -7.0290   16.9728   -0.2873 H   0  0  0  0  0  0  0  0  0  0  0  0  # atno 965  bound_to 957 
    1.1176   10.5888   10.6836 H   0  0  0  0  0  0  0  0  0  0  0  0  # atno 1886 bound_to 1878
   10.6402    3.2807   -3.3137 H   0  0  0  0  0  0  0  0  0  0  0  0  # atno 2577 bound_to 2569
    8.1431    5.5165    0.3087 H   0  0  0  0  0  0  0  0  0  0  0  0  # atno 2891 bound_to 2887
   19.2902    2.9024   -0.9734 H   0  0  0  0  0  0  0  0  0  0  0  0  # atno 3175 bound_to 3171
   12.8175   10.1486    9.0852 H   0  0  0  0  0  0  0  0  0  0  0  0  # atno 5278 bound_to 5270
   17.3020   13.5139    6.4627 LP  0  0  0  0  0  0  0  0  0  0  0  0  # atno 5914 bound_to 677 
   15.9894   12.5525    6.3227 LP  0  0  0  0  0  0  0  0  0  0  0  0  # atno 5915 bound_to 677 
   19.7674   11.7855   -1.9511 LP  0  0  0  0  0  0  0  0  0  0  0  0  # atno 5920 bound_to 698 
   19.7639   11.7546   -0.3184 LP  0  0  0  0  0  0  0  0  0  0  0  0  # atno 5921 bound_to 698 
   10.6313    1.9821   -2.3923 LP  0  0  0  0  0  0  0  0  0  0  0  0  # atno 5950 bound_to 2569
    9.2360    2.6278   -2.9429 LP  0  0  0  0  0  0  0  0  0  0  0  0  # atno 5951 bound_to 2569
    7.1472    5.7157    1.5355 LP  0  0  0  0  0  0  0  0  0  0  0  0  # atno 5982 bound_to 2887
    7.9574    6.9834    0.9007 LP  0  0  0  0  0  0  0  0  0  0  0  0  # atno 5983 bound_to 2887
   18.5867    2.5855    0.4196 LP  0  0  0  0  0  0  0  0  0  0  0  0  # atno 6000 bound_to 3171
   18.0003    1.9687   -0.9741 LP  0  0  0  0  0  0  0  0  0  0  0  0  # atno 6001 bound_to 3171
   13.4105    9.7842   10.5178 LP  0  0  0  0  0  0  0  0  0  0  0  0  # atno 6004 bound_to 5270
   14.4001   10.1050    9.2591 LP  0  0  0  0  0  0  0  0  0  0  0  0  # atno 6005 bound_to 5270
    9.8377   19.0726    7.4218 LP  0  0  0  0  0  0  0  0  0  0  0  0  # atno 6055 bound_to 637 
   11.3901   19.2314    7.9027 LP  0  0  0  0  0  0  0  0  0  0  0  0  # atno 6056 bound_to 637 
    0.9126   12.1236   11.0546 LP  0  0  0  0  0  0  0  0  0  0  0  0  # atno 6063 bound_to 1878
    2.2962   11.6083   10.3568 LP  0  0  0  0  0  0  0  0  0  0  0  0  # atno 6064 bound_to 1878
   -6.9725   15.3938   -0.4839 LP  0  0  0  0  0  0  0  0  0  0  0  0  # atno 6067 bound_to 957 
   -6.4326   16.4026   -1.6490 LP  0  0  0  0  0  0  0  0  0  0  0  0  # atno 6068 bound_to 957 

>  <STRIFE_LigEff_Score>  (55) 
3.144905882352941

$$$$
unknown|pharmsElabsTestPreDocking|sdf|56|dock9
     RDKit          3D

 18 19  0  0  0  0  0  0  0  0999 V2000
   14.4829    9.3320    1.1493 C   0  0  0  0  0  0  0  0  0  0  0  0
   13.6681    8.1171    1.5601 C   0  0  0  0  0  0  0  0  0  0  0  0
   13.9493    6.9053    0.7981 N   0  0  0  0  0  0  0  0  0  0  0  0
   12.1890    8.3688    1.9847 C   0  0  0  0  0  0  0  0  0  0  0  0
   11.4941    7.2907    2.8311 C   0  0  0  0  0  0  0  0  0  0  0  0
    9.9663    7.4919    2.8402 C   0  0  0  0  0  0  0  0  0  0  0  0
    9.5213    8.9367    2.5997 C   0  0  0  0  0  0  0  0  0  0  0  0
    8.0498    9.1675    2.7504 C   0  0  0  0  0  0  0  0  0  0  0  0
    7.5162    9.6451    1.7255 O   0  0  0  0  0  0  0  0  0  0  0  0
    7.2554    8.8881    3.9265 N   0  0  0  0  0  0  0  0  0  0  0  0
    5.8489    9.2453    4.0768 C   0  0  0  0  0  0  0  0  0  0  0  0
    4.9804    9.1026    2.9776 C   0  0  0  0  0  0  0  0  0  0  0  0
    3.6202    9.4246    3.0905 C   0  0  0  0  0  0  0  0  0  0  0  0
    3.1060    9.9027    4.2964 C   0  0  0  0  0  0  0  0  0  0  0  0
    3.9429   10.0501    5.3947 C   0  0  0  0  0  0  0  0  0  0  0  0
    5.2897    9.7154    5.2972 C   0  0  0  0  0  0  0  0  0  0  0  0
   10.4647   10.0965    2.8569 C   0  0  0  0  0  0  0  0  0  0  0  0
   11.9516    9.7578    2.6156 C   0  0  0  0  0  0  0  0  0  0  0  0
  1  2  1  0
  2  3  1  0
  2  4  1  0
  4  5  1  0
  5  6  1  0
  6  7  1  0
  7  8  1  0
  8  9  2  0
  8 10  1  0
 10 11  1  0
 11 12  2  0
 12 13  1  0
 13 14  2  0
 14 15  1  0
 15 16  2  0
  7 17  1  0
 17 18  1  0
 18  4  1  0
 16 11  1  0
M  CHG  1   3   1
M  END
>  <EmbedRMS>  (56) 
0.24964892458419108

>  <Gold.Version>  (56) 
2020.3.0

>  <Gold.Id.Protein>  (56) 
unknown|1q8t_protein|pdb

>  <Gold.PLP.Fitness>  (56) 
55.1294

>  <Gold.PLP.PLP>  (56) 
-47.3143

>  <Gold.PLP.part.hbond>  (56) 
-2.0000

>  <Gold.PLP.part.metal>  (56) 
0.0000

>  <Gold.PLP.part.buried>  (56) 
-1.4609

>  <Gold.PLP.part.nonpolar>  (56) 
-44.5679

>  <Gold.PLP.part.repulsive>  (56) 
0.0837

>  <Gold.PLP.ligand.clash>  (56) 
0.0000

>  <Gold.PLP.ligand.torsion>  (56) 
0.9515

>  <Gold.PLP.Chemscore.Hbond>  (56) 
2.9280

>  <Gold.PLP.Chemscore.CHOScore>  (56) 
0.0000

>  <Gold.PLP.Chemscore.Metal>  (56) 
0.0000

>  <Gold.Chemscore.Hbonds>  (56) 
donor molecule, donor type, donor heavy atom, donor atom, acceptor molecule, acceptor atom, score
      L1  H     3    24       P1  2902  2.00
      L1  H     3    25       P1  2691  0.93

>  <Gold.PLP.Chemscore.Internal.Correction>  (56) 
0.9342

>  <Gold.PLP.Constraint>  (56) 
-0.0000

>  <Gold.Protein.RotatedTorsions>  (56) 
[  681  677  676  673 ] final -163.99 input -179.99 | X-H torsion
[  702  698  697  694 ] final  114.79 input  179.99 | X-H torsion
[ 2577 2569 2568 2566 ] final -166.35 input   -0.13 | X-H torsion
[ 2891 2887 2886 2883 ] final    8.41 input  179.98 | X-H torsion
[ 3175 3171 3170 3167 ] final   48.78 input -179.99 | X-H torsion
[ 5278 5270 5269 5267 ] final -174.06 input    0.55 | X-H torsion
[  641  637  636  633 ] final   16.33 input  179.99 | X-H torsion
[ 1886 1878 1877 1875 ] final  130.92 input    1.60 | X-H torsion
[  965  957  956  954 ] final  173.98 input    0.45 | X-H torsion

>  <Gold.Protein.ActiveResidues>  (56) 
 LYS47   THR48   LEU49   GLY50   THR51   GLY52   SER53   PHE54   GLY55   ARG56  
 VAL57   MET58   LEU59   TYR69   ALA70   MET71   LYS72   ILE73   LEU74   GLU91  
 LEU95   VAL104  LYS105  MET118  VAL119  MET120  GLU121  TYR122  VAL123  PRO124 
 GLY125  GLY126  GLU127  MET128  PHE129  TYR164  ASP166  LEU167  LYS168  PRO169 
 GLU170  ASN171  LEU172  LEU173  ILE174  GLN181  VAL182  THR183  ASP184  PHE185 
 GLY186  PHE187  GLY200  THR201  ASN326  PHE327  TYR330  ARG18   ARG19   ASN20  
 ALA21   ILE22   HIS23  

>  <Gold.Protein.RotatedAtoms>  (56) 
    9.5811   19.4365    8.1428 H   0  0  0  0  0  0  0  0  0  0  0  0  # atno 641  bound_to 637 
   16.8087   13.9557    7.1807 H   0  0  0  0  0  0  0  0  0  0  0  0  # atno 681  bound_to 677 
   20.1017   11.7445   -2.0207 H   0  0  0  0  0  0  0  0  0  0  0  0  # atno 702  bound_to 698 
   -6.9301   17.1061   -0.5019 H   0  0  0  0  0  0  0  0  0  0  0  0  # atno 965  bound_to 957 
    1.0242   12.1636   10.9934 H   0  0  0  0  0  0  0  0  0  0  0  0  # atno 1886 bound_to 1878
   10.7703    2.1048   -2.4876 H   0  0  0  0  0  0  0  0  0  0  0  0  # atno 2577 bound_to 2569
    8.1514    5.5296    0.3023 H   0  0  0  0  0  0  0  0  0  0  0  0  # atno 2891 bound_to 2887
   18.5653    2.3107   -1.3914 H   0  0  0  0  0  0  0  0  0  0  0  0  # atno 3175 bound_to 3171
   14.4154   10.0675    9.4816 H   0  0  0  0  0  0  0  0  0  0  0  0  # atno 5278 bound_to 5270
   16.9053   12.8440    6.0444 LP  0  0  0  0  0  0  0  0  0  0  0  0  # atno 5914 bound_to 677 
   15.5772   12.9648    6.9869 LP  0  0  0  0  0  0  0  0  0  0  0  0  # atno 5915 bound_to 677 
   19.5037   11.8052   -0.5456 LP  0  0  0  0  0  0  0  0  0  0  0  0  # atno 5920 bound_to 698 
   21.0938   11.5281   -0.7934 LP  0  0  0  0  0  0  0  0  0  0  0  0  # atno 5921 bound_to 698 
    9.2548    2.4586   -2.8240 LP  0  0  0  0  0  0  0  0  0  0  0  0  # atno 5950 bound_to 2569
   10.4755    3.3895   -3.3809 LP  0  0  0  0  0  0  0  0  0  0  0  0  # atno 5951 bound_to 2569
    7.1496    5.6996    1.5288 LP  0  0  0  0  0  0  0  0  0  0  0  0  # atno 5982 bound_to 2887
    7.9463    6.9857    0.9141 LP  0  0  0  0  0  0  0  0  0  0  0  0  # atno 5983 bound_to 2887
   19.3291    3.0533   -0.2079 LP  0  0  0  0  0  0  0  0  0  0  0  0  # atno 6000 bound_to 3171
   18.0208    2.1237    0.0933 LP  0  0  0  0  0  0  0  0  0  0  0  0  # atno 6001 bound_to 3171
   12.9382   10.1792    8.8965 LP  0  0  0  0  0  0  0  0  0  0  0  0  # atno 6004 bound_to 5270
   13.1911    9.7954   10.4634 LP  0  0  0  0  0  0  0  0  0  0  0  0  # atno 6005 bound_to 5270
   10.8380   18.9516    7.2942 LP  0  0  0  0  0  0  0  0  0  0  0  0  # atno 6055 bound_to 637 
   11.0359   19.6799    8.7423 LP  0  0  0  0  0  0  0  0  0  0  0  0  # atno 6056 bound_to 637 
    2.3035   11.4842   10.3324 LP  0  0  0  0  0  0  0  0  0  0  0  0  # atno 6063 bound_to 1878
    1.0036   10.5898   10.7529 LP  0  0  0  0  0  0  0  0  0  0  0  0  # atno 6064 bound_to 1878
   -7.0733   15.5391   -0.2594 LP  0  0  0  0  0  0  0  0  0  0  0  0  # atno 6067 bound_to 957 
   -6.4361   16.1168   -1.6475 LP  0  0  0  0  0  0  0  0  0  0  0  0  # atno 6068 bound_to 957 

>  <STRIFE_LigEff_Score>  (56) 
3.0627444444444443

$$$$
unknown|pharmsElabsTestPreDocking|sdf|57|dock2
     RDKit          3D

 18 18  0  0  0  0  0  0  0  0999 V2000
   14.5074    8.9481    1.6945 C   0  0  0  0  0  0  0  0  0  0  0  0
   13.5206    7.8209    1.9939 C   0  0  0  0  0  0  0  0  0  0  0  0
   13.2913    6.9629    0.8296 N   0  0  0  0  0  0  0  0  0  0  0  0
   12.2096    8.1675    2.7422 C   0  0  0  0  0  0  0  0  0  0  0  0
   11.1168    7.0980    2.5998 C   0  0  0  0  0  0  0  0  0  0  0  0
    9.6936    7.5409    2.8965 C   0  0  0  0  0  0  0  0  0  0  0  0
    9.3843    8.9108    2.3479 C   0  0  0  0  0  0  0  0  0  0  0  0
    7.9221    9.2461    2.3373 C   0  0  0  0  0  0  0  0  0  0  0  0
    7.5838   10.1010    1.4851 O   0  0  0  0  0  0  0  0  0  0  0  0
    6.9218    8.6925    3.2082 N   0  0  0  0  0  0  0  0  0  0  0  0
    5.5322    9.1732    3.1508 C   0  0  0  0  0  0  0  0  0  0  0  0
    5.1090    9.7817    4.4783 C   0  0  0  0  0  0  0  0  0  0  0  0
    5.9987   10.1306    5.4246 C   0  0  0  0  0  0  0  0  0  0  0  0
    7.7382    9.9154    5.2776 Cl  0  0  0  0  0  0  0  0  0  0  0  0
    3.7111    9.9933    4.7492 N   0  0  0  0  0  0  0  0  0  0  0  0
    2.7027    9.6592    3.8308 N   0  0  0  0  0  0  0  0  0  0  0  0
   10.3392   10.0110    2.7197 C   0  0  0  0  0  0  0  0  0  0  0  0
   11.7926    9.6322    2.4443 C   0  0  0  0  0  0  0  0  0  0  0  0
  1  2  1  0
  2  3  1  0
  2  4  1  0
  4  5  1  0
  5  6  1  0
  6  7  1  0
  7  8  1  0
  8  9  2  0
  8 10  1  0
 10 11  1  0
 11 12  1  0
 12 13  2  0
 13 14  1  0
 12 15  1  0
 15 16  1  0
  7 17  1  0
 17 18  1  0
 18  4  1  0
M  CHG  1   3   1
M  END
>  <EmbedRMS>  (57) 
0.2935962045462699

>  <Gold.Version>  (57) 
2020.3.0

>  <Gold.Id.Protein>  (57) 
unknown|1q8t_protein|pdb

>  <Gold.PLP.Fitness>  (57) 
48.3454

>  <Gold.PLP.PLP>  (57) 
-39.6384

>  <Gold.PLP.part.hbond>  (57) 
-3.0247

>  <Gold.PLP.part.metal>  (57) 
0.0000

>  <Gold.PLP.part.buried>  (57) 
-5.7238

>  <Gold.PLP.part.nonpolar>  (57) 
-31.6173

>  <Gold.PLP.part.repulsive>  (57) 
0.1405

>  <Gold.PLP.ligand.clash>  (57) 
0.0000

>  <Gold.PLP.ligand.torsion>  (57) 
1.3857

>  <Gold.PLP.Chemscore.Hbond>  (57) 
3.6125

>  <Gold.PLP.Chemscore.CHOScore>  (57) 
0.0000

>  <Gold.PLP.Chemscore.Metal>  (57) 
0.0000

>  <Gold.Chemscore.Hbonds>  (57) 
donor molecule, donor type, donor heavy atom, donor atom, acceptor molecule, acceptor atom, score
      L1  H     3    23       P1  2691  0.64
      L1  H     3    25       P1  2902  2.00
      P1  H  1888  1903       L1    16  0.98

>  <Gold.PLP.Chemscore.Internal.Correction>  (57) 
0.6409

>  <Gold.PLP.Constraint>  (57) 
-0.0000

>  <Gold.Protein.RotatedTorsions>  (57) 
[  681  677  676  673 ] final   33.05 input -179.99 | X-H torsion
[  702  698  697  694 ] final  162.23 input  179.99 | X-H torsion
[ 2577 2569 2568 2566 ] final  105.89 input   -0.13 | X-H torsion
[ 2891 2887 2886 2883 ] final  159.44 input  179.98 | X-H torsion
[ 3175 3171 3170 3167 ] final  143.42 input -179.99 | X-H torsion
[ 5278 5270 5269 5267 ] final -170.68 input    0.55 | X-H torsion
[  641  637  636  633 ] final   31.95 input  179.99 | X-H torsion
[ 1886 1878 1877 1875 ] final  -91.69 input    1.60 | X-H torsion
[  965  957  956  954 ] final   51.56 input    0.45 | X-H torsion

>  <Gold.Protein.ActiveResidues>  (57) 
 LYS47   THR48   LEU49   GLY50   THR51   GLY52   SER53   PHE54   GLY55   ARG56  
 VAL57   MET58   LEU59   TYR69   ALA70   MET71   LYS72   ILE73   LEU74   GLU91  
 LEU95   VAL104  LYS105  MET118  VAL119  MET120  GLU121  TYR122  VAL123  PRO124 
 GLY125  GLY126  GLU127  MET128  PHE129  TYR164  ASP166  LEU167  LYS168  PRO169 
 GLU170  ASN171  LEU172  LEU173  ILE174  GLN181  VAL182  THR183  ASP184  PHE185 
 GLY186  PHE187  GLY200  THR201  ASN326  PHE327  TYR330  ARG18   ARG19   ASN20  
 ALA21   ILE22   HIS23  

>  <Gold.Protein.RotatedAtoms>  (57) 
    9.6431   19.5407    8.3537 H   0  0  0  0  0  0  0  0  0  0  0  0  # atno 641  bound_to 637 
   16.2863   12.6027    6.1630 H   0  0  0  0  0  0  0  0  0  0  0  0  # atno 681  bound_to 677 
   20.7869   11.6194   -1.8343 H   0  0  0  0  0  0  0  0  0  0  0  0  # atno 702  bound_to 698 
   -7.0336   15.5524   -0.3070 H   0  0  0  0  0  0  0  0  0  0  0  0  # atno 965  bound_to 957 
    1.2496   10.5532   10.6193 H   0  0  0  0  0  0  0  0  0  0  0  0  # atno 1886 bound_to 1878
    9.5323    2.1045   -2.5782 H   0  0  0  0  0  0  0  0  0  0  0  0  # atno 2577 bound_to 2569
    7.6067    6.8732    1.2551 H   0  0  0  0  0  0  0  0  0  0  0  0  # atno 2891 bound_to 2887
   17.9350    1.9893   -0.2806 H   0  0  0  0  0  0  0  0  0  0  0  0  # atno 3175 bound_to 3171
   14.4220   10.0550    9.5324 H   0  0  0  0  0  0  0  0  0  0  0  0  # atno 5278 bound_to 5270
   15.7808   13.4920    7.3835 LP  0  0  0  0  0  0  0  0  0  0  0  0  # atno 5914 bound_to 677 
   17.2516   13.7408    6.7189 LP  0  0  0  0  0  0  0  0  0  0  0  0  # atno 5915 bound_to 677 
   19.3127   11.8532   -1.2781 LP  0  0  0  0  0  0  0  0  0  0  0  0  # atno 5920 bound_to 698 
   20.5640   11.6116   -0.2570 LP  0  0  0  0  0  0  0  0  0  0  0  0  # atno 5921 bound_to 698 
    9.9533    3.3893   -3.4191 LP  0  0  0  0  0  0  0  0  0  0  0  0  # atno 5950 bound_to 2569
   11.0805    2.4591   -2.6905 LP  0  0  0  0  0  0  0  0  0  0  0  0  # atno 5951 bound_to 2569
    8.3611    5.9624    0.1885 LP  0  0  0  0  0  0  0  0  0  0  0  0  # atno 5982 bound_to 2887
    7.3080    5.3088    1.2517 LP  0  0  0  0  0  0  0  0  0  0  0  0  # atno 5983 bound_to 2887
   18.8823    2.5629   -1.4249 LP  0  0  0  0  0  0  0  0  0  0  0  0  # atno 6000 bound_to 3171
   19.1310    2.9522    0.1413 LP  0  0  0  0  0  0  0  0  0  0  0  0  # atno 6001 bound_to 3171
   12.9824   10.1877    8.8640 LP  0  0  0  0  0  0  0  0  0  0  0  0  # atno 6004 bound_to 5270
   13.1400    9.8000   10.4424 LP  0  0  0  0  0  0  0  0  0  0  0  0  # atno 6005 bound_to 5270
   10.5911   18.9319    7.2287 LP  0  0  0  0  0  0  0  0  0  0  0  0  # atno 6055 bound_to 637 
   11.2175   19.5898    8.5857 LP  0  0  0  0  0  0  0  0  0  0  0  0  # atno 6056 bound_to 637 
    0.8048   12.0101   11.0828 LP  0  0  0  0  0  0  0  0  0  0  0  0  # atno 6063 bound_to 1878
    2.2650   11.7592   10.3963 LP  0  0  0  0  0  0  0  0  0  0  0  0  # atno 6064 bound_to 1878
   -6.4334   16.1564   -1.6525 LP  0  0  0  0  0  0  0  0  0  0  0  0  # atno 6067 bound_to 957 
   -6.9669   17.1359   -0.4597 LP  0  0  0  0  0  0  0  0  0  0  0  0  # atno 6068 bound_to 957 

>  <STRIFE_LigEff_Score>  (57) 
2.6858555555555554

$$$$
unknown|pharmsElabsTestPreDocking|sdf|58|dock2
     RDKit          3D

 17 18  0  0  0  0  0  0  0  0999 V2000
   14.4912    8.1895    2.7204 C   0  0  0  0  0  0  0  0  0  0  0  0
   13.1183    8.0486    2.0646 C   0  0  0  0  0  0  0  0  0  0  0  0
   12.9099    9.0337    1.0014 N   0  0  0  0  0  0  0  0  0  0  0  0
   11.8778    7.8911    2.9778 C   0  0  0  0  0  0  0  0  0  0  0  0
   10.6946    7.1905    2.2943 C   0  0  0  0  0  0  0  0  0  0  0  0
    9.3299    7.3942    2.9303 C   0  0  0  0  0  0  0  0  0  0  0  0
    9.1122    8.8110    3.3982 C   0  0  0  0  0  0  0  0  0  0  0  0
    7.6823    9.1350    3.7138 C   0  0  0  0  0  0  0  0  0  0  0  0
    7.5221    9.6649    4.8364 O   0  0  0  0  0  0  0  0  0  0  0  0
    6.5395    8.8926    2.8652 N   0  0  0  0  0  0  0  0  0  0  0  0
    5.1787    9.1329    3.3066 C   0  0  0  0  0  0  0  0  0  0  0  0
    4.7029    9.2068    4.6149 C   0  0  0  0  0  0  0  0  0  0  0  0
    3.3493    9.4349    4.5193 C   0  0  0  0  0  0  0  0  0  0  0  0
    2.9800    9.4993    3.2278 N   0  0  0  0  0  0  0  0  0  0  0  0
    4.0861    9.3159    2.4806 C   0  0  0  0  0  0  0  0  0  0  0  0
   10.1702    9.3984    4.2874 C   0  0  0  0  0  0  0  0  0  0  0  0
   11.5712    9.2286    3.7033 C   0  0  0  0  0  0  0  0  0  0  0  0
  1  2  1  0
  2  3  1  0
  2  4  1  0
  4  5  1  0
  5  6  1  0
  6  7  1  0
  7  8  1  0
  8  9  2  0
  8 10  1  0
 10 11  1  0
 11 12  1  0
 12 13  2  0
 13 14  1  0
 14 15  1  0
  7 16  1  0
 16 17  1  0
 17  4  1  0
 15 11  2  0
M  CHG  1   3   1
M  END
>  <EmbedRMS>  (58) 
0.3005329260886256

>  <Gold.Version>  (58) 
2020.3.0

>  <Gold.Id.Protein>  (58) 
unknown|1q8t_protein|pdb

>  <Gold.PLP.Fitness>  (58) 
50.4606

>  <Gold.PLP.PLP>  (58) 
-40.6306

>  <Gold.PLP.part.hbond>  (58) 
-1.9746

>  <Gold.PLP.part.metal>  (58) 
0.0000

>  <Gold.PLP.part.buried>  (58) 
-3.9701

>  <Gold.PLP.part.nonpolar>  (58) 
-34.8895

>  <Gold.PLP.part.repulsive>  (58) 
0.1813

>  <Gold.PLP.ligand.clash>  (58) 
0.0000

>  <Gold.PLP.ligand.torsion>  (58) 
0.5121

>  <Gold.PLP.Chemscore.Hbond>  (58) 
3.0000

>  <Gold.PLP.Chemscore.CHOScore>  (58) 
0.4109

>  <Gold.PLP.Chemscore.Metal>  (58) 
0.0000

>  <Gold.Chemscore.Hbonds>  (58) 
donor molecule, donor type, donor heavy atom, donor atom, acceptor molecule, acceptor atom, score
      L1  H     3    24       P1  2902  2.00
      L1  H    14    34       P1  1855  1.00
      L1  C    13    33       P1  1891  0.41

>  <Gold.PLP.Chemscore.Internal.Correction>  (58) 
0.6213

>  <Gold.PLP.Constraint>  (58) 
-0.0000

>  <Gold.Protein.RotatedTorsions>  (58) 
[  681  677  676  673 ] final -136.14 input -179.99 | X-H torsion
[  702  698  697  694 ] final   85.07 input  179.99 | X-H torsion
[ 2577 2569 2568 2566 ] final -119.18 input   -0.13 | X-H torsion
[ 2891 2887 2886 2883 ] final   46.25 input  179.98 | X-H torsion
[ 3175 3171 3170 3167 ] final  163.81 input -179.99 | X-H torsion
[ 5278 5270 5269 5267 ] final  -38.44 input    0.55 | X-H torsion
[  641  637  636  633 ] final  166.95 input  179.99 | X-H torsion
[ 1886 1878 1877 1875 ] final   19.94 input    1.60 | X-H torsion
[  965  957  956  954 ] final -177.80 input    0.45 | X-H torsion

>  <Gold.Protein.ActiveResidues>  (58) 
 LYS47   THR48   LEU49   GLY50   THR51   GLY52   SER53   PHE54   GLY55   ARG56  
 VAL57   MET58   LEU59   TYR69   ALA70   MET71   LYS72   ILE73   LEU74   GLU91  
 LEU95   VAL104  LYS105  MET118  VAL119  MET120  GLU121  TYR122  VAL123  PRO124 
 GLY125  GLY126  GLU127  MET128  PHE129  TYR164  ASP166  LEU167  LYS168  PRO169 
 GLU170  ASN171  LEU172  LEU173  ILE174  GLN181  VAL182  THR183  ASP184  PHE185 
 GLY186  PHE187  GLY200  THR201  ASN326  PHE327  TYR330  ARG18   ARG19   ASN20  
 ALA21   ILE22   HIS23  

>  <Gold.Protein.RotatedAtoms>  (58) 
   11.2954   19.4664    8.3889 H   0  0  0  0  0  0  0  0  0  0  0  0  # atno 641  bound_to 637 
   16.4248   13.9076    7.3709 H   0  0  0  0  0  0  0  0  0  0  0  0  # atno 681  bound_to 677 
   19.6863   11.8146   -1.8368 H   0  0  0  0  0  0  0  0  0  0  0  0  # atno 702  bound_to 698 
   -6.8789   17.1428   -0.6136 H   0  0  0  0  0  0  0  0  0  0  0  0  # atno 965  bound_to 957 
    2.2437   11.6215   10.3633 H   0  0  0  0  0  0  0  0  0  0  0  0  # atno 1886 bound_to 1878
   11.0716    2.6490   -2.8435 H   0  0  0  0  0  0  0  0  0  0  0  0  # atno 2577 bound_to 2569
    8.3347    6.0748    0.2206 H   0  0  0  0  0  0  0  0  0  0  0  0  # atno 2891 bound_to 2887
   18.0269    2.0946    0.0038 H   0  0  0  0  0  0  0  0  0  0  0  0  # atno 3175 bound_to 3171
   12.9946    9.8483   10.3103 H   0  0  0  0  0  0  0  0  0  0  0  0  # atno 5278 bound_to 5270
   17.1906   13.1666    6.1875 LP  0  0  0  0  0  0  0  0  0  0  0  0  # atno 5914 bound_to 677 
   15.6960   12.6927    6.6436 LP  0  0  0  0  0  0  0  0  0  0  0  0  # atno 5915 bound_to 677 
   19.8860   11.7319   -0.2586 LP  0  0  0  0  0  0  0  0  0  0  0  0  # atno 5920 bound_to 698 
   21.1485   11.5276   -1.2739 LP  0  0  0  0  0  0  0  0  0  0  0  0  # atno 5921 bound_to 698 
    9.6878    1.9664   -2.4505 LP  0  0  0  0  0  0  0  0  0  0  0  0  # atno 5950 bound_to 2569
    9.7253    3.3086   -3.3798 LP  0  0  0  0  0  0  0  0  0  0  0  0  # atno 5951 bound_to 2569
    7.3625    5.2491    1.1743 LP  0  0  0  0  0  0  0  0  0  0  0  0  # atno 5982 bound_to 2887
    7.5406    6.8623    1.3545 LP  0  0  0  0  0  0  0  0  0  0  0  0  # atno 5983 bound_to 2887
   18.6167    2.3628   -1.4508 LP  0  0  0  0  0  0  0  0  0  0  0  0  # atno 6000 bound_to 3171
   19.2999    3.0416   -0.1321 LP  0  0  0  0  0  0  0  0  0  0  0  0  # atno 6001 bound_to 3171
   14.4667    9.9922    9.7194 LP  0  0  0  0  0  0  0  0  0  0  0  0  # atno 6004 bound_to 5270
   13.1576   10.2131    8.7685 LP  0  0  0  0  0  0  0  0  0  0  0  0  # atno 6005 bound_to 5270
    9.7233   19.6570    8.5538 LP  0  0  0  0  0  0  0  0  0  0  0  0  # atno 6055 bound_to 637 
   10.3453   18.9430    7.2235 LP  0  0  0  0  0  0  0  0  0  0  0  0  # atno 6056 bound_to 637 
    1.1262   10.5353   10.6896 LP  0  0  0  0  0  0  0  0  0  0  0  0  # atno 6063 bound_to 1878
    0.8972   12.1093   11.0591 LP  0  0  0  0  0  0  0  0  0  0  0  0  # atno 6064 bound_to 1878
   -7.1132   15.6318   -0.1698 LP  0  0  0  0  0  0  0  0  0  0  0  0  # atno 6067 bound_to 957 
   -6.4500   15.9855   -1.6195 LP  0  0  0  0  0  0  0  0  0  0  0  0  # atno 6068 bound_to 957 

>  <STRIFE_LigEff_Score>  (58) 
2.968270588235294

$$$$
unknown|pharmsElabsTestPreDocking|sdf|59|dock8
     RDKit          3D

 19 20  0  0  0  0  0  0  0  0999 V2000
   13.7890    6.7451    3.5439 C   0  0  0  0  0  0  0  0  0  0  0  0
   13.6432    7.6387    2.2964 C   0  0  0  0  0  0  0  0  0  0  0  0
   13.8996    6.8336    1.0951 N   0  0  0  0  0  0  0  0  0  0  0  0
   12.2325    8.2984    2.2719 C   0  0  0  0  0  0  0  0  0  0  0  0
   11.1412    7.2099    2.3367 C   0  0  0  0  0  0  0  0  0  0  0  0
    9.7649    7.8339    2.1517 C   0  0  0  0  0  0  0  0  0  0  0  0
    9.4990    8.8639    3.2536 C   0  0  0  0  0  0  0  0  0  0  0  0
    8.1343    9.4663    3.0846 C   0  0  0  0  0  0  0  0  0  0  0  0
    7.8411   10.5624    3.6400 O   0  0  0  0  0  0  0  0  0  0  0  0
    7.1680    8.7795    2.2892 N   0  0  0  0  0  0  0  0  0  0  0  0
    5.8442    9.3342    2.0433 C   0  0  0  0  0  0  0  0  0  0  0  0
    5.0201    9.2401    3.2881 C   0  0  0  0  0  0  0  0  0  0  0  0
    5.3658    9.7517    4.5204 C   0  0  0  0  0  0  0  0  0  0  0  0
    4.2614    9.5057    5.3140 C   0  0  0  0  0  0  0  0  0  0  0  0
    3.3016    8.9001    4.5854 N   0  0  0  0  0  0  0  0  0  0  0  0
    3.7655    8.7538    3.3554 N   0  0  0  0  0  0  0  0  0  0  0  0
    3.0021    8.1542    2.2670 C   0  0  0  0  0  0  0  0  0  0  0  0
   10.5874    9.9502    3.2851 C   0  0  0  0  0  0  0  0  0  0  0  0
   11.9883    9.3264    3.4046 C   0  0  0  0  0  0  0  0  0  0  0  0
  1  2  1  0
  2  3  1  0
  2  4  1  0
  4  5  1  0
  5  6  1  0
  6  7  1  0
  7  8  1  0
  8  9  2  0
  8 10  1  0
 10 11  1  0
 11 12  1  0
 12 13  2  0
 13 14  1  0
 14 15  2  0
 15 16  1  0
 16 17  1  0
  7 18  1  0
 18 19  1  0
 19  4  1  0
 16 12  1  0
M  CHG  1   3   1
M  END
>  <EmbedRMS>  (59) 
0.027804703519808214

>  <Gold.Version>  (59) 
2020.3.0

>  <Gold.Id.Protein>  (59) 
unknown|1q8t_protein|pdb

>  <Gold.PLP.Fitness>  (59) 
57.6904

>  <Gold.PLP.PLP>  (59) 
-44.8137

>  <Gold.PLP.part.hbond>  (59) 
-3.8008

>  <Gold.PLP.part.metal>  (59) 
0.0000

>  <Gold.PLP.part.buried>  (59) 
-2.6167

>  <Gold.PLP.part.nonpolar>  (59) 
-39.6913

>  <Gold.PLP.part.repulsive>  (59) 
0.2133

>  <Gold.PLP.ligand.clash>  (59) 
0.0207

>  <Gold.PLP.ligand.torsion>  (59) 
0.7795

>  <Gold.PLP.Chemscore.Hbond>  (59) 
4.7976

>  <Gold.PLP.Chemscore.CHOScore>  (59) 
0.0000

>  <Gold.PLP.Chemscore.Metal>  (59) 
0.0000

>  <Gold.Chemscore.Hbonds>  (59) 
donor molecule, donor type, donor heavy atom, donor atom, acceptor molecule, acceptor atom, score
      L1  H     3    24       P1  2902  2.00
      L1  H     3    25       P1  2691  0.99
      L1  H    10    33       P1  2887  0.99
      P1  H  1888  1903       L1    15  0.82

>  <Gold.PLP.Chemscore.Internal.Correction>  (59) 
0.0636

>  <Gold.PLP.Constraint>  (59) 
-0.0000

>  <Gold.Protein.RotatedTorsions>  (59) 
[  681  677  676  673 ] final   43.64 input -179.99 | X-H torsion
[  702  698  697  694 ] final  -20.70 input  179.99 | X-H torsion
[ 2577 2569 2568 2566 ] final  178.39 input   -0.13 | X-H torsion
[ 2891 2887 2886 2883 ] final   -6.65 input  179.98 | X-H torsion
[ 3175 3171 3170 3167 ] final   -8.23 input -179.99 | X-H torsion
[ 5278 5270 5269 5267 ] final  -97.21 input    0.55 | X-H torsion
[  641  637  636  633 ] final  -17.04 input  179.99 | X-H torsion
[ 1886 1878 1877 1875 ] final   81.26 input    1.60 | X-H torsion
[  965  957  956  954 ] final -176.16 input    0.45 | X-H torsion

>  <Gold.Protein.ActiveResidues>  (59) 
 LYS47   THR48   LEU49   GLY50   THR51   GLY52   SER53   PHE54   GLY55   ARG56  
 VAL57   MET58   LEU59   TYR69   ALA70   MET71   LYS72   ILE73   LEU74   GLU91  
 LEU95   VAL104  LYS105  MET118  VAL119  MET120  GLU121  TYR122  VAL123  PRO124 
 GLY125  GLY126  GLU127  MET128  PHE129  TYR164  ASP166  LEU167  LYS168  PRO169 
 GLU170  ASN171  LEU172  LEU173  ILE174  GLN181  VAL182  THR183  ASP184  PHE185 
 GLY186  PHE187  GLY200  THR201  ASN326  PHE327  TYR330  ARG18   ARG19   ASN20  
 ALA21   ILE22   HIS23  

>  <Gold.Protein.RotatedAtoms>  (59) 
    9.6678   19.2022    7.6935 H   0  0  0  0  0  0  0  0  0  0  0  0  # atno 641  bound_to 637 
   16.4371   12.6392    6.1057 H   0  0  0  0  0  0  0  0  0  0  0  0  # atno 681  bound_to 677 
   19.7144   11.7820   -0.4080 H   0  0  0  0  0  0  0  0  0  0  0  0  # atno 702  bound_to 698 
   -6.8684   17.1480   -0.6365 H   0  0  0  0  0  0  0  0  0  0  0  0  # atno 965  bound_to 957 
    1.7114   12.2778   10.7099 H   0  0  0  0  0  0  0  0  0  0  0  0  # atno 1886 bound_to 1878
   10.5733    1.9892   -2.4218 H   0  0  0  0  0  0  0  0  0  0  0  0  # atno 2577 bound_to 2569
    8.0240    5.3646    0.4104 H   0  0  0  0  0  0  0  0  0  0  0  0  # atno 2891 bound_to 2887
   19.2031    2.8172   -1.1312 H   0  0  0  0  0  0  0  0  0  0  0  0  # atno 3175 bound_to 3171
   13.8667    9.8300   10.4212 H   0  0  0  0  0  0  0  0  0  0  0  0  # atno 5278 bound_to 5270
   15.6895   13.3625    7.3116 LP  0  0  0  0  0  0  0  0  0  0  0  0  # atno 5914 bound_to 677 
   17.1842   13.8319    6.8510 LP  0  0  0  0  0  0  0  0  0  0  0  0  # atno 5915 bound_to 677 
   21.1531   11.5223   -1.0405 LP  0  0  0  0  0  0  0  0  0  0  0  0  # atno 5920 bound_to 698 
   19.8518   11.7714   -1.9950 LP  0  0  0  0  0  0  0  0  0  0  0  0  # atno 5921 bound_to 698 
    9.2379    2.6632   -2.9673 LP  0  0  0  0  0  0  0  0  0  0  0  0  # atno 5950 bound_to 2569
   10.6998    3.3067   -3.3070 LP  0  0  0  0  0  0  0  0  0  0  0  0  # atno 5951 bound_to 2569
    7.1348    5.9350    1.6023 LP  0  0  0  0  0  0  0  0  0  0  0  0  # atno 5982 bound_to 2887
    8.0952    6.9239    0.7268 LP  0  0  0  0  0  0  0  0  0  0  0  0  # atno 5983 bound_to 2887
   18.7557    2.7072    0.3931 LP  0  0  0  0  0  0  0  0  0  0  0  0  # atno 6000 bound_to 3171
   17.9231    1.9367   -0.7816 LP  0  0  0  0  0  0  0  0  0  0  0  0  # atno 6001 bound_to 3171
   14.1100   10.1931    8.8897 LP  0  0  0  0  0  0  0  0  0  0  0  0  # atno 6004 bound_to 5270
   12.5967   10.0313    9.4815 LP  0  0  0  0  0  0  0  0  0  0  0  0  # atno 6005 bound_to 5270
   11.2539   19.0905    7.6117 LP  0  0  0  0  0  0  0  0  0  0  0  0  # atno 6055 bound_to 637 
   10.5287   19.7878    8.8980 LP  0  0  0  0  0  0  0  0  0  0  0  0  # atno 6056 bound_to 637 
    1.9960   10.7546   10.3435 LP  0  0  0  0  0  0  0  0  0  0  0  0  # atno 6063 bound_to 1878
    0.5877   11.1992   11.0403 LP  0  0  0  0  0  0  0  0  0  0  0  0  # atno 6064 bound_to 1878
   -7.1205   15.6520   -0.1533 LP  0  0  0  0  0  0  0  0  0  0  0  0  # atno 6067 bound_to 957 
   -6.4538   15.9598   -1.6119 LP  0  0  0  0  0  0  0  0  0  0  0  0  # atno 6068 bound_to 957 

>  <STRIFE_LigEff_Score>  (59) 
3.036336842105263

$$$$
unknown|pharmsElabsTestPreDocking|sdf|60|dock10
     RDKit          3D

 18 19  0  0  0  0  0  0  0  0999 V2000
   14.5511    7.7564    2.9819 C   0  0  0  0  0  0  0  0  0  0  0  0
   13.2214    7.7063    2.2311 C   0  0  0  0  0  0  0  0  0  0  0  0
   13.2033    8.6089    1.0780 N   0  0  0  0  0  0  0  0  0  0  0  0
   11.9085    7.7648    3.0509 C   0  0  0  0  0  0  0  0  0  0  0  0
   10.7292    7.0439    2.3813 C   0  0  0  0  0  0  0  0  0  0  0  0
    9.3385    7.4256    2.8643 C   0  0  0  0  0  0  0  0  0  0  0  0
    9.1890    8.9077    3.1017 C   0  0  0  0  0  0  0  0  0  0  0  0
    7.7666    9.3647    3.2661 C   0  0  0  0  0  0  0  0  0  0  0  0
    7.3572   10.1249    2.3569 O   0  0  0  0  0  0  0  0  0  0  0  0
    6.8853    9.0352    4.3594 N   0  0  0  0  0  0  0  0  0  0  0  0
    5.4840    9.4033    4.3409 C   0  0  0  0  0  0  0  0  0  0  0  0
    4.7620    9.8236    5.4442 C   0  0  0  0  0  0  0  0  0  0  0  0
    3.4662   10.0370    5.0028 C   0  0  0  0  0  0  0  0  0  0  0  0
    3.4454    9.7266    3.6577 C   0  0  0  0  0  0  0  0  0  0  0  0
    4.6695    9.3278    3.2593 N   0  0  0  0  0  0  0  0  0  0  0  0
    4.9735    8.8107    1.9274 C   0  0  0  0  0  0  0  0  0  0  0  0
   10.2243    9.5533    3.9796 C   0  0  0  0  0  0  0  0  0  0  0  0
   11.6477    9.2127    3.5437 C   0  0  0  0  0  0  0  0  0  0  0  0
  1  2  1  0
  2  3  1  0
  2  4  1  0
  4  5  1  0
  5  6  1  0
  6  7  1  0
  7  8  1  0
  8  9  2  0
  8 10  1  0
 10 11  1  0
 11 12  2  0
 12 13  1  0
 13 14  2  0
 14 15  1  0
 15 16  1  0
  7 17  1  0
 17 18  1  0
 18  4  1  0
 15 11  1  0
M  CHG  1   3   1
M  END
>  <EmbedRMS>  (60) 
0.293041831892948

>  <Gold.Version>  (60) 
2020.3.0

>  <Gold.Id.Protein>  (60) 
unknown|1q8t_protein|pdb

>  <Gold.PLP.Fitness>  (60) 
54.7075

>  <Gold.PLP.PLP>  (60) 
-46.5437

>  <Gold.PLP.part.hbond>  (60) 
-1.0000

>  <Gold.PLP.part.metal>  (60) 
0.0000

>  <Gold.PLP.part.buried>  (60) 
-2.4579

>  <Gold.PLP.part.nonpolar>  (60) 
-43.2782

>  <Gold.PLP.part.repulsive>  (60) 
0.0000

>  <Gold.PLP.ligand.clash>  (60) 
0.0000

>  <Gold.PLP.ligand.torsion>  (60) 
0.8168

>  <Gold.PLP.Chemscore.Hbond>  (60) 
2.0000

>  <Gold.PLP.Chemscore.CHOScore>  (60) 
0.9937

>  <Gold.PLP.Chemscore.Metal>  (60) 
0.0000

>  <Gold.Chemscore.Hbonds>  (60) 
donor molecule, donor type, donor heavy atom, donor atom, acceptor molecule, acceptor atom, score
      L1  H     3    24       P1  2902  2.00
      L1  C    14    35       P1  1855  0.99

>  <Gold.PLP.Chemscore.Internal.Correction>  (60) 
0.8163

>  <Gold.PLP.Constraint>  (60) 
-0.0000

>  <Gold.Protein.RotatedTorsions>  (60) 
[  681  677  676  673 ] final  167.46 input -179.99 | X-H torsion
[  702  698  697  694 ] final -107.22 input  179.99 | X-H torsion
[ 2577 2569 2568 2566 ] final   83.70 input   -0.13 | X-H torsion
[ 2891 2887 2886 2883 ] final -179.60 input  179.98 | X-H torsion
[ 3175 3171 3170 3167 ] final  -18.46 input -179.99 | X-H torsion
[ 5278 5270 5269 5267 ] final  174.02 input    0.55 | X-H torsion
[  641  637  636  633 ] final -145.81 input  179.99 | X-H torsion
[ 1886 1878 1877 1875 ] final -170.17 input    1.60 | X-H torsion
[  965  957  956  954 ] final  -27.07 input    0.45 | X-H torsion

>  <Gold.Protein.ActiveResidues>  (60) 
 LYS47   THR48   LEU49   GLY50   THR51   GLY52   SER53   PHE54   GLY55   ARG56  
 VAL57   MET58   LEU59   TYR69   ALA70   MET71   LYS72   ILE73   LEU74   GLU91  
 LEU95   VAL104  LYS105  MET118  VAL119  MET120  GLU121  TYR122  VAL123  PRO124 
 GLY125  GLY126  GLU127  MET128  PHE129  TYR164  ASP166  LEU167  LYS168  PRO169 
 GLU170  ASN171  LEU172  LEU173  ILE174  GLN181  VAL182  THR183  ASP184  PHE185 
 GLY186  PHE187  GLY200  THR201  ASN326  PHE327  TYR330  ARG18   ARG19   ASN20  
 ALA21   ILE22   HIS23  

>  <Gold.Protein.RotatedAtoms>  (60) 
   11.2803   19.1408    7.7496 H   0  0  0  0  0  0  0  0  0  0  0  0  # atno 641  bound_to 637 
   17.1111   13.8412    6.8798 H   0  0  0  0  0  0  0  0  0  0  0  0  # atno 681  bound_to 677 
   20.9142   11.5724   -0.5680 H   0  0  0  0  0  0  0  0  0  0  0  0  # atno 702  bound_to 698 
   -6.5636   15.6011   -1.3386 H   0  0  0  0  0  0  0  0  0  0  0  0  # atno 965  bound_to 957 
    0.6110   11.3875   11.0432 H   0  0  0  0  0  0  0  0  0  0  0  0  # atno 1886 bound_to 1878
    9.3467    2.3364   -2.7528 H   0  0  0  0  0  0  0  0  0  0  0  0  # atno 2577 bound_to 2569
    7.4094    6.6914    1.4401 H   0  0  0  0  0  0  0  0  0  0  0  0  # atno 2891 bound_to 2887
   19.2753    2.8869   -1.0070 H   0  0  0  0  0  0  0  0  0  0  0  0  # atno 3175 bound_to 3171
   14.3676   10.1101    9.3067 H   0  0  0  0  0  0  0  0  0  0  0  0  # atno 5278 bound_to 5270
   16.5016   12.6147    6.0672 LP  0  0  0  0  0  0  0  0  0  0  0  0  # atno 5914 bound_to 677 
   15.6627   13.3146    7.2808 LP  0  0  0  0  0  0  0  0  0  0  0  0  # atno 5915 bound_to 677 
   20.3822   11.6788   -2.0657 LP  0  0  0  0  0  0  0  0  0  0  0  0  # atno 5920 bound_to 698 
   19.3606   11.8355   -0.8014 LP  0  0  0  0  0  0  0  0  0  0  0  0  # atno 5921 bound_to 698 
   10.3151    3.4156   -3.4108 LP  0  0  0  0  0  0  0  0  0  0  0  0  # atno 5950 bound_to 2569
   10.9142    2.1887   -2.5150 LP  0  0  0  0  0  0  0  0  0  0  0  0  # atno 5951 bound_to 2569
    8.3841    6.3002    0.2428 LP  0  0  0  0  0  0  0  0  0  0  0  0  # atno 5982 bound_to 2887
    7.4928    5.1623    1.0026 LP  0  0  0  0  0  0  0  0  0  0  0  0  # atno 5983 bound_to 2887
   18.6205    2.6104    0.4180 LP  0  0  0  0  0  0  0  0  0  0  0  0  # atno 6000 bound_to 3171
   17.9822    1.9602   -0.9372 LP  0  0  0  0  0  0  0  0  0  0  0  0  # atno 6001 bound_to 3171
   12.7994   10.1447    9.0303 LP  0  0  0  0  0  0  0  0  0  0  0  0  # atno 6004 bound_to 5270
   13.3803    9.7850   10.5135 LP  0  0  0  0  0  0  0  0  0  0  0  0  # atno 6005 bound_to 5270
   10.3847   19.7932    8.8930 LP  0  0  0  0  0  0  0  0  0  0  0  0  # atno 6055 bound_to 637 
    9.6998   19.1496    7.5576 LP  0  0  0  0  0  0  0  0  0  0  0  0  # atno 6056 bound_to 637 
    1.8883   12.2514   10.6463 LP  0  0  0  0  0  0  0  0  0  0  0  0  # atno 6063 bound_to 1878
    1.8539   10.6396   10.3866 LP  0  0  0  0  0  0  0  0  0  0  0  0  # atno 6064 bound_to 1878
   -6.6911   17.1644   -1.0651 LP  0  0  0  0  0  0  0  0  0  0  0  0  # atno 6067 bound_to 957 
   -7.2042   16.0765    0.0394 LP  0  0  0  0  0  0  0  0  0  0  0  0  # atno 6068 bound_to 957 

>  <STRIFE_LigEff_Score>  (60) 
3.039305555555556

$$$$
unknown|pharmsElabsTestPreDocking|sdf|61|dock7
     RDKit          3D

 17 18  0  0  0  0  0  0  0  0999 V2000
   14.4889    8.1139    2.7116 C   0  0  0  0  0  0  0  0  0  0  0  0
   13.1024    7.9158    2.1011 C   0  0  0  0  0  0  0  0  0  0  0  0
   12.8806    8.7807    0.9405 N   0  0  0  0  0  0  0  0  0  0  0  0
   11.8789    7.8713    3.0491 C   0  0  0  0  0  0  0  0  0  0  0  0
   10.6829    7.0975    2.4756 C   0  0  0  0  0  0  0  0  0  0  0  0
    9.3303    7.3790    3.1077 C   0  0  0  0  0  0  0  0  0  0  0  0
    9.1219    8.8420    3.4076 C   0  0  0  0  0  0  0  0  0  0  0  0
    7.6983    9.2050    3.7086 C   0  0  0  0  0  0  0  0  0  0  0  0
    7.5447    9.7629    4.8185 O   0  0  0  0  0  0  0  0  0  0  0  0
    6.5543    8.9699    2.8595 N   0  0  0  0  0  0  0  0  0  0  0  0
    5.1972    9.2505    3.2883 C   0  0  0  0  0  0  0  0  0  0  0  0
    4.7514    9.5604    4.5724 C   0  0  0  0  0  0  0  0  0  0  0  0
    3.3887    9.7260    4.4765 C   0  0  0  0  0  0  0  0  0  0  0  0
    2.9858    9.5302    3.2085 N   0  0  0  0  0  0  0  0  0  0  0  0
    4.0790    9.2392    2.4766 C   0  0  0  0  0  0  0  0  0  0  0  0
   10.1964    9.5283    4.2010 C   0  0  0  0  0  0  0  0  0  0  0  0
   11.5863    9.2865    3.6157 C   0  0  0  0  0  0  0  0  0  0  0  0
  1  2  1  0
  2  3  1  0
  2  4  1  0
  4  5  1  0
  5  6  1  0
  6  7  1  0
  7  8  1  0
  8  9  2  0
  8 10  1  0
 10 11  1  0
 11 12  1  0
 12 13  2  0
 13 14  1  0
 14 15  1  0
  7 16  1  0
 16 17  1  0
 17  4  1  0
 15 11  2  0
M  CHG  1   3   1
M  END
>  <EmbedRMS>  (61) 
0.3005329260886256

>  <Gold.Version>  (61) 
2020.3.0

>  <Gold.Id.Protein>  (61) 
unknown|1q8t_protein|pdb

>  <Gold.PLP.Fitness>  (61) 
50.4651

>  <Gold.PLP.PLP>  (61) 
-41.8669

>  <Gold.PLP.part.hbond>  (61) 
-2.0000

>  <Gold.PLP.part.metal>  (61) 
0.0000

>  <Gold.PLP.part.buried>  (61) 
-4.4587

>  <Gold.PLP.part.nonpolar>  (61) 
-35.5515

>  <Gold.PLP.part.repulsive>  (61) 
0.1800

>  <Gold.PLP.ligand.clash>  (61) 
0.0000

>  <Gold.PLP.ligand.torsion>  (61) 
0.4969

>  <Gold.PLP.Chemscore.Hbond>  (61) 
2.9913

>  <Gold.PLP.Chemscore.CHOScore>  (61) 
0.0000

>  <Gold.PLP.Chemscore.Metal>  (61) 
0.0000

>  <Gold.Chemscore.Hbonds>  (61) 
donor molecule, donor type, donor heavy atom, donor atom, acceptor molecule, acceptor atom, score
      L1  H     3    23       P1  2902  2.00
      L1  H    14    34       P1  1855  0.99

>  <Gold.PLP.Chemscore.Internal.Correction>  (61) 
0.6182

>  <Gold.PLP.Constraint>  (61) 
-0.0000

>  <Gold.Protein.RotatedTorsions>  (61) 
[  681  677  676  673 ] final  179.22 input -179.99 | X-H torsion
[  702  698  697  694 ] final   17.78 input  179.99 | X-H torsion
[ 2577 2569 2568 2566 ] final -136.33 input   -0.13 | X-H torsion
[ 2891 2887 2886 2883 ] final   37.18 input  179.98 | X-H torsion
[ 3175 3171 3170 3167 ] final   19.47 input -179.99 | X-H torsion
[ 5278 5270 5269 5267 ] final   91.74 input    0.55 | X-H torsion
[  641  637  636  633 ] final  -20.76 input  179.99 | X-H torsion
[ 1886 1878 1877 1875 ] final  -20.85 input    1.60 | X-H torsion
[  965  957  956  954 ] final  -44.77 input    0.45 | X-H torsion

>  <Gold.Protein.ActiveResidues>  (61) 
 LYS47   THR48   LEU49   GLY50   THR51   GLY52   SER53   PHE54   GLY55   ARG56  
 VAL57   MET58   LEU59   TYR69   ALA70   MET71   LYS72   ILE73   LEU74   GLU91  
 LEU95   VAL104  LYS105  MET118  VAL119  MET120  GLU121  TYR122  VAL123  PRO124 
 GLY125  GLY126  GLU127  MET128  PHE129  TYR164  ASP166  LEU167  LYS168  PRO169 
 GLU170  ASN171  LEU172  LEU173  ILE174  GLN181  VAL182  THR183  ASP184  PHE185 
 GLY186  PHE187  GLY200  THR201  ASN326  PHE327  TYR330  ARG18   ARG19   ASN20  
 ALA21   ILE22   HIS23  

>  <Gold.Protein.RotatedAtoms>  (61) 
    9.6953   19.1777    7.6484 H   0  0  0  0  0  0  0  0  0  0  0  0  # atno 641  bound_to 637 
   17.0031   13.9075    7.0125 H   0  0  0  0  0  0  0  0  0  0  0  0  # atno 681  bound_to 677 
   19.3825   11.8502   -0.8919 H   0  0  0  0  0  0  0  0  0  0  0  0  # atno 702  bound_to 698 
   -6.4895   15.8141   -1.4969 H   0  0  0  0  0  0  0  0  0  0  0  0  # atno 965  bound_to 957 
    2.1286   11.0105   10.3098 H   0  0  0  0  0  0  0  0  0  0  0  0  # atno 1886 bound_to 1878
   11.0258    2.4313   -2.6957 H   0  0  0  0  0  0  0  0  0  0  0  0  # atno 2577 bound_to 2569
    8.3119    5.9352    0.2135 H   0  0  0  0  0  0  0  0  0  0  0  0  # atno 2891 bound_to 2887
   18.9267    2.5825   -1.3602 H   0  0  0  0  0  0  0  0  0  0  0  0  # atno 3175 bound_to 3171
   13.3269   10.2325    8.7664 H   0  0  0  0  0  0  0  0  0  0  0  0  # atno 5278 bound_to 5270
   16.6757   12.6925    6.0364 LP  0  0  0  0  0  0  0  0  0  0  0  0  # atno 5914 bound_to 677 
   15.6022   13.1670    7.1718 LP  0  0  0  0  0  0  0  0  0  0  0  0  # atno 5915 bound_to 677 
   20.8925   11.5576   -0.4775 LP  0  0  0  0  0  0  0  0  0  0  0  0  # atno 5920 bound_to 698 
   20.4614   11.6644   -2.0489 LP  0  0  0  0  0  0  0  0  0  0  0  0  # atno 5921 bound_to 698 
    9.4724    2.1071   -2.5640 LP  0  0  0  0  0  0  0  0  0  0  0  0  # atno 5950 bound_to 2569
    9.9889    3.3971   -3.4219 LP  0  0  0  0  0  0  0  0  0  0  0  0  # atno 5951 bound_to 2569
    7.2912    5.3312    1.2765 LP  0  0  0  0  0  0  0  0  0  0  0  0  # atno 5982 bound_to 2887
    7.6357    6.9273    1.2599 LP  0  0  0  0  0  0  0  0  0  0  0  0  # atno 5983 bound_to 2887
   19.0903    2.9279    0.1856 LP  0  0  0  0  0  0  0  0  0  0  0  0  # atno 6000 bound_to 3171
   17.8793    1.9630   -0.3331 LP  0  0  0  0  0  0  0  0  0  0  0  0  # atno 6001 bound_to 3171
   12.8422    9.8483   10.2341 LP  0  0  0  0  0  0  0  0  0  0  0  0  # atno 6004 bound_to 5270
   14.4325    9.9527    9.8782 LP  0  0  0  0  0  0  0  0  0  0  0  0  # atno 6005 bound_to 5270
   11.2861   19.1127    7.6589 LP  0  0  0  0  0  0  0  0  0  0  0  0  # atno 6055 bound_to 637 
   10.4675   19.7913    8.8983 LP  0  0  0  0  0  0  0  0  0  0  0  0  # atno 6056 bound_to 637 
    0.6755   10.9323   10.9560 LP  0  0  0  0  0  0  0  0  0  0  0  0  # atno 6063 bound_to 1878
    1.4690   12.3556   10.8490 LP  0  0  0  0  0  0  0  0  0  0  0  0  # atno 6064 bound_to 1878
   -6.8093   17.2117   -0.8044 LP  0  0  0  0  0  0  0  0  0  0  0  0  # atno 6067 bound_to 957 
   -7.1640   15.8050   -0.0546 LP  0  0  0  0  0  0  0  0  0  0  0  0  # atno 6068 bound_to 957 

>  <STRIFE_LigEff_Score>  (61) 
2.968535294117647

$$$$
unknown|pharmsElabsTestPreDocking|sdf|62|dock3
     RDKit          3D

 18 18  0  0  0  0  0  0  0  0999 V2000
    4.8726   10.1276    5.3000 C   0  0  0  0  0  0  0  0  0  0  0  0
    5.1081    9.4977    4.1392 C   0  0  0  0  0  0  0  0  0  0  0  0
    6.4024    8.8888    4.0008 N   0  0  0  0  0  0  0  0  0  0  0  0
    7.4140    9.2461    3.0461 C   0  0  0  0  0  0  0  0  0  0  0  0
    7.1543   10.0054    2.0723 O   0  0  0  0  0  0  0  0  0  0  0  0
    8.7978    8.6820    3.2074 C   0  0  0  0  0  0  0  0  0  0  0  0
    9.1756    7.8406    1.9916 C   0  0  0  0  0  0  0  0  0  0  0  0
   10.5008    7.1253    2.2029 C   0  0  0  0  0  0  0  0  0  0  0  0
   11.6380    7.9895    2.8104 C   0  0  0  0  0  0  0  0  0  0  0  0
   12.9689    8.1397    2.0480 C   0  0  0  0  0  0  0  0  0  0  0  0
   14.2670    8.1332    2.8552 C   0  0  0  0  0  0  0  0  0  0  0  0
   12.9434    9.2628    1.1013 N   0  0  0  0  0  0  0  0  0  0  0  0
   11.2265    9.2662    3.6070 C   0  0  0  0  0  0  0  0  0  0  0  0
    9.8155    9.8045    3.3749 C   0  0  0  0  0  0  0  0  0  0  0  0
    4.0593    9.4038    3.0222 C   0  0  0  0  0  0  0  0  0  0  0  0
    4.0906    8.2851    2.2137 C   0  0  0  0  0  0  0  0  0  0  0  0
    4.4164   10.1374    1.8508 C   0  0  0  0  0  0  0  0  0  0  0  0
    2.6642    9.5008    3.4736 N   0  0  0  0  0  0  0  0  0  0  0  0
  1  2  2  0
  2  3  1  0
  3  4  1  0
  4  5  2  0
  4  6  1  0
  6  7  1  0
  7  8  1  0
  8  9  1  0
  9 10  1  0
 10 11  1  0
 10 12  1  0
  9 13  1  0
 13 14  1  0
  2 15  1  0
 15 16  1  0
 15 17  1  0
 15 18  1  0
 14  6  1  0
M  CHG  1  12   1
M  END
>  <EmbedRMS>  (62) 
0.7547621203019138

>  <Gold.Version>  (62) 
2020.3.0

>  <Gold.Id.Protein>  (62) 
unknown|1q8t_protein|pdb

>  <Gold.PLP.Fitness>  (62) 
47.3241

>  <Gold.PLP.PLP>  (62) 
-41.1094

>  <Gold.PLP.part.hbond>  (62) 
-3.0000

>  <Gold.PLP.part.metal>  (62) 
0.0000

>  <Gold.PLP.part.buried>  (62) 
-2.8809

>  <Gold.PLP.part.nonpolar>  (62) 
-35.4093

>  <Gold.PLP.part.repulsive>  (62) 
0.0000

>  <Gold.PLP.ligand.clash>  (62) 
0.0000

>  <Gold.PLP.ligand.torsion>  (62) 
1.8875

>  <Gold.PLP.Chemscore.Hbond>  (62) 
3.0000

>  <Gold.PLP.Chemscore.CHOScore>  (62) 
0.0000

>  <Gold.PLP.Chemscore.Metal>  (62) 
0.0000

>  <Gold.Chemscore.Hbonds>  (62) 
donor molecule, donor type, donor heavy atom, donor atom, acceptor molecule, acceptor atom, score
      L1  H    12    32       P1  2902  2.00
      L1  H    18    45       P1  1855  1.00

>  <Gold.PLP.Chemscore.Internal.Correction>  (62) 
0.9897

>  <Gold.PLP.Constraint>  (62) 
-0.0000

>  <Gold.Protein.RotatedTorsions>  (62) 
[  681  677  676  673 ] final   50.60 input -179.99 | X-H torsion
[  702  698  697  694 ] final  -92.35 input  179.99 | X-H torsion
[ 2577 2569 2568 2566 ] final  169.80 input   -0.13 | X-H torsion
[ 2891 2887 2886 2883 ] final   48.03 input  179.98 | X-H torsion
[ 3175 3171 3170 3167 ] final  -30.33 input -179.99 | X-H torsion
[ 5278 5270 5269 5267 ] final  -34.01 input    0.55 | X-H torsion
[  641  637  636  633 ] final  103.33 input  179.99 | X-H torsion
[ 1886 1878 1877 1875 ] final -123.14 input    1.60 | X-H torsion
[  965  957  956  954 ] final  160.40 input    0.45 | X-H torsion

>  <Gold.Protein.ActiveResidues>  (62) 
 LYS47   THR48   LEU49   GLY50   THR51   GLY52   SER53   PHE54   GLY55   ARG56  
 VAL57   MET58   LEU59   TYR69   ALA70   MET71   LYS72   ILE73   LEU74   GLU91  
 LEU95   VAL104  LYS105  MET118  VAL119  MET120  GLU121  TYR122  VAL123  PRO124 
 GLY125  GLY126  GLU127  MET128  PHE129  TYR164  ASP166  LEU167  LYS168  PRO169 
 GLU170  ASN171  LEU172  LEU173  ILE174  GLN181  VAL182  THR183  ASP184  PHE185 
 GLY186  PHE187  GLY200  THR201  ASN326  PHE327  TYR330  ARG18   ARG19   ASN20  
 ALA21   ILE22   HIS23  

>  <Gold.Protein.RotatedAtoms>  (62) 
   10.5305   19.7512    8.8630 H   0  0  0  0  0  0  0  0  0  0  0  0  # atno 641  bound_to 637 
   16.5364   12.6751    6.0798 H   0  0  0  0  0  0  0  0  0  0  0  0  # atno 681  bound_to 677 
   20.7475   11.5989   -0.4089 H   0  0  0  0  0  0  0  0  0  0  0  0  # atno 702  bound_to 698 
   -7.0087   17.0083   -0.3313 H   0  0  0  0  0  0  0  0  0  0  0  0  # atno 965  bound_to 957 
    0.8586   10.7534   10.8259 H   0  0  0  0  0  0  0  0  0  0  0  0  # atno 1886 bound_to 1878
   10.4491    1.9437   -2.3993 H   0  0  0  0  0  0  0  0  0  0  0  0  # atno 2577 bound_to 2569
    8.3374    6.1023    0.2240 H   0  0  0  0  0  0  0  0  0  0  0  0  # atno 2891 bound_to 2887
   19.3338    2.9516   -0.8436 H   0  0  0  0  0  0  0  0  0  0  0  0  # atno 3175 bound_to 3171
   12.9407    9.8582   10.2679 H   0  0  0  0  0  0  0  0  0  0  0  0  # atno 5278 bound_to 5270
   15.6432   13.2752    7.2538 LP  0  0  0  0  0  0  0  0  0  0  0  0  # atno 5914 bound_to 677 
   17.1259   13.8814    6.9362 LP  0  0  0  0  0  0  0  0  0  0  0  0  # atno 5915 bound_to 677 
   20.6121   11.6367   -1.9956 LP  0  0  0  0  0  0  0  0  0  0  0  0  # atno 5920 bound_to 698 
   19.3061   11.8497   -1.0388 LP  0  0  0  0  0  0  0  0  0  0  0  0  # atno 5921 bound_to 698 
    9.2576    2.7788   -3.0461 LP  0  0  0  0  0  0  0  0  0  0  0  0  # atno 5950 bound_to 2569
   10.8109    3.2389   -3.2518 LP  0  0  0  0  0  0  0  0  0  0  0  0  # atno 5951 bound_to 2569
    7.3777    5.2354    1.1534 LP  0  0  0  0  0  0  0  0  0  0  0  0  # atno 5982 bound_to 2887
    7.5225    6.8472    1.3718 LP  0  0  0  0  0  0  0  0  0  0  0  0  # atno 5983 bound_to 2887
   18.4646    2.4938    0.4096 LP  0  0  0  0  0  0  0  0  0  0  0  0  # atno 6000 bound_to 3171
   18.0766    2.0087   -1.1007 LP  0  0  0  0  0  0  0  0  0  0  0  0  # atno 6001 bound_to 3171
   14.4554    9.9748    9.7893 LP  0  0  0  0  0  0  0  0  0  0  0  0  # atno 6004 bound_to 5270
   13.2256   10.2200    8.7432 LP  0  0  0  0  0  0  0  0  0  0  0  0  # atno 6005 bound_to 5270
    9.6235   19.2117    7.6709 LP  0  0  0  0  0  0  0  0  0  0  0  0  # atno 6055 bound_to 637 
   11.2506   19.0883    7.6072 LP  0  0  0  0  0  0  0  0  0  0  0  0  # atno 6056 bound_to 637 
    1.2047   12.3021   10.9563 LP  0  0  0  0  0  0  0  0  0  0  0  0  # atno 6063 bound_to 1878
    2.2768   11.2564   10.3053 LP  0  0  0  0  0  0  0  0  0  0  0  0  # atno 6064 bound_to 1878
   -6.9963   15.4193   -0.4311 LP  0  0  0  0  0  0  0  0  0  0  0  0  # atno 6067 bound_to 957 
   -6.4303   16.3397   -1.6555 LP  0  0  0  0  0  0  0  0  0  0  0  0  # atno 6068 bound_to 957 

>  <STRIFE_LigEff_Score>  (62) 
2.6291166666666665

$$$$
unknown|pharmsElabsTestPreDocking|sdf|63|dock9
     RDKit          3D

 18 19  0  0  0  0  0  0  0  0999 V2000
   14.1807    9.2428    1.8516 C   0  0  0  0  0  0  0  0  0  0  0  0
   13.2136    8.0714    1.8501 C   0  0  0  0  0  0  0  0  0  0  0  0
   13.4361    7.0840    0.8015 N   0  0  0  0  0  0  0  0  0  0  0  0
   11.7376    8.3819    2.2355 C   0  0  0  0  0  0  0  0  0  0  0  0
   10.7706    7.2039    2.4528 C   0  0  0  0  0  0  0  0  0  0  0  0
    9.3334    7.7405    2.3379 C   0  0  0  0  0  0  0  0  0  0  0  0
    9.0796    8.8494    3.3764 C   0  0  0  0  0  0  0  0  0  0  0  0
    7.6965    9.4169    3.2260 C   0  0  0  0  0  0  0  0  0  0  0  0
    7.3849   10.0948    2.2067 O   0  0  0  0  0  0  0  0  0  0  0  0
    6.7578    9.2234    4.2879 N   0  0  0  0  0  0  0  0  0  0  0  0
    5.3779    9.4453    4.1534 N   0  0  0  0  0  0  0  0  0  0  0  0
    4.4954    9.5088    5.1622 C   0  0  0  0  0  0  0  0  0  0  0  0
    3.2355    9.5832    4.6896 N   0  0  0  0  0  0  0  0  0  0  0  0
    3.3049    9.5421    3.3647 N   0  0  0  0  0  0  0  0  0  0  0  0
    4.6092    9.4503    3.0475 C   0  0  0  0  0  0  0  0  0  0  0  0
    5.0706    9.2084    1.7179 N   0  0  0  0  0  0  0  0  0  0  0  0
   10.1319    9.9733    3.3245 C   0  0  0  0  0  0  0  0  0  0  0  0
   11.5601    9.4114    3.3652 C   0  0  0  0  0  0  0  0  0  0  0  0
  1  2  1  0
  2  3  1  0
  2  4  1  0
  4  5  1  0
  5  6  1  0
  6  7  1  0
  7  8  1  0
  8  9  2  0
  8 10  1  0
 10 11  1  0
 11 12  1  0
 12 13  2  0
 13 14  1  0
 14 15  2  0
 15 16  1  0
  7 17  1  0
 17 18  1  0
 18  4  1  0
 15 11  1  0
M  CHG  1   3   1
M  END
>  <EmbedRMS>  (63) 
0.18254033061587324

>  <Gold.Version>  (63) 
2020.3.0

>  <Gold.Id.Protein>  (63) 
unknown|1q8t_protein|pdb

>  <Gold.PLP.Fitness>  (63) 
47.0994

>  <Gold.PLP.PLP>  (63) 
-35.3169

>  <Gold.PLP.part.hbond>  (63) 
-2.7776

>  <Gold.PLP.part.metal>  (63) 
0.0000

>  <Gold.PLP.part.buried>  (63) 
-4.7871

>  <Gold.PLP.part.nonpolar>  (63) 
-28.5229

>  <Gold.PLP.part.repulsive>  (63) 
0.2939

>  <Gold.PLP.ligand.clash>  (63) 
0.0000

>  <Gold.PLP.ligand.torsion>  (63) 
0.3007

>  <Gold.PLP.Chemscore.Hbond>  (63) 
4.0000

>  <Gold.PLP.Chemscore.CHOScore>  (63) 
0.0000

>  <Gold.PLP.Chemscore.Metal>  (63) 
0.0000

>  <Gold.Chemscore.Hbonds>  (63) 
donor molecule, donor type, donor heavy atom, donor atom, acceptor molecule, acceptor atom, score
      L1  H     3    23       P1  2691  1.00
      L1  H     3    25       P1  2902  2.00
      P1  H  1888  1903       L1    13  1.00

>  <Gold.PLP.Chemscore.Internal.Correction>  (63) 
0.3838

>  <Gold.PLP.Constraint>  (63) 
-0.0000

>  <Gold.Protein.RotatedTorsions>  (63) 
[  681  677  676  673 ] final   20.18 input -179.99 | X-H torsion
[  702  698  697  694 ] final   23.42 input  179.99 | X-H torsion
[ 2577 2569 2568 2566 ] final  -99.39 input   -0.13 | X-H torsion
[ 2891 2887 2886 2883 ] final  -56.19 input  179.98 | X-H torsion
[ 3175 3171 3170 3167 ] final  150.31 input -179.99 | X-H torsion
[ 5278 5270 5269 5267 ] final  178.26 input    0.55 | X-H torsion
[  641  637  636  633 ] final  158.52 input  179.99 | X-H torsion
[ 1886 1878 1877 1875 ] final -106.17 input    1.60 | X-H torsion
[  965  957  956  954 ] final  -28.50 input    0.45 | X-H torsion

>  <Gold.Protein.ActiveResidues>  (63) 
 LYS47   THR48   LEU49   GLY50   THR51   GLY52   SER53   PHE54   GLY55   ARG56  
 VAL57   MET58   LEU59   TYR69   ALA70   MET71   LYS72   ILE73   LEU74   GLU91  
 LEU95   VAL104  LYS105  MET118  VAL119  MET120  GLU121  TYR122  VAL123  PRO124 
 GLY125  GLY126  GLU127  MET128  PHE129  TYR164  ASP166  LEU167  LYS168  PRO169 
 GLU170  ASN171  LEU172  LEU173  ILE174  GLN181  VAL182  THR183  ASP184  PHE185 
 GLY186  PHE187  GLY200  THR201  ASN326  PHE327  TYR330  ARG18   ARG19   ASN20  
 ALA21   ILE22   HIS23  

>  <Gold.Protein.RotatedAtoms>  (63) 
   11.2365   19.5225    8.4923 H   0  0  0  0  0  0  0  0  0  0  0  0  # atno 641  bound_to 637 
   16.1103   12.5892    6.2586 H   0  0  0  0  0  0  0  0  0  0  0  0  # atno 681  bound_to 677 
   19.3634   11.8552   -0.9778 H   0  0  0  0  0  0  0  0  0  0  0  0  # atno 702  bound_to 698 
   -6.5567   15.6162   -1.3535 H   0  0  0  0  0  0  0  0  0  0  0  0  # atno 965  bound_to 957 
    1.0552   10.6153   10.7156 H   0  0  0  0  0  0  0  0  0  0  0  0  # atno 1886 bound_to 1878
   11.0258    2.8974   -3.0193 H   0  0  0  0  0  0  0  0  0  0  0  0  # atno 2577 bound_to 2569
    7.5262    5.1974    0.9469 H   0  0  0  0  0  0  0  0  0  0  0  0  # atno 2891 bound_to 2887
   17.9565    2.0185   -0.1793 H   0  0  0  0  0  0  0  0  0  0  0  0  # atno 3175 bound_to 3171
   14.3889   10.0953    9.3678 H   0  0  0  0  0  0  0  0  0  0  0  0  # atno 5278 bound_to 5270
   15.9216   13.6385    7.4415 LP  0  0  0  0  0  0  0  0  0  0  0  0  # atno 5914 bound_to 677 
   17.2960   13.6085    6.5603 LP  0  0  0  0  0  0  0  0  0  0  0  0  # atno 5915 bound_to 677 
   20.8255   11.5683   -0.4144 LP  0  0  0  0  0  0  0  0  0  0  0  0  # atno 5920 bound_to 698 
   20.5487   11.6484   -2.0217 LP  0  0  0  0  0  0  0  0  0  0  0  0  # atno 5921 bound_to 698 
    9.9888    1.8795   -2.3681 LP  0  0  0  0  0  0  0  0  0  0  0  0  # atno 5950 bound_to 2569
    9.4725    3.1340   -3.2771 LP  0  0  0  0  0  0  0  0  0  0  0  0  # atno 5951 bound_to 2569
    7.3740    6.6816    1.5041 LP  0  0  0  0  0  0  0  0  0  0  0  0  # atno 5982 bound_to 2887
    8.3799    6.3533    0.2603 LP  0  0  0  0  0  0  0  0  0  0  0  0  # atno 5983 bound_to 2887
   18.7944    2.4949   -1.4468 LP  0  0  0  0  0  0  0  0  0  0  0  0  # atno 6000 bound_to 3171
   19.1963    2.9895    0.0567 LP  0  0  0  0  0  0  0  0  0  0  0  0  # atno 6001 bound_to 3171
   12.8454   10.1577    8.9795 LP  0  0  0  0  0  0  0  0  0  0  0  0  # atno 6004 bound_to 5270
   13.3119    9.7876   10.5001 LP  0  0  0  0  0  0  0  0  0  0  0  0  # atno 6005 bound_to 5270
    9.6472   19.6078    8.4491 LP  0  0  0  0  0  0  0  0  0  0  0  0  # atno 6055 bound_to 637 
   10.4833   18.9331    7.2193 LP  0  0  0  0  0  0  0  0  0  0  0  0  # atno 6056 bound_to 637 
    0.9719   12.1726   11.0369 LP  0  0  0  0  0  0  0  0  0  0  0  0  # atno 6063 bound_to 1878
    2.3026   11.5312   10.3408 LP  0  0  0  0  0  0  0  0  0  0  0  0  # atno 6064 bound_to 1878
   -6.7004   17.1715   -1.0447 LP  0  0  0  0  0  0  0  0  0  0  0  0  # atno 6067 bound_to 957 
   -7.2022   16.0535    0.0346 LP  0  0  0  0  0  0  0  0  0  0  0  0  # atno 6068 bound_to 957 

>  <STRIFE_LigEff_Score>  (63) 
2.6166333333333336

$$$$
unknown|pharmsElabsTestPreDocking|sdf|64|dock6
     RDKit          3D

 19 20  0  0  0  0  0  0  0  0999 V2000
   14.0020    7.8996    2.8029 C   0  0  0  0  0  0  0  0  0  0  0  0
   13.6872    9.1183    1.9164 C   0  0  0  0  0  0  0  0  0  0  0  0
   14.2812    8.9155    0.5879 N   0  0  0  0  0  0  0  0  0  0  0  0
   12.1429    9.3637    1.8513 C   0  0  0  0  0  0  0  0  0  0  0  0
   11.4467    8.0671    1.3988 C   0  0  0  0  0  0  0  0  0  0  0  0
    9.9430    8.2176    1.1973 C   0  0  0  0  0  0  0  0  0  0  0  0
    9.3072    9.3118    2.0414 C   0  0  0  0  0  0  0  0  0  0  0  0
    7.8067    9.2857    2.0296 C   0  0  0  0  0  0  0  0  0  0  0  0
    7.2963    8.1771    2.3243 O   0  0  0  0  0  0  0  0  0  0  0  0
    6.9380   10.3890    1.7162 N   0  0  0  0  0  0  0  0  0  0  0  0
    5.4902   10.1352    1.6479 C   0  0  0  0  0  0  0  0  0  0  0  0
    4.8759   10.0038    3.0081 C   0  0  0  0  0  0  0  0  0  0  0  0
    5.6700   10.0950    4.1587 C   0  0  0  0  0  0  0  0  0  0  0  0
    5.0825    9.9861    5.4193 C   0  0  0  0  0  0  0  0  0  0  0  0
    3.7035    9.7886    5.5160 C   0  0  0  0  0  0  0  0  0  0  0  0
    2.9463    9.7013    4.3901 N   0  0  0  0  0  0  0  0  0  0  0  0
    3.4956    9.8037    3.1508 C   0  0  0  0  0  0  0  0  0  0  0  0
   10.0027    9.8634    3.2711 C   0  0  0  0  0  0  0  0  0  0  0  0
   11.5455    9.8093    3.2104 C   0  0  0  0  0  0  0  0  0  0  0  0
  1  2  1  0
  2  3  1  0
  2  4  1  0
  4  5  1  0
  5  6  1  0
  6  7  1  0
  7  8  1  0
  8  9  2  0
  8 10  1  0
 10 11  1  0
 11 12  1  0
 12 13  2  0
 13 14  1  0
 14 15  2  0
 15 16  1  0
 16 17  2  0
  7 18  1  0
 18 19  1  0
 19  4  1  0
 17 12  1  0
M  CHG  1   3   1
M  END
>  <EmbedRMS>  (64) 
0.17084101544492625

>  <Gold.Version>  (64) 
2020.3.0

>  <Gold.Id.Protein>  (64) 
unknown|1q8t_protein|pdb

>  <Gold.PLP.Fitness>  (64) 
62.5878

>  <Gold.PLP.PLP>  (64) 
-45.3029

>  <Gold.PLP.part.hbond>  (64) 
-3.0000

>  <Gold.PLP.part.metal>  (64) 
0.0000

>  <Gold.PLP.part.buried>  (64) 
-2.0643

>  <Gold.PLP.part.nonpolar>  (64) 
-41.9815

>  <Gold.PLP.part.repulsive>  (64) 
0.1495

>  <Gold.PLP.ligand.clash>  (64) 
0.0000

>  <Gold.PLP.ligand.torsion>  (64) 
0.5262

>  <Gold.PLP.Chemscore.Hbond>  (64) 
4.0000

>  <Gold.PLP.Chemscore.CHOScore>  (64) 
1.8714

>  <Gold.PLP.Chemscore.Metal>  (64) 
0.0000

>  <Gold.Chemscore.Hbonds>  (64) 
donor molecule, donor type, donor heavy atom, donor atom, acceptor molecule, acceptor atom, score
      L1  H     3    25       P1  2902  2.00
      P1  H  2887  2891       L1     9  1.00
      P1  H  1888  1903       L1    16  1.00
      L1  C    15    38       P1  1891  0.87
      L1  C    17    39       P1  1855  1.00

>  <Gold.PLP.Chemscore.Internal.Correction>  (64) 
0.7233

>  <Gold.PLP.Constraint>  (64) 
-0.0000

>  <Gold.Protein.RotatedTorsions>  (64) 
[  681  677  676  673 ] final  -77.50 input -179.99 | X-H torsion
[  702  698  697  694 ] final -106.66 input  179.99 | X-H torsion
[ 2577 2569 2568 2566 ] final  -48.51 input   -0.13 | X-H torsion
[ 2891 2887 2886 2883 ] final  162.69 input  179.98 | X-H torsion
[ 3175 3171 3170 3167 ] final   80.05 input -179.99 | X-H torsion
[ 5278 5270 5269 5267 ] final -126.69 input    0.55 | X-H torsion
[  641  637  636  633 ] final  -16.48 input  179.99 | X-H torsion
[ 1886 1878 1877 1875 ] final  -12.54 input    1.60 | X-H torsion
[  965  957  956  954 ] final -177.38 input    0.45 | X-H torsion

>  <Gold.Protein.ActiveResidues>  (64) 
 LYS47   THR48   LEU49   GLY50   THR51   GLY52   SER53   PHE54   GLY55   ARG56  
 VAL57   MET58   LEU59   TYR69   ALA70   MET71   LYS72   ILE73   LEU74   GLU91  
 LEU95   VAL104  LYS105  MET118  VAL119  MET120  GLU121  TYR122  VAL123  PRO124 
 GLY125  GLY126  GLU127  MET128  PHE129  TYR164  ASP166  LEU167  LYS168  PRO169 
 GLU170  ASN171  LEU172  LEU173  ILE174  GLN181  VAL182  THR183  ASP184  PHE185 
 GLY186  PHE187  GLY200  THR201  ASN326  PHE327  TYR330  ARG18   ARG19   ASN20  
 ALA21   ILE22   HIS23  

>  <Gold.Protein.RotatedAtoms>  (64) 
    9.6639   19.2059    7.7004 H   0  0  0  0  0  0  0  0  0  0  0  0  # atno 641  bound_to 637 
   15.7284   13.3818    7.2810 H   0  0  0  0  0  0  0  0  0  0  0  0  # atno 681  bound_to 677 
   20.9087   11.5732   -0.5613 H   0  0  0  0  0  0  0  0  0  0  0  0  # atno 702  bound_to 698 
   -6.8762   17.1442   -0.6195 H   0  0  0  0  0  0  0  0  0  0  0  0  # atno 965  bound_to 957 
    2.1842   11.1277   10.3053 H   0  0  0  0  0  0  0  0  0  0  0  0  # atno 1886 bound_to 1878
   10.4932    3.3344   -3.3617 H   0  0  0  0  0  0  0  0  0  0  0  0  # atno 2577 bound_to 2569
    7.5743    6.8516    1.2875 H   0  0  0  0  0  0  0  0  0  0  0  0  # atno 2891 bound_to 2887
   18.2043    2.0712   -1.1786 H   0  0  0  0  0  0  0  0  0  0  0  0  # atno 3175 bound_to 3171
   14.2319    9.8990   10.1569 H   0  0  0  0  0  0  0  0  0  0  0  0  # atno 5278 bound_to 5270
   17.1927   13.8230    6.8369 LP  0  0  0  0  0  0  0  0  0  0  0  0  # atno 5914 bound_to 677 
   16.4268   12.5899    6.0888 LP  0  0  0  0  0  0  0  0  0  0  0  0  # atno 5915 bound_to 677 
   20.3911   11.6771   -2.0642 LP  0  0  0  0  0  0  0  0  0  0  0  0  # atno 5920 bound_to 698 
   19.3574   11.8362   -0.8100 LP  0  0  0  0  0  0  0  0  0  0  0  0  # atno 5921 bound_to 698 
   10.7737    2.0664   -2.4404 LP  0  0  0  0  0  0  0  0  0  0  0  0  # atno 5950 bound_to 2569
    9.2484    2.4870   -2.8442 LP  0  0  0  0  0  0  0  0  0  0  0  0  # atno 5951 bound_to 2569
    8.3701    6.0149    0.1907 LP  0  0  0  0  0  0  0  0  0  0  0  0  # atno 5982 bound_to 2887
    7.3332    5.2790    1.2153 LP  0  0  0  0  0  0  0  0  0  0  0  0  # atno 5983 bound_to 2887
   19.3869    3.0300   -0.7121 LP  0  0  0  0  0  0  0  0  0  0  0  0  # atno 6000 bound_to 3171
   18.3430    2.3990    0.3735 LP  0  0  0  0  0  0  0  0  0  0  0  0  # atno 6001 bound_to 3171
   13.6690   10.2340    8.7051 LP  0  0  0  0  0  0  0  0  0  0  0  0  # atno 6004 bound_to 5270
   12.6535    9.9178    9.9442 LP  0  0  0  0  0  0  0  0  0  0  0  0  # atno 6005 bound_to 5270
   11.2488   19.0872    7.6048 LP  0  0  0  0  0  0  0  0  0  0  0  0  # atno 6055 bound_to 637 
   10.5379   19.7871    8.8976 LP  0  0  0  0  0  0  0  0  0  0  0  0  # atno 6056 bound_to 637 
    0.7423   10.8232   10.9080 LP  0  0  0  0  0  0  0  0  0  0  0  0  # atno 6063 bound_to 1878
    1.3437   12.3413   10.9017 LP  0  0  0  0  0  0  0  0  0  0  0  0  # atno 6064 bound_to 1878
   -7.1151   15.6369   -0.1655 LP  0  0  0  0  0  0  0  0  0  0  0  0  # atno 6067 bound_to 957 
   -6.4510   15.9789   -1.6176 LP  0  0  0  0  0  0  0  0  0  0  0  0  # atno 6068 bound_to 957 

>  <STRIFE_LigEff_Score>  (64) 
3.2940947368421054

$$$$
unknown|pharmsElabsTestPreDocking|sdf|65|dock4
     RDKit          3D

 17 18  0  0  0  0  0  0  0  0999 V2000
   13.9842    9.4876    1.1273 C   0  0  0  0  0  0  0  0  0  0  0  0
   13.5162    8.1931    1.7920 C   0  0  0  0  0  0  0  0  0  0  0  0
   13.4370    7.0988    0.8147 N   0  0  0  0  0  0  0  0  0  0  0  0
   12.2749    8.2521    2.7039 C   0  0  0  0  0  0  0  0  0  0  0  0
   11.2031    7.1327    2.6160 C   0  0  0  0  0  0  0  0  0  0  0  0
    9.7899    7.5998    2.3000 C   0  0  0  0  0  0  0  0  0  0  0  0
    9.4067    8.8251    3.1274 C   0  0  0  0  0  0  0  0  0  0  0  0
    7.9609    9.1769    2.9046 C   0  0  0  0  0  0  0  0  0  0  0  0
    7.5884    9.6086    1.7795 O   0  0  0  0  0  0  0  0  0  0  0  0
    7.0302    9.0381    3.9874 N   0  0  0  0  0  0  0  0  0  0  0  0
    5.6257    9.3145    3.9185 C   0  0  0  0  0  0  0  0  0  0  0  0
    4.7591    9.0278    2.8750 C   0  0  0  0  0  0  0  0  0  0  0  0
    3.5436    9.5029    3.3156 C   0  0  0  0  0  0  0  0  0  0  0  0
    3.6989   10.0322    4.5419 N   0  0  0  0  0  0  0  0  0  0  0  0
    4.9613    9.9232    4.9180 N   0  0  0  0  0  0  0  0  0  0  0  0
   10.3017    9.9942    2.7307 C   0  0  0  0  0  0  0  0  0  0  0  0
   11.7781    9.7021    2.9912 C   0  0  0  0  0  0  0  0  0  0  0  0
  1  2  1  0
  2  3  1  0
  2  4  1  0
  4  5  1  0
  5  6  1  0
  6  7  1  0
  7  8  1  0
  8  9  2  0
  8 10  1  0
 10 11  1  0
 11 12  1  0
 12 13  2  0
 13 14  1  0
 14 15  1  0
  7 16  1  0
 16 17  1  0
 17  4  1  0
 15 11  2  0
M  CHG  1   3   1
M  END
>  <EmbedRMS>  (65) 
0.20783527019262546

>  <Gold.Version>  (65) 
2020.3.0

>  <Gold.Id.Protein>  (65) 
unknown|1q8t_protein|pdb

>  <Gold.PLP.Fitness>  (65) 
42.9148

>  <Gold.PLP.PLP>  (65) 
-34.3156

>  <Gold.PLP.part.hbond>  (65) 
-1.8488

>  <Gold.PLP.part.metal>  (65) 
0.0000

>  <Gold.PLP.part.buried>  (65) 
-4.1946

>  <Gold.PLP.part.nonpolar>  (65) 
-27.5872

>  <Gold.PLP.part.repulsive>  (65) 
0.1612

>  <Gold.PLP.ligand.clash>  (65) 
0.0000

>  <Gold.PLP.ligand.torsion>  (65) 
1.7136

>  <Gold.PLP.Chemscore.Hbond>  (65) 
2.8800

>  <Gold.PLP.Chemscore.CHOScore>  (65) 
1.0000

>  <Gold.PLP.Chemscore.Metal>  (65) 
0.0000

>  <Gold.Chemscore.Hbonds>  (65) 
donor molecule, donor type, donor heavy atom, donor atom, acceptor molecule, acceptor atom, score
      L1  H     3    22       P1  2902  2.00
      L1  H     3    23       P1  2691  0.88
      L1  C    13    33       P1  1855  1.00

>  <Gold.PLP.Chemscore.Internal.Correction>  (65) 
0.3863

>  <Gold.PLP.Constraint>  (65) 
-0.0000

>  <Gold.Protein.RotatedTorsions>  (65) 
[  681  677  676  673 ] final -127.89 input -179.99 | X-H torsion
[  702  698  697  694 ] final -174.82 input  179.99 | X-H torsion
[ 2577 2569 2568 2566 ] final  -49.37 input   -0.13 | X-H torsion
[ 2891 2887 2886 2883 ] final   54.68 input  179.98 | X-H torsion
[ 3175 3171 3170 3167 ] final -103.32 input -179.99 | X-H torsion
[ 5278 5270 5269 5267 ] final -123.01 input    0.55 | X-H torsion
[  641  637  636  633 ] final   41.56 input  179.99 | X-H torsion
[ 1886 1878 1877 1875 ] final  -67.25 input    1.60 | X-H torsion
[  965  957  956  954 ] final -165.82 input    0.45 | X-H torsion

>  <Gold.Protein.ActiveResidues>  (65) 
 LYS47   THR48   LEU49   GLY50   THR51   GLY52   SER53   PHE54   GLY55   ARG56  
 VAL57   MET58   LEU59   TYR69   ALA70   MET71   LYS72   ILE73   LEU74   GLU91  
 LEU95   VAL104  LYS105  MET118  VAL119  MET120  GLU121  TYR122  VAL123  PRO124 
 GLY125  GLY126  GLU127  MET128  PHE129  TYR164  ASP166  LEU167  LYS168  PRO169 
 GLU170  ASN171  LEU172  LEU173  ILE174  GLN181  VAL182  THR183  ASP184  PHE185 
 GLY186  PHE187  GLY200  THR201  ASN326  PHE327  TYR330  ARG18   ARG19   ASN20  
 ALA21   ILE22   HIS23  

>  <Gold.Protein.RotatedAtoms>  (65) 
    9.7120   19.5982    8.4738 H   0  0  0  0  0  0  0  0  0  0  0  0  # atno 641  bound_to 637 
   16.3072   13.8638    7.4003 H   0  0  0  0  0  0  0  0  0  0  0  0  # atno 681  bound_to 677 
   21.0108   11.5744   -1.5605 H   0  0  0  0  0  0  0  0  0  0  0  0  # atno 702  bound_to 698 
   -6.8018   17.1640   -0.7826 H   0  0  0  0  0  0  0  0  0  0  0  0  # atno 965  bound_to 957 
    1.5973   10.5746   10.4697 H   0  0  0  0  0  0  0  0  0  0  0  0  # atno 1886 bound_to 1878
   10.5057    3.3308   -3.3584 H   0  0  0  0  0  0  0  0  0  0  0  0  # atno 2577 bound_to 2569
    8.3427    6.2045    0.2424 H   0  0  0  0  0  0  0  0  0  0  0  0  # atno 2891 bound_to 2887
   19.0491    2.8749    0.1803 H   0  0  0  0  0  0  0  0  0  0  0  0  # atno 3175 bound_to 3171
   14.1946    9.8881   10.1995 H   0  0  0  0  0  0  0  0  0  0  0  0  # atno 5278 bound_to 5270
   17.2438   13.2702    6.2572 LP  0  0  0  0  0  0  0  0  0  0  0  0  # atno 5914 bound_to 677 
   15.7666   12.6354    6.5430 LP  0  0  0  0  0  0  0  0  0  0  0  0  # atno 5915 bound_to 677 
   19.4412   11.8372   -1.6300 LP  0  0  0  0  0  0  0  0  0  0  0  0  # atno 5920 bound_to 698 
   20.1999   11.6749   -0.1931 LP  0  0  0  0  0  0  0  0  0  0  0  0  # atno 5921 bound_to 698 
   10.7627    2.0588   -2.4359 LP  0  0  0  0  0  0  0  0  0  0  0  0  # atno 5950 bound_to 2569
    9.2462    2.4984   -2.8523 LP  0  0  0  0  0  0  0  0  0  0  0  0  # atno 5951 bound_to 2569
    7.4376    5.1911    1.0734 LP  0  0  0  0  0  0  0  0  0  0  0  0  # atno 5982 bound_to 2887
    7.4570    6.7839    1.4325 LP  0  0  0  0  0  0  0  0  0  0  0  0  # atno 5983 bound_to 2887
   17.8757    1.9545   -0.3780 LP  0  0  0  0  0  0  0  0  0  0  0  0  # atno 6000 bound_to 3171
   18.9650    2.6287   -1.3907 LP  0  0  0  0  0  0  0  0  0  0  0  0  # atno 6001 bound_to 3171
   13.7286   10.2320    8.7158 LP  0  0  0  0  0  0  0  0  0  0  0  0  # atno 6004 bound_to 5270
   12.6331    9.9313    9.8888 LP  0  0  0  0  0  0  0  0  0  0  0  0  # atno 6005 bound_to 5270
   10.4336   18.9356    7.2187 LP  0  0  0  0  0  0  0  0  0  0  0  0  # atno 6055 bound_to 637 
   11.3025   19.5256    8.4691 LP  0  0  0  0  0  0  0  0  0  0  0  0  # atno 6056 bound_to 637 
    0.6184   11.6578   11.1049 LP  0  0  0  0  0  0  0  0  0  0  0  0  # atno 6063 bound_to 1878
    2.0854   12.0889   10.5317 LP  0  0  0  0  0  0  0  0  0  0  0  0  # atno 6064 bound_to 1878
   -7.1605   15.7899   -0.0626 LP  0  0  0  0  0  0  0  0  0  0  0  0  # atno 6067 bound_to 957 
   -6.4840   15.8050   -1.5488 LP  0  0  0  0  0  0  0  0  0  0  0  0  # atno 6068 bound_to 957 

>  <STRIFE_LigEff_Score>  (65) 
2.5244

$$$$
unknown|pharmsElabsTestPreDocking|sdf|66|dock8
     RDKit          3D

 16 16  0  0  0  0  0  0  0  0999 V2000
   13.7331    8.2599    3.6803 C   0  0  0  0  0  0  0  0  0  0  0  0
   12.8300    8.4559    2.4533 C   0  0  0  0  0  0  0  0  0  0  0  0
   13.1967    7.5026    1.3998 N   0  0  0  0  0  0  0  0  0  0  0  0
   11.2844    8.4772    2.7254 C   0  0  0  0  0  0  0  0  0  0  0  0
   10.3984    7.9018    1.6045 C   0  0  0  0  0  0  0  0  0  0  0  0
    8.9977    8.4803    1.5352 C   0  0  0  0  0  0  0  0  0  0  0  0
    8.3878    8.7009    2.9144 C   0  0  0  0  0  0  0  0  0  0  0  0
    6.9605    9.1633    2.7613 C   0  0  0  0  0  0  0  0  0  0  0  0
    6.5479    9.5708    1.6390 O   0  0  0  0  0  0  0  0  0  0  0  0
    6.0918    9.1597    3.9022 N   0  0  0  0  0  0  0  0  0  0  0  0
    4.6767    9.5642    3.8798 C   0  0  0  0  0  0  0  0  0  0  0  0
    4.5349   10.9847    3.3042 C   0  0  0  0  0  0  0  0  0  0  0  0
    3.9000    8.5898    2.9773 C   0  0  0  0  0  0  0  0  0  0  0  0
    4.0821    9.5004    5.2976 C   0  0  0  0  0  0  0  0  0  0  0  0
    9.1889    9.7416    3.7047 C   0  0  0  0  0  0  0  0  0  0  0  0
   10.7177    9.5512    3.6775 C   0  0  0  0  0  0  0  0  0  0  0  0
  1  2  1  0
  2  3  1  0
  2  4  1  0
  4  5  1  0
  5  6  1  0
  6  7  1  0
  7  8  1  0
  8  9  2  0
  8 10  1  0
 10 11  1  0
 11 12  1  0
 11 13  1  0
 11 14  1  0
  7 15  1  0
 15 16  1  0
 16  4  1  0
M  CHG  1   3   1
M  END
>  <EmbedRMS>  (66) 
0.17423024192686873

>  <Gold.Version>  (66) 
2020.3.0

>  <Gold.Id.Protein>  (66) 
unknown|1q8t_protein|pdb

>  <Gold.PLP.Fitness>  (66) 
40.8718

>  <Gold.PLP.PLP>  (66) 
-33.7359

>  <Gold.PLP.part.hbond>  (66) 
-2.0000

>  <Gold.PLP.part.metal>  (66) 
0.0000

>  <Gold.PLP.part.buried>  (66) 
-2.9013

>  <Gold.PLP.part.nonpolar>  (66) 
-28.9852

>  <Gold.PLP.part.repulsive>  (66) 
0.0158

>  <Gold.PLP.ligand.clash>  (66) 
0.0000

>  <Gold.PLP.ligand.torsion>  (66) 
0.8469

>  <Gold.PLP.Chemscore.Hbond>  (66) 
2.7520

>  <Gold.PLP.Chemscore.CHOScore>  (66) 
0.0000

>  <Gold.PLP.Chemscore.Metal>  (66) 
0.0000

>  <Gold.Chemscore.Hbonds>  (66) 
donor molecule, donor type, donor heavy atom, donor atom, acceptor molecule, acceptor atom, score
      L1  H     3    22       P1  2902  2.00
      L1  H     3    23       P1  2691  0.75

>  <Gold.PLP.Chemscore.Internal.Correction>  (66) 
0.5738

>  <Gold.PLP.Constraint>  (66) 
-0.0000

>  <Gold.Protein.RotatedTorsions>  (66) 
[  681  677  676  673 ] final  168.00 input -179.99 | X-H torsion
[  702  698  697  694 ] final -125.38 input  179.99 | X-H torsion
[ 2577 2569 2568 2566 ] final   42.25 input   -0.13 | X-H torsion
[ 2891 2887 2886 2883 ] final -132.29 input  179.98 | X-H torsion
[ 3175 3171 3170 3167 ] final -140.70 input -179.99 | X-H torsion
[ 5278 5270 5269 5267 ] final  -35.72 input    0.55 | X-H torsion
[  641  637  636  633 ] final    5.41 input  179.99 | X-H torsion
[ 1886 1878 1877 1875 ] final   70.48 input    1.60 | X-H torsion
[  965  957  956  954 ] final  -61.55 input    0.45 | X-H torsion

>  <Gold.Protein.ActiveResidues>  (66) 
 LYS47   THR48   LEU49   GLY50   THR51   GLY52   SER53   PHE54   GLY55   ARG56  
 VAL57   MET58   LEU59   TYR69   ALA70   MET71   LYS72   ILE73   LEU74   GLU91  
 LEU95   VAL104  LYS105  MET118  VAL119  MET120  GLU121  TYR122  VAL123  PRO124 
 GLY125  GLY126  GLU127  MET128  PHE129  TYR164  ASP166  LEU167  LYS168  PRO169 
 GLU170  ASN171  LEU172  LEU173  ILE174  GLN181  VAL182  THR183  ASP184  PHE185 
 GLY186  PHE187  GLY200  THR201  ASN326  PHE327  TYR330  ARG18   ARG19   ASN20  
 ALA21   ILE22   HIS23  

>  <Gold.Protein.RotatedAtoms>  (66) 
    9.5767   19.3592    7.9909 H   0  0  0  0  0  0  0  0  0  0  0  0  # atno 641  bound_to 637 
   17.1068   13.8447    6.8861 H   0  0  0  0  0  0  0  0  0  0  0  0  # atno 681  bound_to 677 
   21.0550   11.5522   -0.8125 H   0  0  0  0  0  0  0  0  0  0  0  0  # atno 702  bound_to 698 
   -6.4469   16.0560   -1.5856 H   0  0  0  0  0  0  0  0  0  0  0  0  # atno 965  bound_to 957 
    1.8509   12.2172   10.6380 H   0  0  0  0  0  0  0  0  0  0  0  0  # atno 1886 bound_to 1878
    9.3374    2.8566   -3.1147 H   0  0  0  0  0  0  0  0  0  0  0  0  # atno 2577 bound_to 2569
    7.1590    6.0306    1.5718 H   0  0  0  0  0  0  0  0  0  0  0  0  # atno 2891 bound_to 2887
   18.6032    2.5701    0.3745 H   0  0  0  0  0  0  0  0  0  0  0  0  # atno 3175 bound_to 3171
   12.9612    9.8542   10.2848 H   0  0  0  0  0  0  0  0  0  0  0  0  # atno 5278 bound_to 5270
   16.5097   12.6177    6.0651 LP  0  0  0  0  0  0  0  0  0  0  0  0  # atno 5914 bound_to 677 
   15.6591   13.3079    7.2763 LP  0  0  0  0  0  0  0  0  0  0  0  0  # atno 5915 bound_to 677 
   20.0892   11.7307   -2.0666 LP  0  0  0  0  0  0  0  0  0  0  0  0  # atno 5920 bound_to 698 
   19.5055   11.8048   -0.5433 LP  0  0  0  0  0  0  0  0  0  0  0  0  # atno 5921 bound_to 698 
   10.8967    3.1685   -3.1966 LP  0  0  0  0  0  0  0  0  0  0  0  0  # atno 5950 bound_to 2569
   10.3423    1.8881   -2.3482 LP  0  0  0  0  0  0  0  0  0  0  0  0  # atno 5951 bound_to 2569
    8.1456    6.8851    0.6592 LP  0  0  0  0  0  0  0  0  0  0  0  0  # atno 5982 bound_to 2887
    7.9948    5.2729    0.4476 LP  0  0  0  0  0  0  0  0  0  0  0  0  # atno 5983 bound_to 2887
   17.9980    1.9676   -0.9695 LP  0  0  0  0  0  0  0  0  0  0  0  0  # atno 6000 bound_to 3171
   19.3121    2.9364   -1.0035 LP  0  0  0  0  0  0  0  0  0  0  0  0  # atno 6001 bound_to 3171
   14.4604    9.9815    9.7624 LP  0  0  0  0  0  0  0  0  0  0  0  0  # atno 6004 bound_to 5270
   13.1991   10.2175    8.7524 LP  0  0  0  0  0  0  0  0  0  0  0  0  # atno 6005 bound_to 5270
   10.9956   18.9835    7.3740 LP  0  0  0  0  0  0  0  0  0  0  0  0  # atno 6055 bound_to 637 
   10.8830   19.7294    8.8224 LP  0  0  0  0  0  0  0  0  0  0  0  0  # atno 6056 bound_to 637 
    1.8625   10.6454   10.3838 LP  0  0  0  0  0  0  0  0  0  0  0  0  # atno 6063 bound_to 1878
    0.5743   11.3722   11.0757 LP  0  0  0  0  0  0  0  0  0  0  0  0  # atno 6064 bound_to 1878
   -6.9225   17.1740   -0.5565 LP  0  0  0  0  0  0  0  0  0  0  0  0  # atno 6067 bound_to 957 
   -7.0958   15.5878   -0.2091 LP  0  0  0  0  0  0  0  0  0  0  0  0  # atno 6068 bound_to 957 

>  <STRIFE_LigEff_Score>  (66) 
2.5544875

$$$$
unknown|pharmsElabsTestPreDocking|sdf|67|dock1
     RDKit          3D

 17 18  0  0  0  0  0  0  0  0999 V2000
   13.4350    7.5220    3.8466 C   0  0  0  0  0  0  0  0  0  0  0  0
   13.1227    8.2452    2.5217 C   0  0  0  0  0  0  0  0  0  0  0  0
   13.4919    7.3734    1.3989 N   0  0  0  0  0  0  0  0  0  0  0  0
   11.6214    8.6572    2.4772 C   0  0  0  0  0  0  0  0  0  0  0  0
   10.7286    7.4082    2.6270 C   0  0  0  0  0  0  0  0  0  0  0  0
    9.2667    7.7801    2.4249 C   0  0  0  0  0  0  0  0  0  0  0  0
    8.8362    8.8201    3.4647 C   0  0  0  0  0  0  0  0  0  0  0  0
    7.3905    9.1754    3.2737 C   0  0  0  0  0  0  0  0  0  0  0  0
    7.0013    9.6536    2.1739 O   0  0  0  0  0  0  0  0  0  0  0  0
    6.4759    8.9666    4.3581 N   0  0  0  0  0  0  0  0  0  0  0  0
    5.0958    9.2268    4.2998 N   0  0  0  0  0  0  0  0  0  0  0  0
    4.2281    9.4781    5.2964 C   0  0  0  0  0  0  0  0  0  0  0  0
    3.0010    9.6560    4.7766 N   0  0  0  0  0  0  0  0  0  0  0  0
    3.1443    9.5092    3.4656 N   0  0  0  0  0  0  0  0  0  0  0  0
    4.4088    9.2493    3.1743 N   0  0  0  0  0  0  0  0  0  0  0  0
    9.7275   10.0728    3.4100 C   0  0  0  0  0  0  0  0  0  0  0  0
   11.2135    9.7008    3.5468 C   0  0  0  0  0  0  0  0  0  0  0  0
  1  2  1  0
  2  3  1  0
  2  4  1  0
  4  5  1  0
  5  6  1  0
  6  7  1  0
  7  8  1  0
  8  9  2  0
  8 10  1  0
 10 11  1  0
 11 12  1  0
 12 13  2  0
 13 14  1  0
 14 15  2  0
  7 16  1  0
 16 17  1  0
 17  4  1  0
 15 11  1  0
M  CHG  1   3   1
M  END
>  <EmbedRMS>  (67) 
0.030620254940186248

>  <Gold.Version>  (67) 
2020.3.0

>  <Gold.Id.Protein>  (67) 
unknown|1q8t_protein|pdb

>  <Gold.PLP.Fitness>  (67) 
47.1131

>  <Gold.PLP.PLP>  (67) 
-35.3950

>  <Gold.PLP.part.hbond>  (67) 
-3.4888

>  <Gold.PLP.part.metal>  (67) 
0.0000

>  <Gold.PLP.part.buried>  (67) 
-6.8335

>  <Gold.PLP.part.nonpolar>  (67) 
-25.7174

>  <Gold.PLP.part.repulsive>  (67) 
0.3233

>  <Gold.PLP.ligand.clash>  (67) 
0.0000

>  <Gold.PLP.ligand.torsion>  (67) 
0.1692

>  <Gold.PLP.Chemscore.Hbond>  (67) 
4.0000

>  <Gold.PLP.Chemscore.CHOScore>  (67) 
0.0000

>  <Gold.PLP.Chemscore.Metal>  (67) 
0.0000

>  <Gold.Chemscore.Hbonds>  (67) 
donor molecule, donor type, donor heavy atom, donor atom, acceptor molecule, acceptor atom, score
      L1  H     3    22       P1  2691  1.00
      L1  H     3    24       P1  2902  2.00
      P1  H  1888  1903       L1    13  1.00

>  <Gold.PLP.Chemscore.Internal.Correction>  (67) 
0.0565

>  <Gold.PLP.Constraint>  (67) 
-0.0000

>  <Gold.Protein.RotatedTorsions>  (67) 
[  681  677  676  673 ] final  162.09 input -179.99 | X-H torsion
[  702  698  697  694 ] final -142.35 input  179.99 | X-H torsion
[ 2577 2569 2568 2566 ] final  -51.11 input   -0.13 | X-H torsion
[ 2891 2887 2886 2883 ] final  158.92 input  179.98 | X-H torsion
[ 3175 3171 3170 3167 ] final -107.62 input -179.99 | X-H torsion
[ 5278 5270 5269 5267 ] final  118.29 input    0.55 | X-H torsion
[  641  637  636  633 ] final   23.61 input  179.99 | X-H torsion
[ 1886 1878 1877 1875 ] final -125.70 input    1.60 | X-H torsion
[  965  957  956  954 ] final  123.21 input    0.45 | X-H torsion

>  <Gold.Protein.ActiveResidues>  (67) 
 LYS47   THR48   LEU49   GLY50   THR51   GLY52   SER53   PHE54   GLY55   ARG56  
 VAL57   MET58   LEU59   TYR69   ALA70   MET71   LYS72   ILE73   LEU74   GLU91  
 LEU95   VAL104  LYS105  MET118  VAL119  MET120  GLU121  TYR122  VAL123  PRO124 
 GLY125  GLY126  GLU127  MET128  PHE129  TYR164  ASP166  LEU167  LYS168  PRO169 
 GLU170  ASN171  LEU172  LEU173  ILE174  GLN181  VAL182  THR183  ASP184  PHE185 
 GLY186  PHE187  GLY200  THR201  ASN326  PHE327  TYR330  ARG18   ARG19   ASN20  
 ALA21   ILE22   HIS23  

>  <Gold.Protein.RotatedAtoms>  (67) 
    9.6020   19.4864    8.2428 H   0  0  0  0  0  0  0  0  0  0  0  0  # atno 641  bound_to 637 
   17.1513   13.8027    6.8168 H   0  0  0  0  0  0  0  0  0  0  0  0  # atno 681  bound_to 677 
   21.1127   11.5469   -1.0705 H   0  0  0  0  0  0  0  0  0  0  0  0  # atno 702  bound_to 698 
   -7.1549   16.5529   -0.0195 H   0  0  0  0  0  0  0  0  0  0  0  0  # atno 965  bound_to 957 
    0.8329   10.7797   10.8417 H   0  0  0  0  0  0  0  0  0  0  0  0  # atno 1886 bound_to 1878
   10.5308    3.3232   -3.3512 H   0  0  0  0  0  0  0  0  0  0  0  0  # atno 2577 bound_to 2569
    7.6120    6.8765    1.2497 H   0  0  0  0  0  0  0  0  0  0  0  0  # atno 2891 bound_to 2887
   19.0032    2.8461    0.2200 H   0  0  0  0  0  0  0  0  0  0  0  0  # atno 3175 bound_to 3171
   13.7384   10.2363    8.7685 H   0  0  0  0  0  0  0  0  0  0  0  0  # atno 5278 bound_to 5270
   16.4207   12.5881    6.0909 LP  0  0  0  0  0  0  0  0  0  0  0  0  # atno 5914 bound_to 677 
   15.7013   13.3818    7.3234 LP  0  0  0  0  0  0  0  0  0  0  0  0  # atno 5915 bound_to 677 
   19.8276   11.7755   -1.9835 LP  0  0  0  0  0  0  0  0  0  0  0  0  # atno 5920 bound_to 698 
   19.7064   11.7655   -0.3550 LP  0  0  0  0  0  0  0  0  0  0  0  0  # atno 5921 bound_to 698 
   10.7401    2.0436   -2.4270 LP  0  0  0  0  0  0  0  0  0  0  0  0  # atno 5950 bound_to 2569
    9.2424    2.5216   -2.8687 LP  0  0  0  0  0  0  0  0  0  0  0  0  # atno 5951 bound_to 2569
    8.3595    5.9539    0.1883 LP  0  0  0  0  0  0  0  0  0  0  0  0  # atno 5982 bound_to 2887
    7.3041    5.3139    1.2575 LP  0  0  0  0  0  0  0  0  0  0  0  0  # atno 5983 bound_to 2887
   17.8738    1.9439   -0.4478 LP  0  0  0  0  0  0  0  0  0  0  0  0  # atno 6000 bound_to 3171
   19.0153    2.6696   -1.3626 LP  0  0  0  0  0  0  0  0  0  0  0  0  # atno 6001 bound_to 3171
   12.6268    9.9361    9.8690 LP  0  0  0  0  0  0  0  0  0  0  0  0  # atno 6004 bound_to 5270
   14.2150    9.8609   10.2411 LP  0  0  0  0  0  0  0  0  0  0  0  0  # atno 6005 bound_to 5270
   10.7252   18.9385    7.2562 LP  0  0  0  0  0  0  0  0  0  0  0  0  # atno 6055 bound_to 637 
   11.1267   19.6405    8.6749 LP  0  0  0  0  0  0  0  0  0  0  0  0  # atno 6056 bound_to 637 
    1.2421   12.3152   10.9421 LP  0  0  0  0  0  0  0  0  0  0  0  0  # atno 6063 bound_to 1878
    2.2664   11.2157   10.3030 LP  0  0  0  0  0  0  0  0  0  0  0  0  # atno 6064 bound_to 1878
   -6.7498   15.3450   -0.9744 LP  0  0  0  0  0  0  0  0  0  0  0  0  # atno 6067 bound_to 957 
   -6.5228   16.8935   -1.4406 LP  0  0  0  0  0  0  0  0  0  0  0  0  # atno 6068 bound_to 957 

>  <STRIFE_LigEff_Score>  (67) 
2.771358823529412

$$$$
unknown|pharmsElabsTestPreDocking|sdf|68|dock7
     RDKit          3D

 18 18  0  0  0  0  0  0  0  0999 V2000
    5.2168    9.1989    1.3899 C   0  0  0  0  0  0  0  0  0  0  0  0
    4.7756    9.0798    2.6450 C   0  0  0  0  0  0  0  0  0  0  0  0
    3.3025    8.8787    2.8966 C   0  0  0  0  0  0  0  0  0  0  0  0
    5.7246    9.2932    3.7775 C   0  0  0  0  0  0  0  0  0  0  0  0
    5.3510   10.0510    4.8258 C   0  0  0  0  0  0  0  0  0  0  0  0
    6.2523   10.3400    5.9861 C   0  0  0  0  0  0  0  0  0  0  0  0
    7.0781    8.7991    3.7123 N   0  0  0  0  0  0  0  0  0  0  0  0
    8.0827    9.2815    2.8119 C   0  0  0  0  0  0  0  0  0  0  0  0
    7.7862   10.1035    1.8987 O   0  0  0  0  0  0  0  0  0  0  0  0
    9.5074    8.8060    2.9736 C   0  0  0  0  0  0  0  0  0  0  0  0
    9.9300    8.0200    1.7384 C   0  0  0  0  0  0  0  0  0  0  0  0
   11.3133    7.4106    1.8808 C   0  0  0  0  0  0  0  0  0  0  0  0
   12.3506    8.3065    2.5840 C   0  0  0  0  0  0  0  0  0  0  0  0
   13.8487    8.0648    2.1817 C   0  0  0  0  0  0  0  0  0  0  0  0
   14.8090    7.7026    3.3247 C   0  0  0  0  0  0  0  0  0  0  0  0
   13.9824    7.0980    1.0859 N   0  0  0  0  0  0  0  0  0  0  0  0
   11.9395    9.7047    3.0912 C   0  0  0  0  0  0  0  0  0  0  0  0
   10.4322   10.0074    3.1973 C   0  0  0  0  0  0  0  0  0  0  0  0
  1  2  2  0
  2  3  1  0
  2  4  1  0
  4  5  2  0
  5  6  1  0
  4  7  1  0
  7  8  1  0
  8  9  2  0
  8 10  1  0
 10 11  1  0
 11 12  1  0
 12 13  1  0
 13 14  1  0
 14 15  1  0
 14 16  1  0
 13 17  1  0
 17 18  1  0
 18 10  1  0
M  CHG  1  16   1
M  END
>  <EmbedRMS>  (68) 
0.16480955270904202

>  <Gold.Version>  (68) 
2020.3.0

>  <Gold.Id.Protein>  (68) 
unknown|1q8t_protein|pdb

>  <Gold.PLP.Fitness>  (68) 
47.4474

>  <Gold.PLP.PLP>  (68) 
-41.6100

>  <Gold.PLP.part.hbond>  (68) 
-2.0000

>  <Gold.PLP.part.metal>  (68) 
0.0000

>  <Gold.PLP.part.buried>  (68) 
-3.2671

>  <Gold.PLP.part.nonpolar>  (68) 
-36.6929

>  <Gold.PLP.part.repulsive>  (68) 
0.0604

>  <Gold.PLP.ligand.clash>  (68) 
0.0000

>  <Gold.PLP.ligand.torsion>  (68) 
2.3681

>  <Gold.PLP.Chemscore.Hbond>  (68) 
3.0000

>  <Gold.PLP.Chemscore.CHOScore>  (68) 
0.0000

>  <Gold.PLP.Chemscore.Metal>  (68) 
0.0000

>  <Gold.Chemscore.Hbonds>  (68) 
donor molecule, donor type, donor heavy atom, donor atom, acceptor molecule, acceptor atom, score
      L1  H    16    39       P1  2691  1.00
      L1  H    16    40       P1  2902  2.00

>  <Gold.PLP.Chemscore.Internal.Correction>  (68) 
1.5735

>  <Gold.PLP.Constraint>  (68) 
-0.0000

>  <Gold.Protein.RotatedTorsions>  (68) 
[  681  677  676  673 ] final -152.65 input -179.99 | X-H torsion
[  702  698  697  694 ] final  127.56 input  179.99 | X-H torsion
[ 2577 2569 2568 2566 ] final -145.24 input   -0.13 | X-H torsion
[ 2891 2887 2886 2883 ] final -160.37 input  179.98 | X-H torsion
[ 3175 3171 3170 3167 ] final   10.42 input -179.99 | X-H torsion
[ 5278 5270 5269 5267 ] final  -43.74 input    0.55 | X-H torsion
[  641  637  636  633 ] final -110.06 input  179.99 | X-H torsion
[ 1886 1878 1877 1875 ] final   29.74 input    1.60 | X-H torsion
[  965  957  956  954 ] final   58.17 input    0.45 | X-H torsion

>  <Gold.Protein.ActiveResidues>  (68) 
 LYS47   THR48   LEU49   GLY50   THR51   GLY52   SER53   PHE54   GLY55   ARG56  
 VAL57   MET58   LEU59   TYR69   ALA70   MET71   LYS72   ILE73   LEU74   GLU91  
 LEU95   VAL104  LYS105  MET118  VAL119  MET120  GLU121  TYR122  VAL123  PRO124 
 GLY125  GLY126  GLU127  MET128  PHE129  TYR164  ASP166  LEU167  LYS168  PRO169 
 GLU170  ASN171  LEU172  LEU173  ILE174  GLN181  VAL182  THR183  ASP184  PHE185 
 GLY186  PHE187  GLY200  THR201  ASN326  PHE327  TYR330  ARG18   ARG19   ASN20  
 ALA21   ILE22   HIS23  

>  <Gold.Protein.RotatedAtoms>  (68) 
   10.9081   18.9737    7.3816 H   0  0  0  0  0  0  0  0  0  0  0  0  # atno 641  bound_to 637 
   16.6582   13.9554    7.2737 H   0  0  0  0  0  0  0  0  0  0  0  0  # atno 681  bound_to 677 
   20.2977   11.7099   -2.0289 H   0  0  0  0  0  0  0  0  0  0  0  0  # atno 702  bound_to 698 
   -7.0657   15.6189   -0.2351 H   0  0  0  0  0  0  0  0  0  0  0  0  # atno 965  bound_to 957 
    2.2105   11.7656   10.4025 H   0  0  0  0  0  0  0  0  0  0  0  0  # atno 1886 bound_to 1878
   10.9717    2.3243   -2.6253 H   0  0  0  0  0  0  0  0  0  0  0  0  # atno 2577 bound_to 2569
    7.2673    6.4509    1.5471 H   0  0  0  0  0  0  0  0  0  0  0  0  # atno 2891 bound_to 2887
   19.0277    2.6645   -1.3049 H   0  0  0  0  0  0  0  0  0  0  0  0  # atno 3175 bound_to 3171
   13.0633    9.8378   10.3556 H   0  0  0  0  0  0  0  0  0  0  0  0  # atno 5278 bound_to 5270
   17.0390   12.9675    6.0840 LP  0  0  0  0  0  0  0  0  0  0  0  0  # atno 5914 bound_to 677 
   15.6020   12.8416    6.8494 LP  0  0  0  0  0  0  0  0  0  0  0  0  # atno 5915 bound_to 677 
   19.3938   11.8280   -0.7226 LP  0  0  0  0  0  0  0  0  0  0  0  0  # atno 5920 bound_to 698 
   20.9974   11.5416   -0.6078 LP  0  0  0  0  0  0  0  0  0  0  0  0  # atno 5921 bound_to 698 
    9.3844    2.2000   -2.6350 LP  0  0  0  0  0  0  0  0  0  0  0  0  # atno 5950 bound_to 2569
   10.1338    3.4169   -3.4250 LP  0  0  0  0  0  0  0  0  0  0  0  0  # atno 5951 bound_to 2569
    8.3324    6.5834    0.3705 LP  0  0  0  0  0  0  0  0  0  0  0  0  # atno 5982 bound_to 2887
    7.6940    5.1323    0.7623 LP  0  0  0  0  0  0  0  0  0  0  0  0  # atno 5983 bound_to 2887
   18.9890    2.8645    0.2744 LP  0  0  0  0  0  0  0  0  0  0  0  0  # atno 6000 bound_to 3171
   17.8743    1.9400   -0.4801 LP  0  0  0  0  0  0  0  0  0  0  0  0  # atno 6001 bound_to 3171
   14.4728   10.0131    9.6349 LP  0  0  0  0  0  0  0  0  0  0  0  0  # atno 6004 bound_to 5270
   13.0792   10.2031    8.8054 LP  0  0  0  0  0  0  0  0  0  0  0  0  # atno 6005 bound_to 5270
   10.9485   19.7104    8.7924 LP  0  0  0  0  0  0  0  0  0  0  0  0  # atno 6055 bound_to 637 
    9.5279   19.4085    8.0457 LP  0  0  0  0  0  0  0  0  0  0  0  0  # atno 6056 bound_to 637 
    1.2679   10.5011   10.6213 LP  0  0  0  0  0  0  0  0  0  0  0  0  # atno 6063 bound_to 1878
    0.7904   11.9919   11.0861 LP  0  0  0  0  0  0  0  0  0  0  0  0  # atno 6064 bound_to 1878
   -6.4422   16.0495   -1.6354 LP  0  0  0  0  0  0  0  0  0  0  0  0  # atno 6067 bound_to 957 
   -6.9243   17.1727   -0.5526 LP  0  0  0  0  0  0  0  0  0  0  0  0  # atno 6068 bound_to 957 

>  <STRIFE_LigEff_Score>  (68) 
2.6359666666666666

$$$$
unknown|pharmsElabsTestPreDocking|sdf|69|dock5
     RDKit          3D

 17 18  0  0  0  0  0  0  0  0999 V2000
   14.2022    9.4220    1.1114 C   0  0  0  0  0  0  0  0  0  0  0  0
   13.5779    8.2043    1.7927 C   0  0  0  0  0  0  0  0  0  0  0  0
   13.3682    7.1135    0.8309 N   0  0  0  0  0  0  0  0  0  0  0  0
   12.3506    8.4280    2.6981 C   0  0  0  0  0  0  0  0  0  0  0  0
   11.3248    7.2806    2.8990 C   0  0  0  0  0  0  0  0  0  0  0  0
    9.8883    7.6100    2.5202 C   0  0  0  0  0  0  0  0  0  0  0  0
    9.4687    8.9790    3.0517 C   0  0  0  0  0  0  0  0  0  0  0  0
    8.0060    9.2168    2.7912 C   0  0  0  0  0  0  0  0  0  0  0  0
    7.6081    9.4374    1.6148 O   0  0  0  0  0  0  0  0  0  0  0  0
    7.0875    9.2129    3.8931 N   0  0  0  0  0  0  0  0  0  0  0  0
    5.6705    9.4039    3.7962 C   0  0  0  0  0  0  0  0  0  0  0  0
    4.8536    9.1279    2.7105 C   0  0  0  0  0  0  0  0  0  0  0  0
    3.5981    9.4974    3.1399 C   0  0  0  0  0  0  0  0  0  0  0  0
    3.6846    9.9590    4.3997 N   0  0  0  0  0  0  0  0  0  0  0  0
    4.9404    9.9069    4.8086 N   0  0  0  0  0  0  0  0  0  0  0  0
   10.3078   10.0560    2.3726 C   0  0  0  0  0  0  0  0  0  0  0  0
   11.7991    9.8861    2.6554 C   0  0  0  0  0  0  0  0  0  0  0  0
  1  2  1  0
  2  3  1  0
  2  4  1  0
  4  5  1  0
  5  6  1  0
  6  7  1  0
  7  8  1  0
  8  9  2  0
  8 10  1  0
 10 11  1  0
 11 12  1  0
 12 13  2  0
 13 14  1  0
 14 15  1  0
  7 16  1  0
 16 17  1  0
 17  4  1  0
 15 11  2  0
M  CHG  1   3   1
M  END
>  <EmbedRMS>  (69) 
0.20783527019262546

>  <Gold.Version>  (69) 
2020.3.0

>  <Gold.Id.Protein>  (69) 
unknown|1q8t_protein|pdb

>  <Gold.PLP.Fitness>  (69) 
42.2575

>  <Gold.PLP.PLP>  (69) 
-33.6640

>  <Gold.PLP.part.hbond>  (69) 
-1.7985

>  <Gold.PLP.part.metal>  (69) 
0.0000

>  <Gold.PLP.part.buried>  (69) 
-5.9583

>  <Gold.PLP.part.nonpolar>  (69) 
-26.2042

>  <Gold.PLP.part.repulsive>  (69) 
0.1567

>  <Gold.PLP.ligand.clash>  (69) 
0.0000

>  <Gold.PLP.ligand.torsion>  (69) 
1.5273

>  <Gold.PLP.Chemscore.Hbond>  (69) 
2.7520

>  <Gold.PLP.Chemscore.CHOScore>  (69) 
1.0000

>  <Gold.PLP.Chemscore.Metal>  (69) 
0.0000

>  <Gold.Chemscore.Hbonds>  (69) 
donor molecule, donor type, donor heavy atom, donor atom, acceptor molecule, acceptor atom, score
      L1  H     3    22       P1  2902  2.00
      L1  H     3    23       P1  2691  0.75
      L1  C    13    33       P1  1855  1.00

>  <Gold.PLP.Chemscore.Internal.Correction>  (69) 
0.3921

>  <Gold.PLP.Constraint>  (69) 
-0.0000

>  <Gold.Protein.RotatedTorsions>  (69) 
[  681  677  676  673 ] final  -98.48 input -179.99 | X-H torsion
[  702  698  697  694 ] final -132.68 input  179.99 | X-H torsion
[ 2577 2569 2568 2566 ] final  139.80 input   -0.13 | X-H torsion
[ 2891 2887 2886 2883 ] final  -73.64 input  179.98 | X-H torsion
[ 3175 3171 3170 3167 ] final  117.03 input -179.99 | X-H torsion
[ 5278 5270 5269 5267 ] final  121.22 input    0.55 | X-H torsion
[  641  637  636  633 ] final -177.66 input  179.99 | X-H torsion
[ 1886 1878 1877 1875 ] final  148.24 input    1.60 | X-H torsion
[  965  957  956  954 ] final -154.23 input    0.45 | X-H torsion

>  <Gold.Protein.ActiveResidues>  (69) 
 LYS47   THR48   LEU49   GLY50   THR51   GLY52   SER53   PHE54   GLY55   ARG56  
 VAL57   MET58   LEU59   TYR69   ALA70   MET71   LYS72   ILE73   LEU74   GLU91  
 LEU95   VAL104  LYS105  MET118  VAL119  MET120  GLU121  TYR122  VAL123  PRO124 
 GLY125  GLY126  GLU127  MET128  PHE129  TYR164  ASP166  LEU167  LYS168  PRO169 
 GLU170  ASN171  LEU172  LEU173  ILE174  GLN181  VAL182  THR183  ASP184  PHE185 
 GLY186  PHE187  GLY200  THR201  ASN326  PHE327  TYR330  ARG18   ARG19   ASN20  
 ALA21   ILE22   HIS23  

>  <Gold.Protein.RotatedAtoms>  (69) 
   11.3562   19.3583    8.1838 H   0  0  0  0  0  0  0  0  0  0  0  0  # atno 641  bound_to 637 
   15.9255   13.6168    7.3919 H   0  0  0  0  0  0  0  0  0  0  0  0  # atno 681  bound_to 677 
   21.0891   11.5482   -0.9214 H   0  0  0  0  0  0  0  0  0  0  0  0  # atno 702  bound_to 698 
   -6.7273   17.1474   -0.9465 H   0  0  0  0  0  0  0  0  0  0  0  0  # atno 965  bound_to 957 
    0.8305   11.9842   11.0482 H   0  0  0  0  0  0  0  0  0  0  0  0  # atno 1886 bound_to 1878
    9.9869    1.9102   -2.4099 H   0  0  0  0  0  0  0  0  0  0  0  0  # atno 2577 bound_to 2569
    7.3709    5.2912    1.1492 H   0  0  0  0  0  0  0  0  0  0  0  0  # atno 2891 bound_to 2887
   17.9483    1.9459   -0.6872 H   0  0  0  0  0  0  0  0  0  0  0  0  # atno 3175 bound_to 3171
   13.7827   10.2339    8.7801 H   0  0  0  0  0  0  0  0  0  0  0  0  # atno 5278 bound_to 5270
   17.2934   13.6232    6.5765 LP  0  0  0  0  0  0  0  0  0  0  0  0  # atno 5914 bound_to 677 
   16.1188   12.5423    6.2325 LP  0  0  0  0  0  0  0  0  0  0  0  0  # atno 5915 bound_to 677 
   19.9737   11.7507   -2.0405 LP  0  0  0  0  0  0  0  0  0  0  0  0  # atno 5920 bound_to 698 
   19.5851   11.7890   -0.4549 LP  0  0  0  0  0  0  0  0  0  0  0  0  # atno 5921 bound_to 698 
    9.4814    3.1425   -3.2823 LP  0  0  0  0  0  0  0  0  0  0  0  0  # atno 5950 bound_to 2569
   11.0737    2.9105   -3.0045 LP  0  0  0  0  0  0  0  0  0  0  0  0  # atno 5951 bound_to 2569
    7.5394    6.8614    1.3556 LP  0  0  0  0  0  0  0  0  0  0  0  0  # atno 5982 bound_to 2887
    8.3779    6.0747    0.1960 LP  0  0  0  0  0  0  0  0  0  0  0  0  # atno 5983 bound_to 2887
   19.1756    2.8064   -1.2248 LP  0  0  0  0  0  0  0  0  0  0  0  0  # atno 6000 bound_to 3171
   18.8237    2.7545    0.3690 LP  0  0  0  0  0  0  0  0  0  0  0  0  # atno 6001 bound_to 3171
   12.6142    9.9471    9.8236 LP  0  0  0  0  0  0  0  0  0  0  0  0  # atno 6004 bound_to 5270
   14.1809    9.8523   10.2743 LP  0  0  0  0  0  0  0  0  0  0  0  0  # atno 6005 bound_to 5270
    9.9025   19.7299    8.7161 LP  0  0  0  0  0  0  0  0  0  0  0  0  # atno 6055 bound_to 637 
   10.1020   18.9840    7.2772 LP  0  0  0  0  0  0  0  0  0  0  0  0  # atno 6056 bound_to 637 
    2.2653   11.7582   10.3960 LP  0  0  0  0  0  0  0  0  0  0  0  0  # atno 6063 bound_to 1878
    1.2458   10.5046   10.6317 LP  0  0  0  0  0  0  0  0  0  0  0  0  # atno 6064 bound_to 1878
   -7.1921   15.9629    0.0105 LP  0  0  0  0  0  0  0  0  0  0  0  0  # atno 6067 bound_to 957 
   -6.5307   15.6495   -1.4492 LP  0  0  0  0  0  0  0  0  0  0  0  0  # atno 6068 bound_to 957 

>  <STRIFE_LigEff_Score>  (69) 
2.485735294117647

$$$$
unknown|pharmsElabsTestPreDocking|sdf|70|dock3
     RDKit          3D

 18 19  0  0  0  0  0  0  0  0999 V2000
   14.8097    7.5589    3.4459 C   0  0  0  0  0  0  0  0  0  0  0  0
   13.9023    8.1144    2.3379 C   0  0  0  0  0  0  0  0  0  0  0  0
   14.0233    7.2934    1.1279 N   0  0  0  0  0  0  0  0  0  0  0  0
   12.4064    8.3758    2.7321 C   0  0  0  0  0  0  0  0  0  0  0  0
   11.3841    7.3600    2.1894 C   0  0  0  0  0  0  0  0  0  0  0  0
    9.9863    7.9096    1.9847 C   0  0  0  0  0  0  0  0  0  0  0  0
    9.5599    8.8540    3.1034 C   0  0  0  0  0  0  0  0  0  0  0  0
    8.1276    9.2647    2.8830 C   0  0  0  0  0  0  0  0  0  0  0  0
    7.8330    9.9310    1.8545 O   0  0  0  0  0  0  0  0  0  0  0  0
    7.1343    8.9175    3.8596 N   0  0  0  0  0  0  0  0  0  0  0  0
    5.7228    9.2073    3.8063 C   0  0  0  0  0  0  0  0  0  0  0  0
    5.0765    9.5986    4.9888 C   0  0  0  0  0  0  0  0  0  0  0  0
    3.7148    9.8950    4.9850 C   0  0  0  0  0  0  0  0  0  0  0  0
    2.9985    9.7993    3.7940 C   0  0  0  0  0  0  0  0  0  0  0  0
    3.6264    9.4205    2.6534 N   0  0  0  0  0  0  0  0  0  0  0  0
    4.9500    9.1258    2.6265 C   0  0  0  0  0  0  0  0  0  0  0  0
   10.4537   10.0990    3.1361 C   0  0  0  0  0  0  0  0  0  0  0  0
   11.9658    9.8232    3.0344 C   0  0  0  0  0  0  0  0  0  0  0  0
  1  2  1  0
  2  3  1  0
  2  4  1  0
  4  5  1  0
  5  6  1  0
  6  7  1  0
  7  8  1  0
  8  9  2  0
  8 10  1  0
 10 11  1  0
 11 12  2  0
 12 13  1  0
 13 14  2  0
 14 15  1  0
 15 16  2  0
  7 17  1  0
 17 18  1  0
 18  4  1  0
 16 11  1  0
M  CHG  1   3   1
M  END
>  <EmbedRMS>  (70) 
0.16496192233382964

>  <Gold.Version>  (70) 
2020.3.0

>  <Gold.Id.Protein>  (70) 
unknown|1q8t_protein|pdb

>  <Gold.PLP.Fitness>  (70) 
52.2486

>  <Gold.PLP.PLP>  (70) 
-42.8516

>  <Gold.PLP.part.hbond>  (70) 
-2.0000

>  <Gold.PLP.part.metal>  (70) 
0.0000

>  <Gold.PLP.part.buried>  (70) 
-3.0785

>  <Gold.PLP.part.nonpolar>  (70) 
-37.8870

>  <Gold.PLP.part.repulsive>  (70) 
0.1273

>  <Gold.PLP.ligand.clash>  (70) 
0.0000

>  <Gold.PLP.ligand.torsion>  (70) 
1.5420

>  <Gold.PLP.Chemscore.Hbond>  (70) 
3.0000

>  <Gold.PLP.Chemscore.CHOScore>  (70) 
0.9710

>  <Gold.PLP.Chemscore.Metal>  (70) 
0.0000

>  <Gold.Chemscore.Hbonds>  (70) 
donor molecule, donor type, donor heavy atom, donor atom, acceptor molecule, acceptor atom, score
      L1  H     3    23       P1  2691  1.00
      L1  H     3    25       P1  2902  2.00
      L1  C    14    35       P1  1855  0.97

>  <Gold.PLP.Chemscore.Internal.Correction>  (70) 
0.5681

>  <Gold.PLP.Constraint>  (70) 
-0.0000

>  <Gold.Protein.RotatedTorsions>  (70) 
[  681  677  676  673 ] final -113.50 input -179.99 | X-H torsion
[  702  698  697  694 ] final   41.58 input  179.99 | X-H torsion
[ 2577 2569 2568 2566 ] final -118.41 input   -0.13 | X-H torsion
[ 2891 2887 2886 2883 ] final  -43.62 input  179.98 | X-H torsion
[ 3175 3171 3170 3167 ] final  -77.51 input -179.99 | X-H torsion
[ 5278 5270 5269 5267 ] final  167.52 input    0.55 | X-H torsion
[  641  637  636  633 ] final  118.30 input  179.99 | X-H torsion
[ 1886 1878 1877 1875 ] final  114.56 input    1.60 | X-H torsion
[  965  957  956  954 ] final -171.99 input    0.45 | X-H torsion

>  <Gold.Protein.ActiveResidues>  (70) 
 LYS47   THR48   LEU49   GLY50   THR51   GLY52   SER53   PHE54   GLY55   ARG56  
 VAL57   MET58   LEU59   TYR69   ALA70   MET71   LYS72   ILE73   LEU74   GLU91  
 LEU95   VAL104  LYS105  MET118  VAL119  MET120  GLU121  TYR122  VAL123  PRO124 
 GLY125  GLY126  GLU127  MET128  PHE129  TYR164  ASP166  LEU167  LYS168  PRO169 
 GLU170  ASN171  LEU172  LEU173  ILE174  GLN181  VAL182  THR183  ASP184  PHE185 
 GLY186  PHE187  GLY200  THR201  ASN326  PHE327  TYR330  ARG18   ARG19   ASN20  
 ALA21   ILE22   HIS23  

>  <Gold.Protein.RotatedAtoms>  (70) 
   10.7589   19.7200    8.8269 H   0  0  0  0  0  0  0  0  0  0  0  0  # atno 641  bound_to 637 
   16.1098   13.7588    7.4184 H   0  0  0  0  0  0  0  0  0  0  0  0  # atno 681  bound_to 677 
   19.3593   11.8614   -1.2606 H   0  0  0  0  0  0  0  0  0  0  0  0  # atno 702  bound_to 698 
   -6.8417   17.1579   -0.6951 H   0  0  0  0  0  0  0  0  0  0  0  0  # atno 965  bound_to 957 
    1.2415   12.2720   10.9161 H   0  0  0  0  0  0  0  0  0  0  0  0  # atno 1886 bound_to 1878
   11.0718    2.6588   -2.8503 H   0  0  0  0  0  0  0  0  0  0  0  0  # atno 2577 bound_to 2569
    7.6516    5.1790    0.7972 H   0  0  0  0  0  0  0  0  0  0  0  0  # atno 2891 bound_to 2887
   19.2688    2.9969   -0.1310 H   0  0  0  0  0  0  0  0  0  0  0  0  # atno 3175 bound_to 3171
   14.3262   10.1319    9.2167 H   0  0  0  0  0  0  0  0  0  0  0  0  # atno 5278 bound_to 5270
   17.2961   13.4490    6.4021 LP  0  0  0  0  0  0  0  0  0  0  0  0  # atno 5914 bound_to 677 
   15.9220   12.5670    6.3789 LP  0  0  0  0  0  0  0  0  0  0  0  0  # atno 5915 bound_to 677 
   20.5738   11.6100   -0.2610 LP  0  0  0  0  0  0  0  0  0  0  0  0  # atno 5920 bound_to 698 
   20.8045   11.6003   -1.8776 LP  0  0  0  0  0  0  0  0  0  0  0  0  # atno 5921 bound_to 698 
    9.6985    1.9615   -2.4463 LP  0  0  0  0  0  0  0  0  0  0  0  0  # atno 5950 bound_to 2569
    9.7143    3.3033   -3.3768 LP  0  0  0  0  0  0  0  0  0  0  0  0  # atno 5951 bound_to 2569
    7.2761    6.5154    1.5778 LP  0  0  0  0  0  0  0  0  0  0  0  0  # atno 5982 bound_to 2887
    8.3459    6.5389    0.3443 LP  0  0  0  0  0  0  0  0  0  0  0  0  # atno 5983 bound_to 2887
   17.9753    2.0793    0.0117 LP  0  0  0  0  0  0  0  0  0  0  0  0  # atno 6000 bound_to 3171
   18.6342    2.3756   -1.4527 LP  0  0  0  0  0  0  0  0  0  0  0  0  # atno 6001 bound_to 3171
   12.7368   10.1234    9.1142 LP  0  0  0  0  0  0  0  0  0  0  0  0  # atno 6004 bound_to 5270
   13.4865    9.7834   10.5244 LP  0  0  0  0  0  0  0  0  0  0  0  0  # atno 6005 bound_to 5270
    9.5454   19.3211    7.8766 LP  0  0  0  0  0  0  0  0  0  0  0  0  # atno 6055 bound_to 637 
   11.0881   19.0118    7.4395 LP  0  0  0  0  0  0  0  0  0  0  0  0  # atno 6056 bound_to 637 
    2.2676   11.2200   10.3032 LP  0  0  0  0  0  0  0  0  0  0  0  0  # atno 6063 bound_to 1878
    0.8108   10.7400   10.8636 LP  0  0  0  0  0  0  0  0  0  0  0  0  # atno 6064 bound_to 1878
   -7.1379   15.7055   -0.1140 LP  0  0  0  0  0  0  0  0  0  0  0  0  # atno 6067 bound_to 957 
   -6.4646   15.8958   -1.5895 LP  0  0  0  0  0  0  0  0  0  0  0  0  # atno 6068 bound_to 957 

>  <STRIFE_LigEff_Score>  (70) 
2.9027000000000003

$$$$
unknown|pharmsElabsTestPreDocking|sdf|71|dock1
     RDKit          3D

 17 18  0  0  0  0  0  0  0  0999 V2000
   13.4230    7.4634    3.8591 C   0  0  0  0  0  0  0  0  0  0  0  0
   13.1240    8.2028    2.5399 C   0  0  0  0  0  0  0  0  0  0  0  0
   13.4785    7.3338    1.4102 N   0  0  0  0  0  0  0  0  0  0  0  0
   11.6301    8.6412    2.4983 C   0  0  0  0  0  0  0  0  0  0  0  0
   10.7156    7.4033    2.6022 C   0  0  0  0  0  0  0  0  0  0  0  0
    9.2616    7.8060    2.4020 C   0  0  0  0  0  0  0  0  0  0  0  0
    8.8409    8.8196    3.4715 C   0  0  0  0  0  0  0  0  0  0  0  0
    7.4026    9.2050    3.2821 C   0  0  0  0  0  0  0  0  0  0  0  0
    7.0398    9.7728    2.2164 O   0  0  0  0  0  0  0  0  0  0  0  0
    6.4649    8.9217    4.3291 N   0  0  0  0  0  0  0  0  0  0  0  0
    5.0889    9.2012    4.2657 N   0  0  0  0  0  0  0  0  0  0  0  0
    4.2252    9.4846    5.2571 C   0  0  0  0  0  0  0  0  0  0  0  0
    3.0008    9.6706    4.7339 N   0  0  0  0  0  0  0  0  0  0  0  0
    3.1417    9.4962    3.4260 N   0  0  0  0  0  0  0  0  0  0  0  0
    4.4021    9.2120    3.1399 N   0  0  0  0  0  0  0  0  0  0  0  0
    9.7532   10.0581    3.4627 C   0  0  0  0  0  0  0  0  0  0  0  0
   11.2318    9.6570    3.5978 C   0  0  0  0  0  0  0  0  0  0  0  0
  1  2  1  0
  2  3  1  0
  2  4  1  0
  4  5  1  0
  5  6  1  0
  6  7  1  0
  7  8  1  0
  8  9  2  0
  8 10  1  0
 10 11  1  0
 11 12  1  0
 12 13  2  0
 13 14  1  0
 14 15  2  0
  7 16  1  0
 16 17  1  0
 17  4  1  0
 15 11  1  0
M  CHG  1   3   1
M  END
>  <EmbedRMS>  (71) 
0.030620254940186248

>  <Gold.Version>  (71) 
2020.3.0

>  <Gold.Id.Protein>  (71) 
unknown|1q8t_protein|pdb

>  <Gold.PLP.Fitness>  (71) 
47.2008

>  <Gold.PLP.PLP>  (71) 
-35.5499

>  <Gold.PLP.part.hbond>  (71) 
-3.4376

>  <Gold.PLP.part.metal>  (71) 
0.0000

>  <Gold.PLP.part.buried>  (71) 
-6.6925

>  <Gold.PLP.part.nonpolar>  (71) 
-25.7624

>  <Gold.PLP.part.repulsive>  (71) 
0.3245

>  <Gold.PLP.ligand.clash>  (71) 
0.0000

>  <Gold.PLP.ligand.torsion>  (71) 
0.1990

>  <Gold.PLP.Chemscore.Hbond>  (71) 
4.0000

>  <Gold.PLP.Chemscore.CHOScore>  (71) 
0.0000

>  <Gold.PLP.Chemscore.Metal>  (71) 
0.0000

>  <Gold.Chemscore.Hbonds>  (71) 
donor molecule, donor type, donor heavy atom, donor atom, acceptor molecule, acceptor atom, score
      L1  H     3    22       P1  2902  2.00
      L1  H     3    23       P1  2691  1.00
      P1  H  1888  1903       L1    13  1.00

>  <Gold.PLP.Chemscore.Internal.Correction>  (71) 
0.0488

>  <Gold.PLP.Constraint>  (71) 
-0.0000

>  <Gold.Protein.RotatedTorsions>  (71) 
[  681  677  676  673 ] final  121.79 input -179.99 | X-H torsion
[  702  698  697  694 ] final  159.70 input  179.99 | X-H torsion
[ 2577 2569 2568 2566 ] final  163.43 input   -0.13 | X-H torsion
[ 2891 2887 2886 2883 ] final  147.89 input  179.98 | X-H torsion
[ 3175 3171 3170 3167 ] final   95.17 input -179.99 | X-H torsion
[ 5278 5270 5269 5267 ] final -120.78 input    0.55 | X-H torsion
[  641  637  636  633 ] final  -87.90 input  179.99 | X-H torsion
[ 1886 1878 1877 1875 ] final -124.23 input    1.60 | X-H torsion
[  965  957  956  954 ] final -132.36 input    0.45 | X-H torsion

>  <Gold.Protein.ActiveResidues>  (71) 
 LYS47   THR48   LEU49   GLY50   THR51   GLY52   SER53   PHE54   GLY55   ARG56  
 VAL57   MET58   LEU59   TYR69   ALA70   MET71   LYS72   ILE73   LEU74   GLU91  
 LEU95   VAL104  LYS105  MET118  VAL119  MET120  GLU121  TYR122  VAL123  PRO124 
 GLY125  GLY126  GLU127  MET128  PHE129  TYR164  ASP166  LEU167  LYS168  PRO169 
 GLU170  ASN171  LEU172  LEU173  ILE174  GLN181  VAL182  THR183  ASP184  PHE185 
 GLY186  PHE187  GLY200  THR201  ASN326  PHE327  TYR330  ARG18   ARG19   ASN20  
 ALA21   ILE22   HIS23  

>  <Gold.Protein.RotatedAtoms>  (71) 
   10.5818   18.9389    7.2777 H   0  0  0  0  0  0  0  0  0  0  0  0  # atno 641  bound_to 637 
   17.2359   13.3956    6.3608 H   0  0  0  0  0  0  0  0  0  0  0  0  # atno 681  bound_to 677 
   20.7560   11.6254   -1.8584 H   0  0  0  0  0  0  0  0  0  0  0  0  # atno 702  bound_to 698 
   -6.5979   17.0202   -1.2336 H   0  0  0  0  0  0  0  0  0  0  0  0  # atno 965  bound_to 957 
    0.8476   10.7644   10.8326 H   0  0  0  0  0  0  0  0  0  0  0  0  # atno 1886 bound_to 1878
   10.3529    1.9200   -2.3899 H   0  0  0  0  0  0  0  0  0  0  0  0  # atno 2577 bound_to 2569
    7.7253    6.9286    1.1310 H   0  0  0  0  0  0  0  0  0  0  0  0  # atno 2891 bound_to 2887
   18.0701    1.9952   -1.0003 H   0  0  0  0  0  0  0  0  0  0  0  0  # atno 3175 bound_to 3171
   14.1708    9.8818   10.2240 H   0  0  0  0  0  0  0  0  0  0  0  0  # atno 5278 bound_to 5270
   15.8671   12.5847    6.4305 LP  0  0  0  0  0  0  0  0  0  0  0  0  # atno 5914 bound_to 677 
   16.1658   13.8135    7.4637 LP  0  0  0  0  0  0  0  0  0  0  0  0  # atno 5915 bound_to 677 
   19.3072   11.8533   -1.2367 LP  0  0  0  0  0  0  0  0  0  0  0  0  # atno 5920 bound_to 698 
   20.6020   11.6052   -0.2731 LP  0  0  0  0  0  0  0  0  0  0  0  0  # atno 5921 bound_to 698 
    9.2856    2.8626   -3.1023 LP  0  0  0  0  0  0  0  0  0  0  0  0  # atno 5950 bound_to 2569
   10.8841    3.1800   -3.2056 LP  0  0  0  0  0  0  0  0  0  0  0  0  # atno 5951 bound_to 2569
    8.3139    5.7789    0.1993 LP  0  0  0  0  0  0  0  0  0  0  0  0  # atno 5982 bound_to 2887
    7.2305    5.4340    1.3714 LP  0  0  0  0  0  0  0  0  0  0  0  0  # atno 5983 bound_to 2887
   19.3349    2.9610   -0.9447 LP  0  0  0  0  0  0  0  0  0  0  0  0  # atno 6000 bound_to 3171
   18.5362    2.5480    0.4184 LP  0  0  0  0  0  0  0  0  0  0  0  0  # atno 6001 bound_to 3171
   13.7643   10.2304    8.7240 LP  0  0  0  0  0  0  0  0  0  0  0  0  # atno 6004 bound_to 5270
   12.6225    9.9396    9.8547 LP  0  0  0  0  0  0  0  0  0  0  0  0  # atno 6005 bound_to 5270
   11.2190   19.5889    8.5840 LP  0  0  0  0  0  0  0  0  0  0  0  0  # atno 6055 bound_to 637 
    9.6011   19.5667    8.3635 LP  0  0  0  0  0  0  0  0  0  0  0  0  # atno 6056 bound_to 637 
    1.2205   12.3079   10.9504 LP  0  0  0  0  0  0  0  0  0  0  0  0  # atno 6063 bound_to 1878
    2.2726   11.2391   10.3042 LP  0  0  0  0  0  0  0  0  0  0  0  0  # atno 6064 bound_to 1878
   -7.2100   16.3171    0.0572 LP  0  0  0  0  0  0  0  0  0  0  0  0  # atno 6067 bound_to 957 
   -6.6492   15.4293   -1.1935 LP  0  0  0  0  0  0  0  0  0  0  0  0  # atno 6068 bound_to 957 

>  <STRIFE_LigEff_Score>  (71) 
2.7765176470588235

$$$$
unknown|pharmsElabsTestPreDocking|sdf|72|dock10
     RDKit          3D

 13 13  0  0  0  0  0  0  0  0999 V2000
    5.0958    8.9154    2.6324 C   0  0  0  0  0  0  0  0  0  0  0  0
    6.5015    8.9511    2.2216 N   0  0  0  0  0  0  0  0  0  0  0  0
    7.5355    8.9600    3.2164 C   0  0  0  0  0  0  0  0  0  0  0  0
    7.2150    9.0200    4.4293 O   0  0  0  0  0  0  0  0  0  0  0  0
    9.0078    8.8764    2.9424 C   0  0  0  0  0  0  0  0  0  0  0  0
    9.5877    7.4598    2.9685 C   0  0  0  0  0  0  0  0  0  0  0  0
   11.1265    7.3996    2.8763 C   0  0  0  0  0  0  0  0  0  0  0  0
   11.6902    8.6474    2.1784 C   0  0  0  0  0  0  0  0  0  0  0  0
   13.1644    8.5946    1.6711 C   0  0  0  0  0  0  0  0  0  0  0  0
   13.7442    9.8797    1.1049 C   0  0  0  0  0  0  0  0  0  0  0  0
   13.5975    7.3770    0.9937 N   0  0  0  0  0  0  0  0  0  0  0  0
   11.3667    9.9001    3.0177 C   0  0  0  0  0  0  0  0  0  0  0  0
    9.8668   10.0660    3.3420 C   0  0  0  0  0  0  0  0  0  0  0  0
  1  2  1  0
  2  3  1  0
  3  4  2  0
  3  5  1  0
  5  6  1  0
  6  7  1  0
  7  8  1  0
  8  9  1  0
  9 10  1  0
  9 11  1  0
  8 12  1  0
 12 13  1  0
 13  5  1  0
M  CHG  1  11   1
M  END
>  <EmbedRMS>  (72) 
0.29639754771625826

>  <Gold.Version>  (72) 
2020.3.0

>  <Gold.Id.Protein>  (72) 
unknown|1q8t_protein|pdb

>  <Gold.PLP.Fitness>  (72) 
34.3048

>  <Gold.PLP.PLP>  (72) 
-25.5463

>  <Gold.PLP.part.hbond>  (72) 
-2.0736

>  <Gold.PLP.part.metal>  (72) 
0.0000

>  <Gold.PLP.part.buried>  (72) 
-3.2213

>  <Gold.PLP.part.nonpolar>  (72) 
-19.9359

>  <Gold.PLP.part.repulsive>  (72) 
0.0524

>  <Gold.PLP.ligand.clash>  (72) 
0.0000

>  <Gold.PLP.ligand.torsion>  (72) 
0.5272

>  <Gold.PLP.Chemscore.Hbond>  (72) 
2.9280

>  <Gold.PLP.Chemscore.CHOScore>  (72) 
0.0000

>  <Gold.PLP.Chemscore.Metal>  (72) 
0.0000

>  <Gold.Chemscore.Hbonds>  (72) 
donor molecule, donor type, donor heavy atom, donor atom, acceptor molecule, acceptor atom, score
      L1  H    11    29       P1  2691  0.93
      L1  H    11    30       P1  2902  2.00

>  <Gold.PLP.Chemscore.Internal.Correction>  (72) 
1.0290

>  <Gold.PLP.Constraint>  (72) 
-0.0000

>  <Gold.Protein.RotatedTorsions>  (72) 
[  681  677  676  673 ] final  -34.08 input -179.99 | X-H torsion
[  702  698  697  694 ] final  -23.17 input  179.99 | X-H torsion
[ 2577 2569 2568 2566 ] final  -49.30 input   -0.13 | X-H torsion
[ 2891 2887 2886 2883 ] final   95.69 input  179.98 | X-H torsion
[ 3175 3171 3170 3167 ] final  167.16 input -179.99 | X-H torsion
[ 5278 5270 5269 5267 ] final   53.89 input    0.55 | X-H torsion
[  641  637  636  633 ] final -138.97 input  179.99 | X-H torsion
[ 1886 1878 1877 1875 ] final  121.98 input    1.60 | X-H torsion
[  965  957  956  954 ] final -111.66 input    0.45 | X-H torsion

>  <Gold.Protein.ActiveResidues>  (72) 
 LYS47   THR48   LEU49   GLY50   THR51   GLY52   SER53   PHE54   GLY55   ARG56  
 VAL57   MET58   LEU59   TYR69   ALA70   MET71   LYS72   ILE73   LEU74   GLU91  
 LEU95   VAL104  LYS105  MET118  VAL119  MET120  GLU121  TYR122  VAL123  PRO124 
 GLY125  GLY126  GLU127  MET128  PHE129  TYR164  ASP166  LEU167  LYS168  PRO169 
 GLU170  ASN171  LEU172  LEU173  ILE174  GLN181  VAL182  THR183  ASP184  PHE185 
 GLY186  PHE187  GLY200  THR201  ASN326  PHE327  TYR330  ARG18   ARG19   ASN20  
 ALA21   ILE22   HIS23  

>  <Gold.Protein.RotatedAtoms>  (72) 
   11.2298   19.1003    7.6647 H   0  0  0  0  0  0  0  0  0  0  0  0  # atno 641  bound_to 637 
   15.6323   12.8873    6.8503 H   0  0  0  0  0  0  0  0  0  0  0  0  # atno 681  bound_to 677 
   19.7456   11.7760   -0.3861 H   0  0  0  0  0  0  0  0  0  0  0  0  # atno 702  bound_to 698 
   -6.5026   16.7996   -1.4476 H   0  0  0  0  0  0  0  0  0  0  0  0  # atno 965  bound_to 957 
    1.1399   12.2309   10.9538 H   0  0  0  0  0  0  0  0  0  0  0  0  # atno 1886 bound_to 1878
   10.5047    3.3311   -3.3586 H   0  0  0  0  0  0  0  0  0  0  0  0  # atno 2577 bound_to 2569
    8.2037    6.7434    0.5325 H   0  0  0  0  0  0  0  0  0  0  0  0  # atno 2891 bound_to 2887
   18.0499    2.1171    0.0452 H   0  0  0  0  0  0  0  0  0  0  0  0  # atno 3175 bound_to 3171
   12.8343   10.1539    9.0646 H   0  0  0  0  0  0  0  0  0  0  0  0  # atno 5278 bound_to 5270
   16.6973   13.9820    7.3014 LP  0  0  0  0  0  0  0  0  0  0  0  0  # atno 5914 bound_to 677 
   17.0233   12.9512    6.0776 LP  0  0  0  0  0  0  0  0  0  0  0  0  # atno 5915 bound_to 677 
   21.1564   11.5225   -1.0809 LP  0  0  0  0  0  0  0  0  0  0  0  0  # atno 5920 bound_to 698 
   19.8156   11.7775   -1.9775 LP  0  0  0  0  0  0  0  0  0  0  0  0  # atno 5921 bound_to 698 
   10.7636    2.0593   -2.4362 LP  0  0  0  0  0  0  0  0  0  0  0  0  # atno 5950 bound_to 2569
    9.2464    2.4975   -2.8517 LP  0  0  0  0  0  0  0  0  0  0  0  0  # atno 5951 bound_to 2569
    7.8688    5.1869    0.5730 LP  0  0  0  0  0  0  0  0  0  0  0  0  # atno 5982 bound_to 2887
    7.1721    6.2209    1.6276 LP  0  0  0  0  0  0  0  0  0  0  0  0  # atno 5983 bound_to 2887
   18.5723    2.3308   -1.4438 LP  0  0  0  0  0  0  0  0  0  0  0  0  # atno 6000 bound_to 3171
   19.3201    3.0499   -0.1827 LP  0  0  0  0  0  0  0  0  0  0  0  0  # atno 6001 bound_to 3171
   13.3823    9.7849   10.5138 LP  0  0  0  0  0  0  0  0  0  0  0  0  # atno 6004 bound_to 5270
   14.4107   10.0988    9.2848 LP  0  0  0  0  0  0  0  0  0  0  0  0  # atno 6005 bound_to 5270
   10.4970   19.7898    8.8986 LP  0  0  0  0  0  0  0  0  0  0  0  0  # atno 6055 bound_to 637 
    9.6407   19.1957    7.6414 LP  0  0  0  0  0  0  0  0  0  0  0  0  # atno 6056 bound_to 637 
    2.2925   11.3390   10.3125 LP  0  0  0  0  0  0  0  0  0  0  0  0  # atno 6063 bound_to 1878
    0.8928   10.6641   10.8145 LP  0  0  0  0  0  0  0  0  0  0  0  0  # atno 6064 bound_to 1878
   -7.1751   16.6468   -0.0125 LP  0  0  0  0  0  0  0  0  0  0  0  0  # atno 6067 bound_to 957 
   -6.7844   15.3319   -0.8985 LP  0  0  0  0  0  0  0  0  0  0  0  0  # atno 6068 bound_to 957 

>  <STRIFE_LigEff_Score>  (72) 
2.6388307692307693

$$$$
unknown|pharmsElabsTestPreDocking|sdf|73|dock10
     RDKit          3D

 16 16  0  0  0  0  0  0  0  0999 V2000
    3.3111    9.0632    3.1976 C   0  0  0  0  0  0  0  0  0  0  0  0
    3.2102    9.7591    4.4792 N   0  0  0  0  0  0  0  0  0  0  0  0
    4.4204    9.5051    5.2635 C   0  0  0  0  0  0  0  0  0  0  0  0
    5.5529   10.4163    4.8075 C   0  0  0  0  0  0  0  0  0  0  0  0
    6.8637    9.7477    4.8386 N   0  0  0  0  0  0  0  0  0  0  0  0
    7.5979    9.6338    3.6071 C   0  0  0  0  0  0  0  0  0  0  0  0
    7.0721   10.0509    2.5462 O   0  0  0  0  0  0  0  0  0  0  0  0
    8.9777    9.0686    3.4444 C   0  0  0  0  0  0  0  0  0  0  0  0
    9.0035    7.5933    3.1340 C   0  0  0  0  0  0  0  0  0  0  0  0
   10.3651    7.1183    2.6544 C   0  0  0  0  0  0  0  0  0  0  0  0
   11.5867    7.6986    3.3818 C   0  0  0  0  0  0  0  0  0  0  0  0
   12.9062    7.5698    2.5815 C   0  0  0  0  0  0  0  0  0  0  0  0
   14.2250    7.5423    3.3525 C   0  0  0  0  0  0  0  0  0  0  0  0
   12.9561    8.4769    1.4329 N   0  0  0  0  0  0  0  0  0  0  0  0
   11.4408    9.1359    3.9486 C   0  0  0  0  0  0  0  0  0  0  0  0
   10.0426    9.5766    4.3755 C   0  0  0  0  0  0  0  0  0  0  0  0
  1  2  1  0
  2  3  1  0
  3  4  1  0
  4  5  1  0
  5  6  1  0
  6  7  2  0
  6  8  1  0
  8  9  1  0
  9 10  1  0
 10 11  1  0
 11 12  1  0
 12 13  1  0
 12 14  1  0
 11 15  1  0
 15 16  1  0
 16  8  1  0
M  CHG  1  14   1
M  END
>  <EmbedRMS>  (73) 
0.31072278256227437

>  <Gold.Version>  (73) 
2020.3.0

>  <Gold.Id.Protein>  (73) 
unknown|1q8t_protein|pdb

>  <Gold.PLP.Fitness>  (73) 
47.6139

>  <Gold.PLP.PLP>  (73) 
-39.9841

>  <Gold.PLP.part.hbond>  (73) 
-2.0000

>  <Gold.PLP.part.metal>  (73) 
0.0000

>  <Gold.PLP.part.buried>  (73) 
-4.9824

>  <Gold.PLP.part.nonpolar>  (73) 
-33.4567

>  <Gold.PLP.part.repulsive>  (73) 
0.0000

>  <Gold.PLP.ligand.clash>  (73) 
0.0000

>  <Gold.PLP.ligand.torsion>  (73) 
1.0367

>  <Gold.PLP.Chemscore.Hbond>  (73) 
3.0000

>  <Gold.PLP.Chemscore.CHOScore>  (73) 
0.0000

>  <Gold.PLP.Chemscore.Metal>  (73) 
0.0000

>  <Gold.Chemscore.Hbonds>  (73) 
donor molecule, donor type, donor heavy atom, donor atom, acceptor molecule, acceptor atom, score
      L1  H    14    36       P1  2902  2.00
      P1  H  1888  1903       L1     2  1.00

>  <Gold.PLP.Chemscore.Internal.Correction>  (73) 
0.7031

>  <Gold.PLP.Constraint>  (73) 
-0.0000

>  <Gold.Protein.RotatedTorsions>  (73) 
[  681  677  676  673 ] final  -55.31 input -179.99 | X-H torsion
[  702  698  697  694 ] final -122.28 input  179.99 | X-H torsion
[ 2577 2569 2568 2566 ] final -161.96 input   -0.13 | X-H torsion
[ 2891 2887 2886 2883 ] final  150.84 input  179.98 | X-H torsion
[ 3175 3171 3170 3167 ] final -132.35 input -179.99 | X-H torsion
[ 5278 5270 5269 5267 ] final  143.33 input    0.55 | X-H torsion
[  641  637  636  633 ] final  -38.89 input  179.99 | X-H torsion
[ 1886 1878 1877 1875 ] final  -34.96 input    1.60 | X-H torsion
[  965  957  956  954 ] final -117.74 input    0.45 | X-H torsion

>  <Gold.Protein.ActiveResidues>  (73) 
 LYS47   THR48   LEU49   GLY50   THR51   GLY52   SER53   PHE54   GLY55   ARG56  
 VAL57   MET58   LEU59   TYR69   ALA70   MET71   LYS72   ILE73   LEU74   GLU91  
 LEU95   VAL104  LYS105  MET118  VAL119  MET120  GLU121  TYR122  VAL123  PRO124 
 GLY125  GLY126  GLU127  MET128  PHE129  TYR164  ASP166  LEU167  LYS168  PRO169 
 GLU170  ASN171  LEU172  LEU173  ILE174  GLN181  VAL182  THR183  ASP184  PHE185 
 GLY186  PHE187  GLY200  THR201  ASN326  PHE327  TYR330  ARG18   ARG19   ASN20  
 ALA21   ILE22   HIS23  

>  <Gold.Protein.RotatedAtoms>  (73) 
    9.8734   19.0703    7.4577 H   0  0  0  0  0  0  0  0  0  0  0  0  # atno 641  bound_to 637 
   15.6219   13.1182    7.0857 H   0  0  0  0  0  0  0  0  0  0  0  0  # atno 681  bound_to 677 
   21.0365   11.5546   -0.7678 H   0  0  0  0  0  0  0  0  0  0  0  0  # atno 702  bound_to 698 
   -6.5270   16.8729   -1.3925 H   0  0  0  0  0  0  0  0  0  0  0  0  # atno 965  bound_to 957 
    2.0015   10.8327   10.3355 H   0  0  0  0  0  0  0  0  0  0  0  0  # atno 1886 bound_to 1878
   10.8199    2.1455   -2.5123 H   0  0  0  0  0  0  0  0  0  0  0  0  # atno 2577 bound_to 2569
    7.6947    6.9177    1.1638 H   0  0  0  0  0  0  0  0  0  0  0  0  # atno 2891 bound_to 2887
   18.7084    2.6464    0.3623 H   0  0  0  0  0  0  0  0  0  0  0  0  # atno 3175 bound_to 3171
   14.0876   10.1990    8.9344 H   0  0  0  0  0  0  0  0  0  0  0  0  # atno 5278 bound_to 5270
   16.9779   13.9531    7.0989 LP  0  0  0  0  0  0  0  0  0  0  0  0  # atno 5914 bound_to 677 
   16.7538   12.7371    6.0323 LP  0  0  0  0  0  0  0  0  0  0  0  0  # atno 5915 bound_to 677 
   20.1390   11.7220   -2.0731 LP  0  0  0  0  0  0  0  0  0  0  0  0  # atno 5920 bound_to 698 
   19.4751   11.8110   -0.5838 LP  0  0  0  0  0  0  0  0  0  0  0  0  # atno 5921 bound_to 698 
    9.2719    2.4015   -2.7831 LP  0  0  0  0  0  0  0  0  0  0  0  0  # atno 5950 bound_to 2569
   10.4062    3.4037   -3.3959 LP  0  0  0  0  0  0  0  0  0  0  0  0  # atno 5951 bound_to 2569
    8.3282    5.8250    0.1937 LP  0  0  0  0  0  0  0  0  0  0  0  0  # atno 5982 bound_to 2887
    7.2484    5.3994    1.3425 LP  0  0  0  0  0  0  0  0  0  0  0  0  # atno 5983 bound_to 2887
   17.9442    1.9440   -0.8453 LP  0  0  0  0  0  0  0  0  0  0  0  0  # atno 6000 bound_to 3171
   19.2551    2.8797   -1.1149 LP  0  0  0  0  0  0  0  0  0  0  0  0  # atno 6001 bound_to 3171
   12.5979   10.0334    9.4730 LP  0  0  0  0  0  0  0  0  0  0  0  0  # atno 6004 bound_to 5270
   13.8763    9.8027   10.4625 LP  0  0  0  0  0  0  0  0  0  0  0  0  # atno 6005 bound_to 5270
   11.3915   19.2344    7.9086 LP  0  0  0  0  0  0  0  0  0  0  0  0  # atno 6055 bound_to 637 
   10.1746   19.7827    8.8494 LP  0  0  0  0  0  0  0  0  0  0  0  0  # atno 6056 bound_to 637 
    0.5995   11.1401   11.0249 LP  0  0  0  0  0  0  0  0  0  0  0  0  # atno 6063 bound_to 1878
    1.6788   12.3350   10.7529 LP  0  0  0  0  0  0  0  0  0  0  0  0  # atno 6064 bound_to 1878
   -7.1904   16.5533    0.0192 LP  0  0  0  0  0  0  0  0  0  0  0  0  # atno 6067 bound_to 957 
   -6.7435   15.3482   -0.9882 LP  0  0  0  0  0  0  0  0  0  0  0  0  # atno 6068 bound_to 957 

>  <STRIFE_LigEff_Score>  (73) 
2.97586875

$$$$
unknown|pharmsElabsTestPreDocking|sdf|74|dock4
     RDKit          3D

 18 19  0  0  0  0  0  0  0  0999 V2000
   14.8379    7.7181    3.4119 C   0  0  0  0  0  0  0  0  0  0  0  0
   13.8921    8.1416    2.2780 C   0  0  0  0  0  0  0  0  0  0  0  0
   14.0187    7.2187    1.1444 N   0  0  0  0  0  0  0  0  0  0  0  0
   12.3957    8.3895    2.6788 C   0  0  0  0  0  0  0  0  0  0  0  0
   11.3762    7.3824    2.1148 C   0  0  0  0  0  0  0  0  0  0  0  0
    9.9765    7.9317    1.9229 C   0  0  0  0  0  0  0  0  0  0  0  0
    9.5479    8.8502    3.0622 C   0  0  0  0  0  0  0  0  0  0  0  0
    8.1141    9.2609    2.8518 C   0  0  0  0  0  0  0  0  0  0  0  0
    7.8124    9.9270    1.8253 O   0  0  0  0  0  0  0  0  0  0  0  0
    7.1276    8.9138    3.8353 N   0  0  0  0  0  0  0  0  0  0  0  0
    5.7158    9.2037    3.7918 C   0  0  0  0  0  0  0  0  0  0  0  0
    5.0752    9.5832    4.9812 C   0  0  0  0  0  0  0  0  0  0  0  0
    3.7134    9.8791    4.9870 C   0  0  0  0  0  0  0  0  0  0  0  0
    2.9913    9.7948    3.7987 C   0  0  0  0  0  0  0  0  0  0  0  0
    3.6137    9.4275    2.6514 N   0  0  0  0  0  0  0  0  0  0  0  0
    4.9372    9.1334    2.6150 C   0  0  0  0  0  0  0  0  0  0  0  0
   10.4377   10.0971    3.1214 C   0  0  0  0  0  0  0  0  0  0  0  0
   11.9505    9.8285    3.0127 C   0  0  0  0  0  0  0  0  0  0  0  0
  1  2  1  0
  2  3  1  0
  2  4  1  0
  4  5  1  0
  5  6  1  0
  6  7  1  0
  7  8  1  0
  8  9  2  0
  8 10  1  0
 10 11  1  0
 11 12  2  0
 12 13  1  0
 13 14  2  0
 14 15  1  0
 15 16  2  0
  7 17  1  0
 17 18  1  0
 18  4  1  0
 16 11  1  0
M  CHG  1   3   1
M  END
>  <EmbedRMS>  (74) 
0.16496192233382964

>  <Gold.Version>  (74) 
2020.3.0

>  <Gold.Id.Protein>  (74) 
unknown|1q8t_protein|pdb

>  <Gold.PLP.Fitness>  (74) 
52.0513

>  <Gold.PLP.PLP>  (74) 
-42.6340

>  <Gold.PLP.part.hbond>  (74) 
-2.0000

>  <Gold.PLP.part.metal>  (74) 
0.0000

>  <Gold.PLP.part.buried>  (74) 
-2.8229

>  <Gold.PLP.part.nonpolar>  (74) 
-37.8133

>  <Gold.PLP.part.repulsive>  (74) 
0.1339

>  <Gold.PLP.ligand.clash>  (74) 
0.0000

>  <Gold.PLP.ligand.torsion>  (74) 
1.5135

>  <Gold.PLP.Chemscore.Hbond>  (74) 
3.0000

>  <Gold.PLP.Chemscore.CHOScore>  (74) 
0.9577

>  <Gold.PLP.Chemscore.Metal>  (74) 
0.0000

>  <Gold.Chemscore.Hbonds>  (74) 
donor molecule, donor type, donor heavy atom, donor atom, acceptor molecule, acceptor atom, score
      L1  H     3    23       P1  2902  2.00
      L1  H     3    24       P1  2691  1.00
      L1  C    14    35       P1  1855  0.96

>  <Gold.PLP.Chemscore.Internal.Correction>  (74) 
0.5711

>  <Gold.PLP.Constraint>  (74) 
-0.0000

>  <Gold.Protein.RotatedTorsions>  (74) 
[  681  677  676  673 ] final  -81.47 input -179.99 | X-H torsion
[  702  698  697  694 ] final -126.38 input  179.99 | X-H torsion
[ 2577 2569 2568 2566 ] final  -91.76 input   -0.13 | X-H torsion
[ 2891 2887 2886 2883 ] final   59.02 input  179.98 | X-H torsion
[ 3175 3171 3170 3167 ] final -157.12 input -179.99 | X-H torsion
[ 5278 5270 5269 5267 ] final  147.12 input    0.55 | X-H torsion
[  641  637  636  633 ] final   37.98 input  179.99 | X-H torsion
[ 1886 1878 1877 1875 ] final   22.20 input    1.60 | X-H torsion
[  965  957  956  954 ] final    8.99 input    0.45 | X-H torsion

>  <Gold.Protein.ActiveResidues>  (74) 
 LYS47   THR48   LEU49   GLY50   THR51   GLY52   SER53   PHE54   GLY55   ARG56  
 VAL57   MET58   LEU59   TYR69   ALA70   MET71   LYS72   ILE73   LEU74   GLU91  
 LEU95   VAL104  LYS105  MET118  VAL119  MET120  GLU121  TYR122  VAL123  PRO124 
 GLY125  GLY126  GLU127  MET128  PHE129  TYR164  ASP166  LEU167  LYS168  PRO169 
 GLU170  ASN171  LEU172  LEU173  ILE174  GLN181  VAL182  THR183  ASP184  PHE185 
 GLY186  PHE187  GLY200  THR201  ASN326  PHE327  TYR330  ARG18   ARG19   ASN20  
 ALA21   ILE22   HIS23  

>  <Gold.Protein.RotatedAtoms>  (74) 
    9.6838   19.5776    8.4303 H   0  0  0  0  0  0  0  0  0  0  0  0  # atno 641  bound_to 637 
   15.7591   13.4283    7.3081 H   0  0  0  0  0  0  0  0  0  0  0  0  # atno 681  bound_to 677 
   21.0605   11.5515   -0.8271 H   0  0  0  0  0  0  0  0  0  0  0  0  # atno 702  bound_to 698 
   -6.7756   15.3779   -0.8776 H   0  0  0  0  0  0  0  0  0  0  0  0  # atno 965  bound_to 957 
    2.2381   11.6554   10.3715 H   0  0  0  0  0  0  0  0  0  0  0  0  # atno 1886 bound_to 1878
   10.9807    2.9864   -3.0844 H   0  0  0  0  0  0  0  0  0  0  0  0  # atno 2577 bound_to 2569
    8.3418    6.2702    0.2592 H   0  0  0  0  0  0  0  0  0  0  0  0  # atno 2891 bound_to 2887
   18.4012    2.4163    0.3435 H   0  0  0  0  0  0  0  0  0  0  0  0  # atno 3175 bound_to 3171
   14.1328   10.1903    8.9718 H   0  0  0  0  0  0  0  0  0  0  0  0  # atno 5278 bound_to 5270
   17.2200   13.7902    6.7875 LP  0  0  0  0  0  0  0  0  0  0  0  0  # atno 5914 bound_to 677 
   16.3672   12.5737    6.1097 LP  0  0  0  0  0  0  0  0  0  0  0  0  # atno 5915 bound_to 677 
   20.0732   11.7335   -2.0639 LP  0  0  0  0  0  0  0  0  0  0  0  0  # atno 5920 bound_to 698 
   19.5157   11.8027   -0.5306 LP  0  0  0  0  0  0  0  0  0  0  0  0  # atno 5921 bound_to 698 
   10.1129    1.8699   -2.3524 LP  0  0  0  0  0  0  0  0  0  0  0  0  # atno 5950 bound_to 2569
    9.3959    3.0499   -3.2243 LP  0  0  0  0  0  0  0  0  0  0  0  0  # atno 5951 bound_to 2569
    7.4792    5.1685    1.0198 LP  0  0  0  0  0  0  0  0  0  0  0  0  # atno 5982 bound_to 2887
    7.4164    6.7374    1.4684 LP  0  0  0  0  0  0  0  0  0  0  0  0  # atno 5983 bound_to 2887
   18.1416    2.0459   -1.1833 LP  0  0  0  0  0  0  0  0  0  0  0  0  # atno 6000 bound_to 3171
   19.3811    3.0198   -0.7570 LP  0  0  0  0  0  0  0  0  0  0  0  0  # atno 6001 bound_to 3171
   12.6091   10.0483    9.4135 LP  0  0  0  0  0  0  0  0  0  0  0  0  # atno 6004 bound_to 5270
   13.8176    9.7971   10.4827 LP  0  0  0  0  0  0  0  0  0  0  0  0  # atno 6005 bound_to 5270
   10.4923   18.9328    7.2197 LP  0  0  0  0  0  0  0  0  0  0  0  0  # atno 6055 bound_to 637 
   11.2735   19.5501    8.5140 LP  0  0  0  0  0  0  0  0  0  0  0  0  # atno 6056 bound_to 637 
    1.1582   10.5251   10.6738 LP  0  0  0  0  0  0  0  0  0  0  0  0  # atno 6063 bound_to 1878
    0.8710   12.0839   11.0662 LP  0  0  0  0  0  0  0  0  0  0  0  0  # atno 6064 bound_to 1878
   -6.4989   16.8193   -1.4948 LP  0  0  0  0  0  0  0  0  0  0  0  0  # atno 6067 bound_to 957 
   -7.1732   16.6567   -0.0165 LP  0  0  0  0  0  0  0  0  0  0  0  0  # atno 6068 bound_to 957 

>  <STRIFE_LigEff_Score>  (74) 
2.891738888888889

$$$$
unknown|pharmsElabsTestPreDocking|sdf|75|dock2
     RDKit          3D

 17 17  0  0  0  0  0  0  0  0999 V2000
   14.7765    9.0997    1.3772 C   0  0  0  0  0  0  0  0  0  0  0  0
   13.8699    7.9143    1.6623 C   0  0  0  0  0  0  0  0  0  0  0  0
   14.0978    6.7513    0.8113 N   0  0  0  0  0  0  0  0  0  0  0  0
   12.3958    8.2313    2.0645 C   0  0  0  0  0  0  0  0  0  0  0  0
   11.6651    7.2214    2.9632 C   0  0  0  0  0  0  0  0  0  0  0  0
   10.1419    7.4675    2.9548 C   0  0  0  0  0  0  0  0  0  0  0  0
    9.7345    8.9059    2.6234 C   0  0  0  0  0  0  0  0  0  0  0  0
    8.2707    9.2034    2.7833 C   0  0  0  0  0  0  0  0  0  0  0  0
    8.0017   10.2247    3.4625 O   0  0  0  0  0  0  0  0  0  0  0  0
    7.1860    8.4233    2.2624 N   0  0  0  0  0  0  0  0  0  0  0  0
    5.8727    8.7970    2.6178 N   0  0  0  0  0  0  0  0  0  0  0  0
    5.5265    9.0859    3.8336 C   0  0  0  0  0  0  0  0  0  0  0  0
    4.1749    9.4710    4.1477 N   0  0  0  0  0  0  0  0  0  0  0  0
    3.7705    9.7994    5.5130 C   0  0  0  0  0  0  0  0  0  0  0  0
    3.2151    9.5313    3.1240 N   0  0  0  0  0  0  0  0  0  0  0  0
   10.7166   10.0500    2.8206 C   0  0  0  0  0  0  0  0  0  0  0  0
   12.1960    9.6566    2.6191 C   0  0  0  0  0  0  0  0  0  0  0  0
  1  2  1  0
  2  3  1  0
  2  4  1  0
  4  5  1  0
  5  6  1  0
  6  7  1  0
  7  8  1  0
  8  9  2  0
  8 10  1  0
 10 11  1  0
 11 12  2  0
 12 13  1  0
 13 14  1  0
 13 15  1  0
  7 16  1  0
 16 17  1  0
 17  4  1  0
M  CHG  1   3   1
M  END
>  <EmbedRMS>  (75) 
0.2570984896337683

>  <Gold.Version>  (75) 
2020.3.0

>  <Gold.Id.Protein>  (75) 
unknown|1q8t_protein|pdb

>  <Gold.PLP.Fitness>  (75) 
46.6167

>  <Gold.PLP.PLP>  (75) 
-35.8550

>  <Gold.PLP.part.hbond>  (75) 
-3.4877

>  <Gold.PLP.part.metal>  (75) 
0.0000

>  <Gold.PLP.part.buried>  (75) 
-4.5390

>  <Gold.PLP.part.nonpolar>  (75) 
-29.5652

>  <Gold.PLP.part.repulsive>  (75) 
0.0997

>  <Gold.PLP.ligand.clash>  (75) 
0.0080

>  <Gold.PLP.ligand.torsion>  (75) 
1.1012

>  <Gold.PLP.Chemscore.Hbond>  (75) 
3.9920

>  <Gold.PLP.Chemscore.CHOScore>  (75) 
0.0000

>  <Gold.PLP.Chemscore.Metal>  (75) 
0.0000

>  <Gold.Chemscore.Hbonds>  (75) 
donor molecule, donor type, donor heavy atom, donor atom, acceptor molecule, acceptor atom, score
      L1  H     3    22       P1  2902  2.00
      L1  H     3    23       P1  2691  0.99
      L1  H    10    31       P1  2887  1.00

>  <Gold.PLP.Chemscore.Internal.Correction>  (75) 
0.9961

>  <Gold.PLP.Constraint>  (75) 
-0.0000

>  <Gold.Protein.RotatedTorsions>  (75) 
[  681  677  676  673 ] final -109.91 input -179.99 | X-H torsion
[  702  698  697  694 ] final  -72.46 input  179.99 | X-H torsion
[ 2577 2569 2568 2566 ] final  167.69 input   -0.13 | X-H torsion
[ 2891 2887 2886 2883 ] final  -33.13 input  179.98 | X-H torsion
[ 3175 3171 3170 3167 ] final   36.41 input -179.99 | X-H torsion
[ 5278 5270 5269 5267 ] final   48.26 input    0.55 | X-H torsion
[  641  637  636  633 ] final  161.51 input  179.99 | X-H torsion
[ 1886 1878 1877 1875 ] final   -1.37 input    1.60 | X-H torsion
[  965  957  956  954 ] final   33.49 input    0.45 | X-H torsion

>  <Gold.Protein.ActiveResidues>  (75) 
 LYS47   THR48   LEU49   GLY50   THR51   GLY52   SER53   PHE54   GLY55   ARG56  
 VAL57   MET58   LEU59   TYR69   ALA70   MET71   LYS72   ILE73   LEU74   GLU91  
 LEU95   VAL104  LYS105  MET118  VAL119  MET120  GLU121  TYR122  VAL123  PRO124 
 GLY125  GLY126  GLU127  MET128  PHE129  TYR164  ASP166  LEU167  LYS168  PRO169 
 GLU170  ASN171  LEU172  LEU173  ILE174  GLN181  VAL182  THR183  ASP184  PHE185 
 GLY186  PHE187  GLY200  THR201  ASN326  PHE327  TYR330  ARG18   ARG19   ASN20  
 ALA21   ILE22   HIS23  

>  <Gold.Protein.RotatedAtoms>  (75) 
   11.2594   19.5029    8.4565 H   0  0  0  0  0  0  0  0  0  0  0  0  # atno 641  bound_to 637 
   16.0632   13.7275    7.4163 H   0  0  0  0  0  0  0  0  0  0  0  0  # atno 681  bound_to 677 
   20.4728   11.6450   -0.2736 H   0  0  0  0  0  0  0  0  0  0  0  0  # atno 702  bound_to 698 
   -6.9316   15.4212   -0.5339 H   0  0  0  0  0  0  0  0  0  0  0  0  # atno 965  bound_to 957 
    2.2339   11.2945   10.3118 H   0  0  0  0  0  0  0  0  0  0  0  0  # atno 1886 bound_to 1878
   10.4176    1.9349   -2.3955 H   0  0  0  0  0  0  0  0  0  0  0  0  # atno 2577 bound_to 2569
    7.7601    5.1961    0.6756 H   0  0  0  0  0  0  0  0  0  0  0  0  # atno 2891 bound_to 2887
   18.7209    2.4240   -1.4065 H   0  0  0  0  0  0  0  0  0  0  0  0  # atno 3175 bound_to 3171
   12.7822   10.1363    9.1334 H   0  0  0  0  0  0  0  0  0  0  0  0  # atno 5278 bound_to 5270
   17.3008   13.4924    6.4421 LP  0  0  0  0  0  0  0  0  0  0  0  0  # atno 5914 bound_to 677 
   15.9664   12.5566    6.3412 LP  0  0  0  0  0  0  0  0  0  0  0  0  # atno 5915 bound_to 677 
   20.8772   11.5861   -1.8132 LP  0  0  0  0  0  0  0  0  0  0  0  0  # atno 5920 bound_to 698 
   19.3299   11.8518   -1.3637 LP  0  0  0  0  0  0  0  0  0  0  0  0  # atno 5921 bound_to 698 
    9.2657    2.8068   -3.0650 LP  0  0  0  0  0  0  0  0  0  0  0  0  # atno 5950 bound_to 2569
   10.8360    3.2202   -3.2370 LP  0  0  0  0  0  0  0  0  0  0  0  0  # atno 5951 bound_to 2569
    7.2119    6.3597    1.6148 LP  0  0  0  0  0  0  0  0  0  0  0  0  # atno 5982 bound_to 2887
    8.2958    6.6766    0.4352 LP  0  0  0  0  0  0  0  0  0  0  0  0  # atno 5983 bound_to 2887
   19.2475    3.0167   -0.0255 LP  0  0  0  0  0  0  0  0  0  0  0  0  # atno 6000 bound_to 3171
   17.9388    2.0411   -0.0733 LP  0  0  0  0  0  0  0  0  0  0  0  0  # atno 6001 bound_to 3171
   13.4744    9.7834   10.5238 LP  0  0  0  0  0  0  0  0  0  0  0  0  # atno 6004 bound_to 5270
   14.3734   10.1187    9.2024 LP  0  0  0  0  0  0  0  0  0  0  0  0  # atno 6005 bound_to 5270
    9.6723   19.6259    8.4874 LP  0  0  0  0  0  0  0  0  0  0  0  0  # atno 6055 bound_to 637 
   10.4342   18.9356    7.2187 LP  0  0  0  0  0  0  0  0  0  0  0  0  # atno 6056 bound_to 637 
    0.8546   10.6968   10.8369 LP  0  0  0  0  0  0  0  0  0  0  0  0  # atno 6063 bound_to 1878
    1.1791   12.2920   10.9659 LP  0  0  0  0  0  0  0  0  0  0  0  0  # atno 6064 bound_to 1878
   -6.4358   16.4523   -1.6411 LP  0  0  0  0  0  0  0  0  0  0  0  0  # atno 6067 bound_to 957 
   -7.0720   16.9782   -0.2321 LP  0  0  0  0  0  0  0  0  0  0  0  0  # atno 6068 bound_to 957 

>  <STRIFE_LigEff_Score>  (75) 
2.7421588235294116

$$$$
unknown|pharmsElabsTestPreDocking|sdf|76|dock2
     RDKit          3D

 17 17  0  0  0  0  0  0  0  0999 V2000
    3.3008    8.6083    2.2380 C   0  0  0  0  0  0  0  0  0  0  0  0
    4.6056    8.8867    2.1864 C   0  0  0  0  0  0  0  0  0  0  0  0
    5.4780    9.1756    3.3509 C   0  0  0  0  0  0  0  0  0  0  0  0
    4.9628    9.7968    4.4394 C   0  0  0  0  0  0  0  0  0  0  0  0
    5.7684   10.1968    5.6378 C   0  0  0  0  0  0  0  0  0  0  0  0
    6.9048    8.9206    3.2960 N   0  0  0  0  0  0  0  0  0  0  0  0
    7.9252    9.2237    2.3157 C   0  0  0  0  0  0  0  0  0  0  0  0
    7.5705    9.9025    1.3178 O   0  0  0  0  0  0  0  0  0  0  0  0
    9.3982    8.9184    2.3405 C   0  0  0  0  0  0  0  0  0  0  0  0
    9.7311    7.4641    2.6280 C   0  0  0  0  0  0  0  0  0  0  0  0
   11.1856    7.1136    2.3909 C   0  0  0  0  0  0  0  0  0  0  0  0
   12.2352    8.1877    2.6938 C   0  0  0  0  0  0  0  0  0  0  0  0
   13.5822    7.9304    1.9740 C   0  0  0  0  0  0  0  0  0  0  0  0
   14.4964    9.1235    1.6949 C   0  0  0  0  0  0  0  0  0  0  0  0
   13.4391    7.0567    0.8084 N   0  0  0  0  0  0  0  0  0  0  0  0
   11.8014    9.6613    2.4962 C   0  0  0  0  0  0  0  0  0  0  0  0
   10.3461    9.9980    2.7923 C   0  0  0  0  0  0  0  0  0  0  0  0
  1  2  2  0
  2  3  1  0
  3  4  2  0
  4  5  1  0
  3  6  1  0
  6  7  1  0
  7  8  2  0
  7  9  1  0
  9 10  1  0
 10 11  1  0
 11 12  1  0
 12 13  1  0
 13 14  1  0
 13 15  1  0
 12 16  1  0
 16 17  1  0
 17  9  1  0
M  CHG  1  15   1
M  END
>  <EmbedRMS>  (76) 
0.29216731409503444

>  <Gold.Version>  (76) 
2020.3.0

>  <Gold.Id.Protein>  (76) 
unknown|1q8t_protein|pdb

>  <Gold.PLP.Fitness>  (76) 
45.2199

>  <Gold.PLP.PLP>  (76) 
-39.4591

>  <Gold.PLP.part.hbond>  (76) 
-1.7497

>  <Gold.PLP.part.metal>  (76) 
0.0000

>  <Gold.PLP.part.buried>  (76) 
-1.9836

>  <Gold.PLP.part.nonpolar>  (76) 
-35.7993

>  <Gold.PLP.part.repulsive>  (76) 
0.0559

>  <Gold.PLP.ligand.clash>  (76) 
0.0000

>  <Gold.PLP.ligand.torsion>  (76) 
2.0214

>  <Gold.PLP.Chemscore.Hbond>  (76) 
2.9600

>  <Gold.PLP.Chemscore.CHOScore>  (76) 
0.0000

>  <Gold.PLP.Chemscore.Metal>  (76) 
0.0000

>  <Gold.Chemscore.Hbonds>  (76) 
donor molecule, donor type, donor heavy atom, donor atom, acceptor molecule, acceptor atom, score
      L1  H    15    36       P1  2902  2.00
      L1  H    15    37       P1  2691  0.96

>  <Gold.PLP.Chemscore.Internal.Correction>  (76) 
0.9237

>  <Gold.PLP.Constraint>  (76) 
-0.0000

>  <Gold.Protein.RotatedTorsions>  (76) 
[  681  677  676  673 ] final  -84.11 input -179.99 | X-H torsion
[  702  698  697  694 ] final   91.98 input  179.99 | X-H torsion
[ 2577 2569 2568 2566 ] final   70.49 input   -0.13 | X-H torsion
[ 2891 2887 2886 2883 ] final -163.17 input  179.98 | X-H torsion
[ 3175 3171 3170 3167 ] final   43.66 input -179.99 | X-H torsion
[ 5278 5270 5269 5267 ] final -131.94 input    0.55 | X-H torsion
[  641  637  636  633 ] final   -1.82 input  179.99 | X-H torsion
[ 1886 1878 1877 1875 ] final  -46.56 input    1.60 | X-H torsion
[  965  957  956  954 ] final  -30.69 input    0.45 | X-H torsion

>  <Gold.Protein.ActiveResidues>  (76) 
 LYS47   THR48   LEU49   GLY50   THR51   GLY52   SER53   PHE54   GLY55   ARG56  
 VAL57   MET58   LEU59   TYR69   ALA70   MET71   LYS72   ILE73   LEU74   GLU91  
 LEU95   VAL104  LYS105  MET118  VAL119  MET120  GLU121  TYR122  VAL123  PRO124 
 GLY125  GLY126  GLU127  MET128  PHE129  TYR164  ASP166  LEU167  LYS168  PRO169 
 GLU170  ASN171  LEU172  LEU173  ILE174  GLN181  VAL182  THR183  ASP184  PHE185 
 GLY186  PHE187  GLY200  THR201  ASN326  PHE327  TYR330  ARG18   ARG19   ASN20  
 ALA21   ILE22   HIS23  

>  <Gold.Protein.RotatedAtoms>  (76) 
    9.5915   19.3077    7.8916 H   0  0  0  0  0  0  0  0  0  0  0  0  # atno 641  bound_to 637 
   15.7814   13.4589    7.3246 H   0  0  0  0  0  0  0  0  0  0  0  0  # atno 681  bound_to 677 
   19.7736   11.8003   -1.8987 H   0  0  0  0  0  0  0  0  0  0  0  0  # atno 702  bound_to 698 
   -6.5464   15.6400   -1.3757 H   0  0  0  0  0  0  0  0  0  0  0  0  # atno 965  bound_to 957 
    1.8709   10.7131   10.3727 H   0  0  0  0  0  0  0  0  0  0  0  0  # atno 1886 bound_to 1878
    9.2936    2.4980   -2.8689 H   0  0  0  0  0  0  0  0  0  0  0  0  # atno 2577 bound_to 2569
    7.2850    6.4893    1.5358 H   0  0  0  0  0  0  0  0  0  0  0  0  # atno 2891 bound_to 2887
   18.6297    2.3570   -1.4027 H   0  0  0  0  0  0  0  0  0  0  0  0  # atno 3175 bound_to 3171
   14.2799    9.9154   10.0924 H   0  0  0  0  0  0  0  0  0  0  0  0  # atno 5278 bound_to 5270
   17.2361   13.7670    6.7545 LP  0  0  0  0  0  0  0  0  0  0  0  0  # atno 5914 bound_to 677 
   16.3277   12.5647    6.1253 LP  0  0  0  0  0  0  0  0  0  0  0  0  # atno 5915 bound_to 677 
   19.7847   11.7507   -0.3066 LP  0  0  0  0  0  0  0  0  0  0  0  0  # atno 5920 bound_to 698 
   21.1579   11.5238   -1.1607 LP  0  0  0  0  0  0  0  0  0  0  0  0  # atno 5921 bound_to 698 
   10.5241    3.3765   -3.3684 LP  0  0  0  0  0  0  0  0  0  0  0  0  # atno 5950 bound_to 2569
   10.7610    2.0575   -2.4351 LP  0  0  0  0  0  0  0  0  0  0  0  0  # atno 5951 bound_to 2569
    8.3441    6.5450    0.3477 LP  0  0  0  0  0  0  0  0  0  0  0  0  # atno 5982 bound_to 2887
    7.6637    5.1302    0.7970 LP  0  0  0  0  0  0  0  0  0  0  0  0  # atno 5983 bound_to 2887
   19.2990    3.0412   -0.1300 LP  0  0  0  0  0  0  0  0  0  0  0  0  # atno 6000 bound_to 3171
   17.9831    2.0871    0.0273 LP  0  0  0  0  0  0  0  0  0  0  0  0  # atno 6001 bound_to 3171
   13.5831   10.2353    8.6964 LP  0  0  0  0  0  0  0  0  0  0  0  0  # atno 6004 bound_to 5270
   12.6889    9.8993   10.0208 LP  0  0  0  0  0  0  0  0  0  0  0  0  # atno 6005 bound_to 5270
   11.0896   19.0123    7.4407 LP  0  0  0  0  0  0  0  0  0  0  0  0  # atno 6055 bound_to 637 
   10.7733   19.7548    8.8603 LP  0  0  0  0  0  0  0  0  0  0  0  0  # atno 6056 bound_to 637 
    0.5749   11.3242   11.0672 LP  0  0  0  0  0  0  0  0  0  0  0  0  # atno 6063 bound_to 1878
    1.8409   12.2768   10.6715 LP  0  0  0  0  0  0  0  0  0  0  0  0  # atno 6064 bound_to 1878
   -6.7146   17.1812   -1.0131 LP  0  0  0  0  0  0  0  0  0  0  0  0  # atno 6067 bound_to 957 
   -7.1988   16.0187    0.0264 LP  0  0  0  0  0  0  0  0  0  0  0  0  # atno 6068 bound_to 957 

>  <STRIFE_LigEff_Score>  (76) 
2.659994117647059

$$$$
unknown|pharmsElabsTestPreDocking|sdf|77|dock5
     RDKit          3D

 18 19  0  0  0  0  0  0  0  0999 V2000
   13.7965    9.8012    1.0984 C   0  0  0  0  0  0  0  0  0  0  0  0
   13.4697    8.4957    1.8234 C   0  0  0  0  0  0  0  0  0  0  0  0
   13.4781    7.3602    0.8909 N   0  0  0  0  0  0  0  0  0  0  0  0
   12.2466    8.4718    2.7607 C   0  0  0  0  0  0  0  0  0  0  0  0
   11.1592    7.3795    2.5769 C   0  0  0  0  0  0  0  0  0  0  0  0
    9.7475    7.8928    2.3360 C   0  0  0  0  0  0  0  0  0  0  0  0
    9.3948    9.0281    3.2937 C   0  0  0  0  0  0  0  0  0  0  0  0
    7.9504    9.4171    3.1361 C   0  0  0  0  0  0  0  0  0  0  0  0
    7.5652    9.9817    2.0764 O   0  0  0  0  0  0  0  0  0  0  0  0
    7.0374    9.1612    4.2103 N   0  0  0  0  0  0  0  0  0  0  0  0
    5.6326    9.4548    4.1941 C   0  0  0  0  0  0  0  0  0  0  0  0
    4.8103    9.7833    5.2617 C   0  0  0  0  0  0  0  0  0  0  0  0
    3.5529    9.9737    4.8161 N   0  0  0  0  0  0  0  0  0  0  0  0
    3.5542    9.7739    3.4842 C   0  0  0  0  0  0  0  0  0  0  0  0
    4.8281    9.4516    3.0735 C   0  0  0  0  0  0  0  0  0  0  0  0
    5.2236    9.1706    1.7304 N   0  0  0  0  0  0  0  0  0  0  0  0
   10.2973   10.2231    3.0069 C   0  0  0  0  0  0  0  0  0  0  0  0
   11.7737    9.8889    3.2085 C   0  0  0  0  0  0  0  0  0  0  0  0
  1  2  1  0
  2  3  1  0
  2  4  1  0
  4  5  1  0
  5  6  1  0
  6  7  1  0
  7  8  1  0
  8  9  2  0
  8 10  1  0
 10 11  1  0
 11 12  2  0
 12 13  1  0
 13 14  1  0
 14 15  2  0
 15 16  1  0
  7 17  1  0
 17 18  1  0
 18  4  1  0
 15 11  1  0
M  CHG  1   3   1
M  END
>  <EmbedRMS>  (77) 
0.20222811455084339

>  <Gold.Version>  (77) 
2020.3.0

>  <Gold.Id.Protein>  (77) 
unknown|1q8t_protein|pdb

>  <Gold.PLP.Fitness>  (77) 
48.4897

>  <Gold.PLP.PLP>  (77) 
-39.6732

>  <Gold.PLP.part.hbond>  (77) 
-1.9299

>  <Gold.PLP.part.metal>  (77) 
0.0000

>  <Gold.PLP.part.buried>  (77) 
-6.6379

>  <Gold.PLP.part.nonpolar>  (77) 
-31.7207

>  <Gold.PLP.part.repulsive>  (77) 
0.1261

>  <Gold.PLP.ligand.clash>  (77) 
0.0000

>  <Gold.PLP.ligand.torsion>  (77) 
1.5179

>  <Gold.PLP.Chemscore.Hbond>  (77) 
2.8160

>  <Gold.PLP.Chemscore.CHOScore>  (77) 
1.0000

>  <Gold.PLP.Chemscore.Metal>  (77) 
0.0000

>  <Gold.Chemscore.Hbonds>  (77) 
donor molecule, donor type, donor heavy atom, donor atom, acceptor molecule, acceptor atom, score
      L1  H     3    23       P1  2902  1.98
      L1  H     3    24       P1  2691  0.83
      L1  C    14    35       P1  1855  1.00

>  <Gold.PLP.Chemscore.Internal.Correction>  (77) 
0.4044

>  <Gold.PLP.Constraint>  (77) 
-0.0000

>  <Gold.Protein.RotatedTorsions>  (77) 
[  681  677  676  673 ] final   -4.12 input -179.99 | X-H torsion
[  702  698  697  694 ] final  141.13 input  179.99 | X-H torsion
[ 2577 2569 2568 2566 ] final   93.58 input   -0.13 | X-H torsion
[ 2891 2887 2886 2883 ] final -169.77 input  179.98 | X-H torsion
[ 3175 3171 3170 3167 ] final   10.47 input -179.99 | X-H torsion
[ 5278 5270 5269 5267 ] final  -59.27 input    0.55 | X-H torsion
[  641  637  636  633 ] final   76.26 input  179.99 | X-H torsion
[ 1886 1878 1877 1875 ] final  110.58 input    1.60 | X-H torsion
[  965  957  956  954 ] final -178.98 input    0.45 | X-H torsion

>  <Gold.Protein.ActiveResidues>  (77) 
 LYS47   THR48   LEU49   GLY50   THR51   GLY52   SER53   PHE54   GLY55   ARG56  
 VAL57   MET58   LEU59   TYR69   ALA70   MET71   LYS72   ILE73   LEU74   GLU91  
 LEU95   VAL104  LYS105  MET118  VAL119  MET120  GLU121  TYR122  VAL123  PRO124 
 GLY125  GLY126  GLU127  MET128  PHE129  TYR164  ASP166  LEU167  LYS168  PRO169 
 GLU170  ASN171  LEU172  LEU173  ILE174  GLN181  VAL182  THR183  ASP184  PHE185 
 GLY186  PHE187  GLY200  THR201  ASN326  PHE327  TYR330  ARG18   ARG19   ASN20  
 ALA21   ILE22   HIS23  

>  <Gold.Protein.RotatedAtoms>  (77) 
   10.1178   19.7378    8.7916 H   0  0  0  0  0  0  0  0  0  0  0  0  # atno 641  bound_to 637 
   15.8286   12.6566    6.4999 H   0  0  0  0  0  0  0  0  0  0  0  0  # atno 681  bound_to 677 
   20.5025   11.6728   -1.9891 H   0  0  0  0  0  0  0  0  0  0  0  0  # atno 702  bound_to 698 
   -6.8863   17.1386   -0.5974 H   0  0  0  0  0  0  0  0  0  0  0  0  # atno 965  bound_to 957 
    1.2973   12.2882   10.8942 H   0  0  0  0  0  0  0  0  0  0  0  0  # atno 1886 bound_to 1878
    9.4154    2.2254   -2.6707 H   0  0  0  0  0  0  0  0  0  0  0  0  # atno 2577 bound_to 2569
    7.3309    6.5757    1.5033 H   0  0  0  0  0  0  0  0  0  0  0  0  # atno 2891 bound_to 2887
   19.0272    2.6641   -1.3052 H   0  0  0  0  0  0  0  0  0  0  0  0  # atno 3175 bound_to 3171
   13.2851    9.8168   10.4503 H   0  0  0  0  0  0  0  0  0  0  0  0  # atno 5278 bound_to 5270
   16.2515   13.8585    7.4552 LP  0  0  0  0  0  0  0  0  0  0  0  0  # atno 5914 bound_to 677 
   17.2626   13.3176    6.2925 LP  0  0  0  0  0  0  0  0  0  0  0  0  # atno 5915 bound_to 677 
   19.3225   11.8448   -0.9330 LP  0  0  0  0  0  0  0  0  0  0  0  0  # atno 5920 bound_to 698 
   20.8534   11.5638   -0.4392 LP  0  0  0  0  0  0  0  0  0  0  0  0  # atno 5921 bound_to 698 
   10.1532    3.4181   -3.4244 LP  0  0  0  0  0  0  0  0  0  0  0  0  # atno 5950 bound_to 2569
   11.0036    2.3030   -2.5878 LP  0  0  0  0  0  0  0  0  0  0  0  0  # atno 5951 bound_to 2569
    8.3662    6.4504    0.2995 LP  0  0  0  0  0  0  0  0  0  0  0  0  # atno 5982 bound_to 2887
    7.5933    5.1340    0.8794 LP  0  0  0  0  0  0  0  0  0  0  0  0  # atno 5983 bound_to 2887
   18.9896    2.8649    0.2740 LP  0  0  0  0  0  0  0  0  0  0  0  0  # atno 6000 bound_to 3171
   17.8742    1.9401   -0.4793 LP  0  0  0  0  0  0  0  0  0  0  0  0  # atno 6001 bound_to 3171
   14.4446   10.0734    9.3891 LP  0  0  0  0  0  0  0  0  0  0  0  0  # atno 6004 bound_to 5270
   12.8740   10.1650    8.9515 LP  0  0  0  0  0  0  0  0  0  0  0  0  # atno 6005 bound_to 5270
    9.9043   19.0446    7.3743 LP  0  0  0  0  0  0  0  0  0  0  0  0  # atno 6055 bound_to 637 
   11.4044   19.2696    7.9789 LP  0  0  0  0  0  0  0  0  0  0  0  0  # atno 6056 bound_to 637 
    2.2485   11.1574   10.3009 LP  0  0  0  0  0  0  0  0  0  0  0  0  # atno 6063 bound_to 1878
    0.7711   10.7854   10.8888 LP  0  0  0  0  0  0  0  0  0  0  0  0  # atno 6064 bound_to 1878
   -7.1079   15.6177   -0.1818 LP  0  0  0  0  0  0  0  0  0  0  0  0  # atno 6067 bound_to 957 
   -6.4476   16.0039   -1.6245 LP  0  0  0  0  0  0  0  0  0  0  0  0  # atno 6068 bound_to 957 

>  <STRIFE_LigEff_Score>  (77) 
2.6938722222222222

$$$$
unknown|pharmsElabsTestPreDocking|sdf|78|dock3
     RDKit          3D

 18 18  0  0  0  0  0  0  0  0999 V2000
    5.8861   10.1001    5.9036 C   0  0  0  0  0  0  0  0  0  0  0  0
    5.0690    9.9424    4.8587 C   0  0  0  0  0  0  0  0  0  0  0  0
    3.5822   10.1059    5.0495 C   0  0  0  0  0  0  0  0  0  0  0  0
    5.6273    9.4655    3.5589 C   0  0  0  0  0  0  0  0  0  0  0  0
    4.8457    9.4535    2.4626 C   0  0  0  0  0  0  0  0  0  0  0  0
    5.3178    8.9621    1.1293 C   0  0  0  0  0  0  0  0  0  0  0  0
    6.9544    8.9056    3.4840 N   0  0  0  0  0  0  0  0  0  0  0  0
    7.9825    9.3541    2.5928 C   0  0  0  0  0  0  0  0  0  0  0  0
    7.7282   10.2070    1.6954 O   0  0  0  0  0  0  0  0  0  0  0  0
    9.3815    8.8049    2.7452 C   0  0  0  0  0  0  0  0  0  0  0  0
    9.8017    8.1048    1.4586 C   0  0  0  0  0  0  0  0  0  0  0  0
   11.1542    7.4257    1.5798 C   0  0  0  0  0  0  0  0  0  0  0  0
   12.2102    8.2148    2.3769 C   0  0  0  0  0  0  0  0  0  0  0  0
   13.7064    7.9413    1.9883 C   0  0  0  0  0  0  0  0  0  0  0  0
   14.6671    7.6468    3.1503 C   0  0  0  0  0  0  0  0  0  0  0  0
   13.8337    6.9073    0.9549 N   0  0  0  0  0  0  0  0  0  0  0  0
   11.8455    9.5835    2.9891 C   0  0  0  0  0  0  0  0  0  0  0  0
   10.3500    9.9424    3.0874 C   0  0  0  0  0  0  0  0  0  0  0  0
  1  2  2  0
  2  3  1  0
  2  4  1  0
  4  5  2  0
  5  6  1  0
  4  7  1  0
  7  8  1  0
  8  9  2  0
  8 10  1  0
 10 11  1  0
 11 12  1  0
 12 13  1  0
 13 14  1  0
 14 15  1  0
 14 16  1  0
 13 17  1  0
 17 18  1  0
 18 10  1  0
M  CHG  1  16   1
M  END
>  <EmbedRMS>  (78) 
0.16480955270904202

>  <Gold.Version>  (78) 
2020.3.0

>  <Gold.Id.Protein>  (78) 
unknown|1q8t_protein|pdb

>  <Gold.PLP.Fitness>  (78) 
47.6238

>  <Gold.PLP.PLP>  (78) 
-40.2966

>  <Gold.PLP.part.hbond>  (78) 
-1.9507

>  <Gold.PLP.part.metal>  (78) 
0.0000

>  <Gold.PLP.part.buried>  (78) 
-2.4958

>  <Gold.PLP.part.nonpolar>  (78) 
-35.6202

>  <Gold.PLP.part.repulsive>  (78) 
0.0764

>  <Gold.PLP.ligand.clash>  (78) 
0.0000

>  <Gold.PLP.ligand.torsion>  (78) 
1.5236

>  <Gold.PLP.Chemscore.Hbond>  (78) 
3.0000

>  <Gold.PLP.Chemscore.CHOScore>  (78) 
0.0000

>  <Gold.PLP.Chemscore.Metal>  (78) 
0.0000

>  <Gold.Chemscore.Hbonds>  (78) 
donor molecule, donor type, donor heavy atom, donor atom, acceptor molecule, acceptor atom, score
      L1  H    16    39       P1  2691  1.00
      L1  H    16    40       P1  2902  2.00

>  <Gold.PLP.Chemscore.Internal.Correction>  (78) 
1.3744

>  <Gold.PLP.Constraint>  (78) 
-0.0000

>  <Gold.Protein.RotatedTorsions>  (78) 
[  681  677  676  673 ] final  -28.50 input -179.99 | X-H torsion
[  702  698  697  694 ] final -171.95 input  179.99 | X-H torsion
[ 2577 2569 2568 2566 ] final  144.84 input   -0.13 | X-H torsion
[ 2891 2887 2886 2883 ] final   64.21 input  179.98 | X-H torsion
[ 3175 3171 3170 3167 ] final   28.92 input -179.99 | X-H torsion
[ 5278 5270 5269 5267 ] final -165.45 input    0.55 | X-H torsion
[  641  637  636  633 ] final -121.42 input  179.99 | X-H torsion
[ 1886 1878 1877 1875 ] final -168.67 input    1.60 | X-H torsion
[  965  957  956  954 ] final  111.30 input    0.45 | X-H torsion

>  <Gold.Protein.ActiveResidues>  (78) 
 LYS47   THR48   LEU49   GLY50   THR51   GLY52   SER53   PHE54   GLY55   ARG56  
 VAL57   MET58   LEU59   TYR69   ALA70   MET71   LYS72   ILE73   LEU74   GLU91  
 LEU95   VAL104  LYS105  MET118  VAL119  MET120  GLU121  TYR122  VAL123  PRO124 
 GLY125  GLY126  GLU127  MET128  PHE129  TYR164  ASP166  LEU167  LYS168  PRO169 
 GLU170  ASN171  LEU172  LEU173  ILE174  GLN181  VAL182  THR183  ASP184  PHE185 
 GLY186  PHE187  GLY200  THR201  ASN326  PHE327  TYR330  ARG18   ARG19   ASN20  
 ALA21   ILE22   HIS23  

>  <Gold.Protein.RotatedAtoms>  (78) 
   11.0529   19.0136    7.4756 H   0  0  0  0  0  0  0  0  0  0  0  0  # atno 641  bound_to 637 
   15.6535   12.8341    6.7844 H   0  0  0  0  0  0  0  0  0  0  0  0  # atno 681  bound_to 677 
   21.0307   11.5701   -1.5204 H   0  0  0  0  0  0  0  0  0  0  0  0  # atno 702  bound_to 698 
   -7.1731   16.3716    0.0166 H   0  0  0  0  0  0  0  0  0  0  0  0  # atno 965  bound_to 957 
    0.6108   11.3644   11.0393 H   0  0  0  0  0  0  0  0  0  0  0  0  # atno 1886 bound_to 1878
   10.0645    1.9018   -2.3984 H   0  0  0  0  0  0  0  0  0  0  0  0  # atno 2577 bound_to 2569
    8.3362    6.3472    0.2841 H   0  0  0  0  0  0  0  0  0  0  0  0  # atno 2891 bound_to 2887
   18.8138    2.4942   -1.3954 H   0  0  0  0  0  0  0  0  0  0  0  0  # atno 3175 bound_to 3171
   14.4262   10.0355    9.6118 H   0  0  0  0  0  0  0  0  0  0  0  0  # atno 5278 bound_to 5270
   16.6160   13.9733    7.3432 LP  0  0  0  0  0  0  0  0  0  0  0  0  # atno 5914 bound_to 677 
   17.0824   13.0160    6.1052 LP  0  0  0  0  0  0  0  0  0  0  0  0  # atno 5915 bound_to 677 
   19.4668   11.8334   -1.6696 LP  0  0  0  0  0  0  0  0  0  0  0  0  # atno 5920 bound_to 698 
   20.1535   11.6832   -0.1956 LP  0  0  0  0  0  0  0  0  0  0  0  0  # atno 5921 bound_to 698 
    9.4283    3.0883   -3.2486 LP  0  0  0  0  0  0  0  0  0  0  0  0  # atno 5950 bound_to 2569
   11.0452    2.9735   -3.0503 LP  0  0  0  0  0  0  0  0  0  0  0  0  # atno 5951 bound_to 2569
    7.5309    5.1482    0.9551 LP  0  0  0  0  0  0  0  0  0  0  0  0  # atno 5982 bound_to 2887
    7.3705    6.6767    1.5070 LP  0  0  0  0  0  0  0  0  0  0  0  0  # atno 5983 bound_to 2887
   19.1838    2.9826    0.0743 LP  0  0  0  0  0  0  0  0  0  0  0  0  # atno 6000 bound_to 3171
   17.9046    2.0012   -0.1847 LP  0  0  0  0  0  0  0  0  0  0  0  0  # atno 6001 bound_to 3171
   13.0548   10.1996    8.8187 LP  0  0  0  0  0  0  0  0  0  0  0  0  # atno 6004 bound_to 5270
   13.0633    9.8086   10.4042 LP  0  0  0  0  0  0  0  0  0  0  0  0  # atno 6005 bound_to 5270
   10.7794   19.7536    8.8586 LP  0  0  0  0  0  0  0  0  0  0  0  0  # atno 6055 bound_to 637 
    9.5445   19.3232    7.8805 LP  0  0  0  0  0  0  0  0  0  0  0  0  # atno 6056 bound_to 637 
    1.8688   12.2624   10.6568 LP  0  0  0  0  0  0  0  0  0  0  0  0  # atno 6063 bound_to 1878
    1.8736   10.6530   10.3802 LP  0  0  0  0  0  0  0  0  0  0  0  0  # atno 6064 bound_to 1878
   -6.6720   15.4037   -1.1441 LP  0  0  0  0  0  0  0  0  0  0  0  0  # atno 6067 bound_to 957 
   -6.5815   17.0258   -1.3090 LP  0  0  0  0  0  0  0  0  0  0  0  0  # atno 6068 bound_to 957 

>  <STRIFE_LigEff_Score>  (78) 
2.645766666666667

$$$$
unknown|pharmsElabsTestPreDocking|sdf|79|dock5
     RDKit          3D

 18 19  0  0  0  0  0  0  0  0999 V2000
   13.8787    6.7491    3.4352 C   0  0  0  0  0  0  0  0  0  0  0  0
   13.7104    7.7172    2.2475 C   0  0  0  0  0  0  0  0  0  0  0  0
   13.9784    6.9956    0.9968 N   0  0  0  0  0  0  0  0  0  0  0  0
   12.2868    8.3485    2.2686 C   0  0  0  0  0  0  0  0  0  0  0  0
   11.2184    7.2424    2.1453 C   0  0  0  0  0  0  0  0  0  0  0  0
    9.8349    7.8615    2.0034 C   0  0  0  0  0  0  0  0  0  0  0  0
    9.5131    8.7226    3.2285 C   0  0  0  0  0  0  0  0  0  0  0  0
    8.1413    9.3183    3.0998 C   0  0  0  0  0  0  0  0  0  0  0  0
    7.8997   10.4787    3.5369 O   0  0  0  0  0  0  0  0  0  0  0  0
    7.1093    8.5523    2.4782 N   0  0  0  0  0  0  0  0  0  0  0  0
    5.7693    9.0889    2.2861 C   0  0  0  0  0  0  0  0  0  0  0  0
    5.0703    9.1786    3.6004 C   0  0  0  0  0  0  0  0  0  0  0  0
    5.4505    9.9585    4.6733 C   0  0  0  0  0  0  0  0  0  0  0  0
    4.4623    9.7954    5.6229 C   0  0  0  0  0  0  0  0  0  0  0  0
    3.5021    8.9722    5.1595 N   0  0  0  0  0  0  0  0  0  0  0  0
    3.8597    8.6009    3.9183 C   0  0  0  0  0  0  0  0  0  0  0  0
   10.5756    9.8132    3.4465 C   0  0  0  0  0  0  0  0  0  0  0  0
   11.9857    9.2038    3.5245 C   0  0  0  0  0  0  0  0  0  0  0  0
  1  2  1  0
  2  3  1  0
  2  4  1  0
  4  5  1  0
  5  6  1  0
  6  7  1  0
  7  8  1  0
  8  9  2  0
  8 10  1  0
 10 11  1  0
 11 12  1  0
 12 13  1  0
 13 14  2  0
 14 15  1  0
 15 16  1  0
  7 17  1  0
 17 18  1  0
 18  4  1  0
 16 12  2  0
M  CHG  1   3   1
M  END
>  <EmbedRMS>  (79) 
0.029013692847384143

>  <Gold.Version>  (79) 
2020.3.0

>  <Gold.Id.Protein>  (79) 
unknown|1q8t_protein|pdb

>  <Gold.PLP.Fitness>  (79) 
55.4676

>  <Gold.PLP.PLP>  (79) 
-42.0203

>  <Gold.PLP.part.hbond>  (79) 
-4.0000

>  <Gold.PLP.part.metal>  (79) 
0.0000

>  <Gold.PLP.part.buried>  (79) 
-3.0622

>  <Gold.PLP.part.nonpolar>  (79) 
-36.0025

>  <Gold.PLP.part.repulsive>  (79) 
0.4170

>  <Gold.PLP.ligand.clash>  (79) 
0.0107

>  <Gold.PLP.ligand.torsion>  (79) 
0.7049

>  <Gold.PLP.Chemscore.Hbond>  (79) 
4.8960

>  <Gold.PLP.Chemscore.CHOScore>  (79) 
0.0000

>  <Gold.PLP.Chemscore.Metal>  (79) 
0.0000

>  <Gold.Chemscore.Hbonds>  (79) 
donor molecule, donor type, donor heavy atom, donor atom, acceptor molecule, acceptor atom, score
      L1  H     3    24       P1  2691  1.00
      L1  H     3    25       P1  2902  1.98
      L1  H    10    32       P1  2887  1.00
      L1  H    15    37       P1  1891  0.91

>  <Gold.PLP.Chemscore.Internal.Correction>  (79) 
0.1798

>  <Gold.PLP.Constraint>  (79) 
-0.0000

>  <Gold.Protein.RotatedTorsions>  (79) 
[  681  677  676  673 ] final -168.56 input -179.99 | X-H torsion
[  702  698  697  694 ] final  153.95 input  179.99 | X-H torsion
[ 2577 2569 2568 2566 ] final   40.59 input   -0.13 | X-H torsion
[ 2891 2887 2886 2883 ] final   63.79 input  179.98 | X-H torsion
[ 3175 3171 3170 3167 ] final -134.68 input -179.99 | X-H torsion
[ 5278 5270 5269 5267 ] final -167.61 input    0.55 | X-H torsion
[  641  637  636  633 ] final -150.18 input  179.99 | X-H torsion
[ 1886 1878 1877 1875 ] final  -50.05 input    1.60 | X-H torsion
[  965  957  956  954 ] final  -10.91 input    0.45 | X-H torsion

>  <Gold.Protein.ActiveResidues>  (79) 
 LYS47   THR48   LEU49   GLY50   THR51   GLY52   SER53   PHE54   GLY55   ARG56  
 VAL57   MET58   LEU59   TYR69   ALA70   MET71   LYS72   ILE73   LEU74   GLU91  
 LEU95   VAL104  LYS105  MET118  VAL119  MET120  GLU121  TYR122  VAL123  PRO124 
 GLY125  GLY126  GLU127  MET128  PHE129  TYR164  ASP166  LEU167  LYS168  PRO169 
 GLU170  ASN171  LEU172  LEU173  ILE174  GLN181  VAL182  THR183  ASP184  PHE185 
 GLY186  PHE187  GLY200  THR201  ASN326  PHE327  TYR330  ARG18   ARG19   ASN20  
 ALA21   ILE22   HIS23  

>  <Gold.Protein.RotatedAtoms>  (79) 
   11.3065   19.1683    7.8064 H   0  0  0  0  0  0  0  0  0  0  0  0  # atno 641  bound_to 637 
   16.8656   13.9482    7.1381 H   0  0  0  0  0  0  0  0  0  0  0  0  # atno 681  bound_to 677 
   20.6822   11.6394   -1.9077 H   0  0  0  0  0  0  0  0  0  0  0  0  # atno 702  bound_to 698 
   -6.6515   15.4615   -1.1485 H   0  0  0  0  0  0  0  0  0  0  0  0  # atno 965  bound_to 957 
    1.8278   10.6826   10.3865 H   0  0  0  0  0  0  0  0  0  0  0  0  # atno 1886 bound_to 1878
    9.3466    2.8769   -3.1281 H   0  0  0  0  0  0  0  0  0  0  0  0  # atno 2577 bound_to 2569
    8.3368    6.3410    0.2819 H   0  0  0  0  0  0  0  0  0  0  0  0  # atno 2891 bound_to 2887
   18.6791    2.6253    0.3676 H   0  0  0  0  0  0  0  0  0  0  0  0  # atno 3175 bound_to 3171
   14.4254   10.0436    9.5790 H   0  0  0  0  0  0  0  0  0  0  0  0  # atno 5278 bound_to 5270
   16.8460   12.7987    6.0362 LP  0  0  0  0  0  0  0  0  0  0  0  0  # atno 5914 bound_to 677 
   15.5767   13.0180    7.0399 LP  0  0  0  0  0  0  0  0  0  0  0  0  # atno 5915 bound_to 677 
   19.3015   11.8525   -1.1424 LP  0  0  0  0  0  0  0  0  0  0  0  0  # atno 5920 bound_to 698 
   20.6852   11.5913   -0.3155 LP  0  0  0  0  0  0  0  0  0  0  0  0  # atno 5921 bound_to 698 
   10.9140    3.1516   -3.1836 LP  0  0  0  0  0  0  0  0  0  0  0  0  # atno 5950 bound_to 2569
   10.3153    1.8835   -2.3470 LP  0  0  0  0  0  0  0  0  0  0  0  0  # atno 5951 bound_to 2569
    7.5266    5.1495    0.9604 LP  0  0  0  0  0  0  0  0  0  0  0  0  # atno 5982 bound_to 2887
    7.3742    6.6818    1.5040 LP  0  0  0  0  0  0  0  0  0  0  0  0  # atno 5983 bound_to 2887
   17.9578    1.9494   -0.8808 LP  0  0  0  0  0  0  0  0  0  0  0  0  # atno 6000 bound_to 3171
   19.2724    2.8964   -1.0850 LP  0  0  0  0  0  0  0  0  0  0  0  0  # atno 6001 bound_to 3171
   13.0244   10.1949    8.8366 LP  0  0  0  0  0  0  0  0  0  0  0  0  # atno 6004 bound_to 5270
   13.0945    9.8049   10.4208 LP  0  0  0  0  0  0  0  0  0  0  0  0  # atno 6005 bound_to 5270
   10.3134   19.7922    8.8832 LP  0  0  0  0  0  0  0  0  0  0  0  0  # atno 6055 bound_to 637 
    9.7434   19.1217    7.5076 LP  0  0  0  0  0  0  0  0  0  0  0  0  # atno 6056 bound_to 637 
    0.5744   11.3807   11.0771 LP  0  0  0  0  0  0  0  0  0  0  0  0  # atno 6063 bound_to 1878
    1.8867   12.2523   10.6472 LP  0  0  0  0  0  0  0  0  0  0  0  0  # atno 6064 bound_to 1878
   -6.5936   17.0470   -1.2818 LP  0  0  0  0  0  0  0  0  0  0  0  0  # atno 6067 bound_to 957 
   -7.2091   16.3410    0.0558 LP  0  0  0  0  0  0  0  0  0  0  0  0  # atno 6068 bound_to 957 

>  <STRIFE_LigEff_Score>  (79) 
3.0815333333333332

$$$$
unknown|pharmsElabsTestPreDocking|sdf|80|dock7
     RDKit          3D

 18 19  0  0  0  0  0  0  0  0999 V2000
   14.7754    7.4057    3.5227 C   0  0  0  0  0  0  0  0  0  0  0  0
   13.8948    8.0180    2.4231 C   0  0  0  0  0  0  0  0  0  0  0  0
   14.0283    7.2467    1.1821 N   0  0  0  0  0  0  0  0  0  0  0  0
   12.3951    8.2810    2.8014 C   0  0  0  0  0  0  0  0  0  0  0  0
   11.3751    7.2788    2.2298 C   0  0  0  0  0  0  0  0  0  0  0  0
    9.9829    7.8385    2.0149 C   0  0  0  0  0  0  0  0  0  0  0  0
    9.5463    8.7680    3.1421 C   0  0  0  0  0  0  0  0  0  0  0  0
    8.1190    9.1893    2.9091 C   0  0  0  0  0  0  0  0  0  0  0  0
    7.8308    9.8196    1.8564 O   0  0  0  0  0  0  0  0  0  0  0  0
    7.1236    8.8932    3.9003 N   0  0  0  0  0  0  0  0  0  0  0  0
    5.7161    9.1999    3.8388 C   0  0  0  0  0  0  0  0  0  0  0  0
    5.0769    9.6397    5.0079 C   0  0  0  0  0  0  0  0  0  0  0  0
    3.7192    9.9539    4.9957 C   0  0  0  0  0  0  0  0  0  0  0  0
    2.9998    9.8273    3.8094 C   0  0  0  0  0  0  0  0  0  0  0  0
    3.6208    9.4016    2.6817 N   0  0  0  0  0  0  0  0  0  0  0  0
    4.9403    9.0885    2.6633 C   0  0  0  0  0  0  0  0  0  0  0  0
   10.4456   10.0078    3.2056 C   0  0  0  0  0  0  0  0  0  0  0  0
   11.9575    9.7259    3.1198 C   0  0  0  0  0  0  0  0  0  0  0  0
  1  2  1  0
  2  3  1  0
  2  4  1  0
  4  5  1  0
  5  6  1  0
  6  7  1  0
  7  8  1  0
  8  9  2  0
  8 10  1  0
 10 11  1  0
 11 12  2  0
 12 13  1  0
 13 14  2  0
 14 15  1  0
 15 16  2  0
  7 17  1  0
 17 18  1  0
 18  4  1  0
 16 11  1  0
M  CHG  1   3   1
M  END
>  <EmbedRMS>  (80) 
0.16496192233382964

>  <Gold.Version>  (80) 
2020.3.0

>  <Gold.Id.Protein>  (80) 
unknown|1q8t_protein|pdb

>  <Gold.PLP.Fitness>  (80) 
52.4305

>  <Gold.PLP.PLP>  (80) 
-42.9973

>  <Gold.PLP.part.hbond>  (80) 
-2.0000

>  <Gold.PLP.part.metal>  (80) 
0.0000

>  <Gold.PLP.part.buried>  (80) 
-2.7749

>  <Gold.PLP.part.nonpolar>  (80) 
-38.4052

>  <Gold.PLP.part.repulsive>  (80) 
0.1294

>  <Gold.PLP.ligand.clash>  (80) 
0.0000

>  <Gold.PLP.ligand.torsion>  (80) 
1.5228

>  <Gold.PLP.Chemscore.Hbond>  (80) 
3.0000

>  <Gold.PLP.Chemscore.CHOScore>  (80) 
0.9723

>  <Gold.PLP.Chemscore.Metal>  (80) 
0.0000

>  <Gold.Chemscore.Hbonds>  (80) 
donor molecule, donor type, donor heavy atom, donor atom, acceptor molecule, acceptor atom, score
      L1  H     3    23       P1  2691  1.00
      L1  H     3    25       P1  2902  2.00
      L1  C    14    35       P1  1855  0.97

>  <Gold.PLP.Chemscore.Internal.Correction>  (80) 
0.5620

>  <Gold.PLP.Constraint>  (80) 
-0.0000

>  <Gold.Protein.RotatedTorsions>  (80) 
[  681  677  676  673 ] final  151.63 input -179.99 | X-H torsion
[  702  698  697  694 ] final -143.89 input  179.99 | X-H torsion
[ 2577 2569 2568 2566 ] final  -52.11 input   -0.13 | X-H torsion
[ 2891 2887 2886 2883 ] final -116.99 input  179.98 | X-H torsion
[ 3175 3171 3170 3167 ] final -171.25 input -179.99 | X-H torsion
[ 5278 5270 5269 5267 ] final -129.88 input    0.55 | X-H torsion
[  641  637  636  633 ] final  170.44 input  179.99 | X-H torsion
[ 1886 1878 1877 1875 ] final  -81.82 input    1.60 | X-H torsion
[  965  957  956  954 ] final -143.34 input    0.45 | X-H torsion

>  <Gold.Protein.ActiveResidues>  (80) 
 LYS47   THR48   LEU49   GLY50   THR51   GLY52   SER53   PHE54   GLY55   ARG56  
 VAL57   MET58   LEU59   TYR69   ALA70   MET71   LYS72   ILE73   LEU74   GLU91  
 LEU95   VAL104  LYS105  MET118  VAL119  MET120  GLU121  TYR122  VAL123  PRO124 
 GLY125  GLY126  GLU127  MET128  PHE129  TYR164  ASP166  LEU167  LYS168  PRO169 
 GLU170  ASN171  LEU172  LEU173  ILE174  GLN181  VAL182  THR183  ASP184  PHE185 
 GLY186  PHE187  GLY200  THR201  ASN326  PHE327  TYR330  ARG18   ARG19   ASN20  
 ALA21   ILE22   HIS23  

>  <Gold.Protein.RotatedAtoms>  (80) 
   11.3146   19.4423    8.3439 H   0  0  0  0  0  0  0  0  0  0  0  0  # atno 641  bound_to 637 
   17.2110   13.7149    6.6927 H   0  0  0  0  0  0  0  0  0  0  0  0  # atno 681  bound_to 677 
   21.1142   11.5471   -1.0945 H   0  0  0  0  0  0  0  0  0  0  0  0  # atno 702  bound_to 698 
   -6.6603   17.0991   -1.0949 H   0  0  0  0  0  0  0  0  0  0  0  0  # atno 965  bound_to 957 
    1.3896   10.5425   10.5558 H   0  0  0  0  0  0  0  0  0  0  0  0  # atno 1886 bound_to 1878
   10.5451    3.3185   -3.3469 H   0  0  0  0  0  0  0  0  0  0  0  0  # atno 2577 bound_to 2569
    7.1580    5.7984    1.5173 H   0  0  0  0  0  0  0  0  0  0  0  0  # atno 2891 bound_to 2887
   18.2426    2.2880    0.2604 H   0  0  0  0  0  0  0  0  0  0  0  0  # atno 3175 bound_to 3171
   14.2617    9.9089   10.1183 H   0  0  0  0  0  0  0  0  0  0  0  0  # atno 5278 bound_to 5270
   16.2643   12.5534    6.1533 LP  0  0  0  0  0  0  0  0  0  0  0  0  # atno 5914 bound_to 677 
   15.7948   13.5089    7.3915 LP  0  0  0  0  0  0  0  0  0  0  0  0  # atno 5915 bound_to 677 
   19.8052   11.7792   -1.9721 LP  0  0  0  0  0  0  0  0  0  0  0  0  # atno 5920 bound_to 698 
   19.7272   11.7616   -0.3411 LP  0  0  0  0  0  0  0  0  0  0  0  0  # atno 5921 bound_to 698 
   10.7268    2.0351   -2.4221 LP  0  0  0  0  0  0  0  0  0  0  0  0  # atno 5950 bound_to 2569
    9.2406    2.5350   -2.8781 LP  0  0  0  0  0  0  0  0  0  0  0  0  # atno 5951 bound_to 2569
    8.0018    6.9707    0.8463 LP  0  0  0  0  0  0  0  0  0  0  0  0  # atno 5982 bound_to 2887
    8.1396    5.4317    0.3179 LP  0  0  0  0  0  0  0  0  0  0  0  0  # atno 5983 bound_to 2887
   18.2978    2.1432   -1.3244 LP  0  0  0  0  0  0  0  0  0  0  0  0  # atno 6000 bound_to 3171
   19.3918    3.0577   -0.5285 LP  0  0  0  0  0  0  0  0  0  0  0  0  # atno 6001 bound_to 3171
   13.6169   10.2350    8.6989 LP  0  0  0  0  0  0  0  0  0  0  0  0  # atno 6004 bound_to 5270
   12.6741    9.9065    9.9911 LP  0  0  0  0  0  0  0  0  0  0  0  0  # atno 6005 bound_to 5270
    9.7597   19.6756    8.5942 LP  0  0  0  0  0  0  0  0  0  0  0  0  # atno 6055 bound_to 637 
   10.2887   18.9497    7.2305 LP  0  0  0  0  0  0  0  0  0  0  0  0  # atno 6056 bound_to 637 
    0.7134   11.8772   11.1005 LP  0  0  0  0  0  0  0  0  0  0  0  0  # atno 6063 bound_to 1878
    2.2091   11.9033   10.4455 LP  0  0  0  0  0  0  0  0  0  0  0  0  # atno 6064 bound_to 1878
   -7.2081   16.1368    0.0492 LP  0  0  0  0  0  0  0  0  0  0  0  0  # atno 6067 bound_to 957 
   -6.5855   15.5264   -1.3316 LP  0  0  0  0  0  0  0  0  0  0  0  0  # atno 6068 bound_to 957 

>  <STRIFE_LigEff_Score>  (80) 
2.912805555555556

$$$$
unknown|pharmsElabsTestPreDocking|sdf|81|dock5
     RDKit          3D

 17 17  0  0  0  0  0  0  0  0999 V2000
    3.3321    8.6204    2.0420 C   0  0  0  0  0  0  0  0  0  0  0  0
    4.6081    9.0132    2.0466 C   0  0  0  0  0  0  0  0  0  0  0  0
    5.4472    9.2232    3.2517 C   0  0  0  0  0  0  0  0  0  0  0  0
    4.9045    9.7841    4.3596 C   0  0  0  0  0  0  0  0  0  0  0  0
    5.6767   10.1037    5.6032 C   0  0  0  0  0  0  0  0  0  0  0  0
    6.8727    8.9571    3.2244 N   0  0  0  0  0  0  0  0  0  0  0  0
    7.9085    9.2226    2.2492 C   0  0  0  0  0  0  0  0  0  0  0  0
    7.5720    9.8723    1.2259 O   0  0  0  0  0  0  0  0  0  0  0  0
    9.3788    8.9084    2.3037 C   0  0  0  0  0  0  0  0  0  0  0  0
    9.6969    7.4386    2.5204 C   0  0  0  0  0  0  0  0  0  0  0  0
   11.1569    7.0937    2.3105 C   0  0  0  0  0  0  0  0  0  0  0  0
   12.2003    8.1437    2.7056 C   0  0  0  0  0  0  0  0  0  0  0  0
   13.5686    7.9192    2.0156 C   0  0  0  0  0  0  0  0  0  0  0  0
   14.4865    9.1248    1.8126 C   0  0  0  0  0  0  0  0  0  0  0  0
   13.4626    7.0938    0.8115 N   0  0  0  0  0  0  0  0  0  0  0  0
   11.7785    9.6283    2.5764 C   0  0  0  0  0  0  0  0  0  0  0  0
   10.3158    9.9561    2.8444 C   0  0  0  0  0  0  0  0  0  0  0  0
  1  2  2  0
  2  3  1  0
  3  4  2  0
  4  5  1  0
  3  6  1  0
  6  7  1  0
  7  8  2  0
  7  9  1  0
  9 10  1  0
 10 11  1  0
 11 12  1  0
 12 13  1  0
 13 14  1  0
 13 15  1  0
 12 16  1  0
 16 17  1  0
 17  9  1  0
M  CHG  1  15   1
M  END
>  <EmbedRMS>  (81) 
0.29216731409503444

>  <Gold.Version>  (81) 
2020.3.0

>  <Gold.Id.Protein>  (81) 
unknown|1q8t_protein|pdb

>  <Gold.PLP.Fitness>  (81) 
45.0536

>  <Gold.PLP.PLP>  (81) 
-39.2404

>  <Gold.PLP.part.hbond>  (81) 
-1.8807

>  <Gold.PLP.part.metal>  (81) 
0.0000

>  <Gold.PLP.part.buried>  (81) 
-0.9387

>  <Gold.PLP.part.nonpolar>  (81) 
-36.0932

>  <Gold.PLP.part.repulsive>  (81) 
0.0535

>  <Gold.PLP.ligand.clash>  (81) 
0.0000

>  <Gold.PLP.ligand.torsion>  (81) 
2.0554

>  <Gold.PLP.Chemscore.Hbond>  (81) 
3.0000

>  <Gold.PLP.Chemscore.CHOScore>  (81) 
0.0000

>  <Gold.PLP.Chemscore.Metal>  (81) 
0.0000

>  <Gold.Chemscore.Hbonds>  (81) 
donor molecule, donor type, donor heavy atom, donor atom, acceptor molecule, acceptor atom, score
      L1  H    15    36       P1  2902  2.00
      L1  H    15    37       P1  2691  1.00

>  <Gold.PLP.Chemscore.Internal.Correction>  (81) 
0.9239

>  <Gold.PLP.Constraint>  (81) 
-0.0000

>  <Gold.Protein.RotatedTorsions>  (81) 
[  681  677  676  673 ] final -105.66 input -179.99 | X-H torsion
[  702  698  697  694 ] final  -53.92 input  179.99 | X-H torsion
[ 2577 2569 2568 2566 ] final   75.14 input   -0.13 | X-H torsion
[ 2891 2887 2886 2883 ] final   80.76 input  179.98 | X-H torsion
[ 3175 3171 3170 3167 ] final  150.92 input -179.99 | X-H torsion
[ 5278 5270 5269 5267 ] final  -95.30 input    0.55 | X-H torsion
[  641  637  636  633 ] final -139.66 input  179.99 | X-H torsion
[ 1886 1878 1877 1875 ] final -135.89 input    1.60 | X-H torsion
[  965  957  956  954 ] final   89.14 input    0.45 | X-H torsion

>  <Gold.Protein.ActiveResidues>  (81) 
 LYS47   THR48   LEU49   GLY50   THR51   GLY52   SER53   PHE54   GLY55   ARG56  
 VAL57   MET58   LEU59   TYR69   ALA70   MET71   LYS72   ILE73   LEU74   GLU91  
 LEU95   VAL104  LYS105  MET118  VAL119  MET120  GLU121  TYR122  VAL123  PRO124 
 GLY125  GLY126  GLU127  MET128  PHE129  TYR164  ASP166  LEU167  LYS168  PRO169 
 GLU170  ASN171  LEU172  LEU173  ILE174  GLN181  VAL182  THR183  ASP184  PHE185 
 GLY186  PHE187  GLY200  THR201  ASN326  PHE327  TYR330  ARG18   ARG19   ASN20  
 ALA21   ILE22   HIS23  

>  <Gold.Protein.RotatedAtoms>  (81) 
   11.2354   19.1042    7.6731 H   0  0  0  0  0  0  0  0  0  0  0  0  # atno 641  bound_to 637 
   16.0100   13.6882    7.4103 H   0  0  0  0  0  0  0  0  0  0  0  0  # atno 681  bound_to 677 
   20.1904   11.6944   -0.2398 H   0  0  0  0  0  0  0  0  0  0  0  0  # atno 702  bound_to 698 
   -7.1646   16.0285   -0.0091 H   0  0  0  0  0  0  0  0  0  0  0  0  # atno 965  bound_to 957 
    0.7430   10.8966   10.9012 H   0  0  0  0  0  0  0  0  0  0  0  0  # atno 1886 bound_to 1878
    9.3071    2.4399   -2.8276 H   0  0  0  0  0  0  0  0  0  0  0  0  # atno 2577 bound_to 2569
    8.2868    6.5743    0.3958 H   0  0  0  0  0  0  0  0  0  0  0  0  # atno 2891 bound_to 2887
   17.9589    2.0214   -0.1705 H   0  0  0  0  0  0  0  0  0  0  0  0  # atno 3175 bound_to 3171
   13.8389    9.8271   10.4316 H   0  0  0  0  0  0  0  0  0  0  0  0  # atno 5278 bound_to 5270
   17.3021   13.5423    6.4909 LP  0  0  0  0  0  0  0  0  0  0  0  0  # atno 5914 bound_to 677 
   16.0211   12.5480    6.2987 LP  0  0  0  0  0  0  0  0  0  0  0  0  # atno 5915 bound_to 677 
   21.0551   11.5499   -1.5698 LP  0  0  0  0  0  0  0  0  0  0  0  0  # atno 5920 bound_to 698 
   19.4490   11.8360   -1.6425 LP  0  0  0  0  0  0  0  0  0  0  0  0  # atno 5921 bound_to 698 
   10.4521    3.3948   -3.3863 LP  0  0  0  0  0  0  0  0  0  0  0  0  # atno 5950 bound_to 2569
   10.8188    2.1004   -2.4607 LP  0  0  0  0  0  0  0  0  0  0  0  0  # atno 5951 bound_to 2569
    7.7063    5.1338    0.7485 LP  0  0  0  0  0  0  0  0  0  0  0  0  # atno 5982 bound_to 2887
    7.2472    6.4520    1.5961 LP  0  0  0  0  0  0  0  0  0  0  0  0  # atno 5983 bound_to 2887
   18.7864    2.4889   -1.4481 LP  0  0  0  0  0  0  0  0  0  0  0  0  # atno 6000 bound_to 3171
   19.2017    2.9925    0.0487 LP  0  0  0  0  0  0  0  0  0  0  0  0  # atno 6001 bound_to 3171
   14.1345   10.1886    8.9089 LP  0  0  0  0  0  0  0  0  0  0  0  0  # atno 6004 bound_to 5270
   12.6015   10.0388    9.4514 LP  0  0  0  0  0  0  0  0  0  0  0  0  # atno 6005 bound_to 5270
   10.4855   19.7905    8.8986 LP  0  0  0  0  0  0  0  0  0  0  0  0  # atno 6055 bound_to 637 
    9.6462   19.1909    7.6326 LP  0  0  0  0  0  0  0  0  0  0  0  0  # atno 6056 bound_to 637 
    1.3942   12.3494   10.8809 LP  0  0  0  0  0  0  0  0  0  0  0  0  # atno 6063 bound_to 1878
    2.2090   11.0584   10.3014 LP  0  0  0  0  0  0  0  0  0  0  0  0  # atno 6064 bound_to 1878
   -6.5466   15.6089   -1.4152 LP  0  0  0  0  0  0  0  0  0  0  0  0  # atno 6067 bound_to 957 
   -6.7157   17.1819   -1.0107 LP  0  0  0  0  0  0  0  0  0  0  0  0  # atno 6068 bound_to 957 

>  <STRIFE_LigEff_Score>  (81) 
2.6502117647058827

$$$$
unknown|pharmsElabsTestPreDocking|sdf|82|dock3
     RDKit          3D

 17 17  0  0  0  0  0  0  0  0999 V2000
    4.3987    9.2659    1.5632 C   0  0  0  0  0  0  0  0  0  0  0  0
    4.7250    9.2254    2.8566 C   0  0  0  0  0  0  0  0  0  0  0  0
    6.1101    9.0840    3.2130 N   0  0  0  0  0  0  0  0  0  0  0  0
    7.2124    9.3294    2.3332 C   0  0  0  0  0  0  0  0  0  0  0  0
    7.0453    9.9466    1.2443 O   0  0  0  0  0  0  0  0  0  0  0  0
    8.5805    8.8668    2.7463 C   0  0  0  0  0  0  0  0  0  0  0  0
    9.0891    7.7855    1.7886 C   0  0  0  0  0  0  0  0  0  0  0  0
   10.4649    7.3006    2.2264 C   0  0  0  0  0  0  0  0  0  0  0  0
   11.4680    8.4729    2.2284 C   0  0  0  0  0  0  0  0  0  0  0  0
   12.9046    7.9438    2.5164 C   0  0  0  0  0  0  0  0  0  0  0  0
   12.9086    7.0937    3.8023 C   0  0  0  0  0  0  0  0  0  0  0  0
   13.4325    7.1399    1.4065 N   0  0  0  0  0  0  0  0  0  0  0  0
   10.9756    9.5571    3.2193 C   0  0  0  0  0  0  0  0  0  0  0  0
    9.5658   10.0442    2.8422 C   0  0  0  0  0  0  0  0  0  0  0  0
    3.6693    9.4815    3.8761 C   0  0  0  0  0  0  0  0  0  0  0  0
    4.0233    9.7987    5.2982 C   0  0  0  0  0  0  0  0  0  0  0  0
    2.4142    9.5022    3.5441 N   0  0  0  0  0  0  0  0  0  0  0  0
  1  2  2  0
  2  3  1  0
  3  4  1  0
  4  5  2  0
  4  6  1  0
  6  7  1  0
  7  8  1  0
  8  9  1  0
  9 10  1  0
 10 11  1  0
 10 12  1  0
  9 13  1  0
 13 14  1  0
  2 15  1  0
 15 16  1  0
 15 17  2  0
 14  6  1  0
M  CHG  1  12   1
M  END
>  <EmbedRMS>  (82) 
0.033034174538590914

>  <Gold.Version>  (82) 
2020.3.0

>  <Gold.Id.Protein>  (82) 
unknown|1q8t_protein|pdb

>  <Gold.PLP.Fitness>  (82) 
54.3998

>  <Gold.PLP.PLP>  (82) 
-42.1381

>  <Gold.PLP.part.hbond>  (82) 
-3.9720

>  <Gold.PLP.part.metal>  (82) 
0.0000

>  <Gold.PLP.part.buried>  (82) 
-0.7282

>  <Gold.PLP.part.nonpolar>  (82) 
-38.2707

>  <Gold.PLP.part.repulsive>  (82) 
0.0308

>  <Gold.PLP.ligand.clash>  (82) 
0.0000

>  <Gold.PLP.ligand.torsion>  (82) 
0.2805

>  <Gold.PLP.Chemscore.Hbond>  (82) 
4.1795

>  <Gold.PLP.Chemscore.CHOScore>  (82) 
0.0000

>  <Gold.PLP.Chemscore.Metal>  (82) 
0.0000

>  <Gold.Chemscore.Hbonds>  (82) 
donor molecule, donor type, donor heavy atom, donor atom, acceptor molecule, acceptor atom, score
      L1  H    12    32       P1  2691  1.00
      L1  H    12    33       P1  2902  2.00
      L1  H    17    41       P1  1855  0.48
      P1  H  1888  1903       L1    17  0.70

>  <Gold.PLP.Chemscore.Internal.Correction>  (82) 
0.2841

>  <Gold.PLP.Constraint>  (82) 
-0.0000

>  <Gold.Protein.RotatedTorsions>  (82) 
[  681  677  676  673 ] final  -25.59 input -179.99 | X-H torsion
[  702  698  697  694 ] final   93.89 input  179.99 | X-H torsion
[ 2577 2569 2568 2566 ] final  -89.31 input   -0.13 | X-H torsion
[ 2891 2887 2886 2883 ] final   48.28 input  179.98 | X-H torsion
[ 3175 3171 3170 3167 ] final  -49.63 input -179.99 | X-H torsion
[ 5278 5270 5269 5267 ] final -130.66 input    0.55 | X-H torsion
[  641  637  636  633 ] final -165.47 input  179.99 | X-H torsion
[ 1886 1878 1877 1875 ] final  -69.11 input    1.60 | X-H torsion
[  965  957  956  954 ] final   27.79 input    0.45 | X-H torsion

>  <Gold.Protein.ActiveResidues>  (82) 
 LYS47   THR48   LEU49   GLY50   THR51   GLY52   SER53   PHE54   GLY55   ARG56  
 VAL57   MET58   LEU59   TYR69   ALA70   MET71   LYS72   ILE73   LEU74   GLU91  
 LEU95   VAL104  LYS105  MET118  VAL119  MET120  GLU121  TYR122  VAL123  PRO124 
 GLY125  GLY126  GLU127  MET128  PHE129  TYR164  ASP166  LEU167  LYS168  PRO169 
 GLU170  ASN171  LEU172  LEU173  ILE174  GLN181  VAL182  THR183  ASP184  PHE185 
 GLY186  PHE187  GLY200  THR201  ASN326  PHE327  TYR330  ARG18   ARG19   ASN20  
 ALA21   ILE22   HIS23  

>  <Gold.Protein.RotatedAtoms>  (82) 
   11.3593   19.2716    8.0145 H   0  0  0  0  0  0  0  0  0  0  0  0  # atno 641  bound_to 637 
   15.6675   12.8081    6.7499 H   0  0  0  0  0  0  0  0  0  0  0  0  # atno 681  bound_to 677 
   19.7989   11.7961   -1.9139 H   0  0  0  0  0  0  0  0  0  0  0  0  # atno 702  bound_to 698 
   -6.8963   15.3967   -0.6119 H   0  0  0  0  0  0  0  0  0  0  0  0  # atno 965  bound_to 957 
    1.5711   10.5674   10.4800 H   0  0  0  0  0  0  0  0  0  0  0  0  # atno 1886 bound_to 1878
   10.9631    3.0138   -3.1047 H   0  0  0  0  0  0  0  0  0  0  0  0  # atno 2577 bound_to 2569
    8.3378    6.1062    0.2246 H   0  0  0  0  0  0  0  0  0  0  0  0  # atno 2891 bound_to 2887
   19.3653    3.0133   -0.5514 H   0  0  0  0  0  0  0  0  0  0  0  0  # atno 3175 bound_to 3171
   14.2688    9.9113   10.1085 H   0  0  0  0  0  0  0  0  0  0  0  0  # atno 5278 bound_to 5270
   16.5729   13.9660    7.3627 LP  0  0  0  0  0  0  0  0  0  0  0  0  # atno 5914 bound_to 677 
   17.1107   13.0506    6.1219 LP  0  0  0  0  0  0  0  0  0  0  0  0  # atno 5915 bound_to 677 
   19.7579   11.7558   -0.3220 LP  0  0  0  0  0  0  0  0  0  0  0  0  # atno 5920 bound_to 698 
   21.1581   11.5231   -1.1294 LP  0  0  0  0  0  0  0  0  0  0  0  0  # atno 5921 bound_to 698 
   10.1532    1.8698   -2.3493 LP  0  0  0  0  0  0  0  0  0  0  0  0  # atno 5950 bound_to 2569
    9.3741    3.0212   -3.2059 LP  0  0  0  0  0  0  0  0  0  0  0  0  # atno 5951 bound_to 2569
    7.3799    5.2335    1.1504 LP  0  0  0  0  0  0  0  0  0  0  0  0  # atno 5982 bound_to 2887
    7.5199    6.8450    1.3743 LP  0  0  0  0  0  0  0  0  0  0  0  0  # atno 5983 bound_to 2887
   18.2292    2.3067    0.3120 LP  0  0  0  0  0  0  0  0  0  0  0  0  # atno 6000 bound_to 3171
   18.2788    2.1309   -1.3107 LP  0  0  0  0  0  0  0  0  0  0  0  0  # atno 6001 bound_to 3171
   13.6041   10.2352    8.6978 LP  0  0  0  0  0  0  0  0  0  0  0  0  # atno 6004 bound_to 5270
   12.6796    9.9037   10.0024 LP  0  0  0  0  0  0  0  0  0  0  0  0  # atno 6005 bound_to 5270
   10.0741   19.7691    8.8117 LP  0  0  0  0  0  0  0  0  0  0  0  0  # atno 6055 bound_to 637 
    9.9272   19.0360    7.3599 LP  0  0  0  0  0  0  0  0  0  0  0  0  # atno 6056 bound_to 637 
    0.6277   11.6870   11.1058 LP  0  0  0  0  0  0  0  0  0  0  0  0  # atno 6063 bound_to 1878
    2.1037   12.0673   10.5199 LP  0  0  0  0  0  0  0  0  0  0  0  0  # atno 6064 bound_to 1878
   -6.4445   16.5432   -1.6201 LP  0  0  0  0  0  0  0  0  0  0  0  0  # atno 6067 bound_to 957 
   -7.1004   16.9130   -0.1710 LP  0  0  0  0  0  0  0  0  0  0  0  0  # atno 6068 bound_to 957 

>  <STRIFE_LigEff_Score>  (82) 
3.199988235294118

$$$$
unknown|pharmsElabsTestPreDocking|sdf|83|dock10
     RDKit          3D

 18 19  0  0  0  0  0  0  0  0999 V2000
   13.9227    9.3492    1.5874 C   0  0  0  0  0  0  0  0  0  0  0  0
   13.1546    8.1053    2.0310 C   0  0  0  0  0  0  0  0  0  0  0  0
   13.0683    7.1008    0.9688 N   0  0  0  0  0  0  0  0  0  0  0  0
   11.8112    8.2951    2.7783 C   0  0  0  0  0  0  0  0  0  0  0  0
   10.7917    7.1783    2.5098 C   0  0  0  0  0  0  0  0  0  0  0  0
    9.3371    7.4998    2.8166 C   0  0  0  0  0  0  0  0  0  0  0  0
    8.9478    8.8965    2.4007 C   0  0  0  0  0  0  0  0  0  0  0  0
    7.4654    9.1443    2.3881 C   0  0  0  0  0  0  0  0  0  0  0  0
    7.0222    9.5865    1.3017 O   0  0  0  0  0  0  0  0  0  0  0  0
    6.5589    8.9520    3.4935 N   0  0  0  0  0  0  0  0  0  0  0  0
    5.1248    9.0739    3.3284 C   0  0  0  0  0  0  0  0  0  0  0  0
    4.4361    8.9015    2.1432 C   0  0  0  0  0  0  0  0  0  0  0  0
    3.1151    9.1592    2.4728 C   0  0  0  0  0  0  0  0  0  0  0  0
    3.0267    9.4874    3.7773 N   0  0  0  0  0  0  0  0  0  0  0  0
    4.2463    9.4433    4.2910 N   0  0  0  0  0  0  0  0  0  0  0  0
    4.5318    9.8562    5.6614 C   0  0  0  0  0  0  0  0  0  0  0  0
    9.8269   10.0120    2.8928 C   0  0  0  0  0  0  0  0  0  0  0  0
   11.3050    9.7522    2.6106 C   0  0  0  0  0  0  0  0  0  0  0  0
  1  2  1  0
  2  3  1  0
  2  4  1  0
  4  5  1  0
  5  6  1  0
  6  7  1  0
  7  8  1  0
  8  9  2  0
  8 10  1  0
 10 11  1  0
 11 12  2  0
 12 13  1  0
 13 14  2  0
 14 15  1  0
 15 16  1  0
  7 17  1  0
 17 18  1  0
 18  4  1  0
 15 11  1  0
M  CHG  1   3   1
M  END
>  <EmbedRMS>  (83) 
0.2930144483433324

>  <Gold.Version>  (83) 
2020.3.0

>  <Gold.Id.Protein>  (83) 
unknown|1q8t_protein|pdb

>  <Gold.PLP.Fitness>  (83) 
54.2532

>  <Gold.PLP.PLP>  (83) 
-43.2195

>  <Gold.PLP.part.hbond>  (83) 
-2.6156

>  <Gold.PLP.part.metal>  (83) 
0.0000

>  <Gold.PLP.part.buried>  (83) 
-2.5931

>  <Gold.PLP.part.nonpolar>  (83) 
-38.9919

>  <Gold.PLP.part.repulsive>  (83) 
0.1838

>  <Gold.PLP.ligand.clash>  (83) 
0.0000

>  <Gold.PLP.ligand.torsion>  (83) 
1.7576

>  <Gold.PLP.Chemscore.Hbond>  (83) 
3.5915

>  <Gold.PLP.Chemscore.CHOScore>  (83) 
1.0000

>  <Gold.PLP.Chemscore.Metal>  (83) 
0.0000

>  <Gold.Chemscore.Hbonds>  (83) 
donor molecule, donor type, donor heavy atom, donor atom, acceptor molecule, acceptor atom, score
      L1  H     3    23       P1  2691  0.64
      L1  H     3    25       P1  2902  1.98
      P1  H  1888  1903       L1    14  0.97
      L1  C    13    34       P1  1855  1.00

>  <Gold.PLP.Chemscore.Internal.Correction>  (83) 
0.7744

>  <Gold.PLP.Constraint>  (83) 
-0.0000

>  <Gold.Protein.RotatedTorsions>  (83) 
[  681  677  676  673 ] final  -64.99 input -179.99 | X-H torsion
[  702  698  697  694 ] final -149.05 input  179.99 | X-H torsion
[ 2577 2569 2568 2566 ] final  -50.14 input   -0.13 | X-H torsion
[ 2891 2887 2886 2883 ] final -168.62 input  179.98 | X-H torsion
[ 3175 3171 3170 3167 ] final -145.03 input -179.99 | X-H torsion
[ 5278 5270 5269 5267 ] final   92.85 input    0.55 | X-H torsion
[  641  637  636  633 ] final  138.68 input  179.99 | X-H torsion
[ 1886 1878 1877 1875 ] final  -80.47 input    1.60 | X-H torsion
[  965  957  956  954 ] final  172.52 input    0.45 | X-H torsion

>  <Gold.Protein.ActiveResidues>  (83) 
 LYS47   THR48   LEU49   GLY50   THR51   GLY52   SER53   PHE54   GLY55   ARG56  
 VAL57   MET58   LEU59   TYR69   ALA70   MET71   LYS72   ILE73   LEU74   GLU91  
 LEU95   VAL104  LYS105  MET118  VAL119  MET120  GLU121  TYR122  VAL123  PRO124 
 GLY125  GLY126  GLU127  MET128  PHE129  TYR164  ASP166  LEU167  LYS168  PRO169 
 GLU170  ASN171  LEU172  LEU173  ILE174  GLN181  VAL182  THR183  ASP184  PHE185 
 GLY186  PHE187  GLY200  THR201  ASN326  PHE327  TYR330  ARG18   ARG19   ASN20  
 ALA21   ILE22   HIS23  

>  <Gold.Protein.RotatedAtoms>  (83) 
   11.0353   19.6377    8.6958 H   0  0  0  0  0  0  0  0  0  0  0  0  # atno 641  bound_to 637 
   15.6541   13.2326    7.1791 H   0  0  0  0  0  0  0  0  0  0  0  0  # atno 681  bound_to 677 
   21.1145   11.5486   -1.1753 H   0  0  0  0  0  0  0  0  0  0  0  0  # atno 702  bound_to 698 
   -6.9390   17.0977   -0.4825 H   0  0  0  0  0  0  0  0  0  0  0  0  # atno 965  bound_to 957 
    1.4089   10.5431   10.5474 H   0  0  0  0  0  0  0  0  0  0  0  0  # atno 1886 bound_to 1878
   10.5168    3.3275   -3.3552 H   0  0  0  0  0  0  0  0  0  0  0  0  # atno 2577 bound_to 2569
    7.3225    6.5611    1.5095 H   0  0  0  0  0  0  0  0  0  0  0  0  # atno 2891 bound_to 2887
   18.5489    2.5297    0.3734 H   0  0  0  0  0  0  0  0  0  0  0  0  # atno 3175 bound_to 3171
   13.3439   10.2336    8.7628 H   0  0  0  0  0  0  0  0  0  0  0  0  # atno 5278 bound_to 5270
   17.0836   13.9081    6.9889 LP  0  0  0  0  0  0  0  0  0  0  0  0  # atno 5914 bound_to 677 
   16.6142   12.6617    6.0440 LP  0  0  0  0  0  0  0  0  0  0  0  0  # atno 5915 bound_to 677 
   19.7327   11.7913   -1.9297 LP  0  0  0  0  0  0  0  0  0  0  0  0  # atno 5920 bound_to 698 
   19.7995   11.7480   -0.2986 LP  0  0  0  0  0  0  0  0  0  0  0  0  # atno 5921 bound_to 698 
   10.7528    2.0520   -2.4319 LP  0  0  0  0  0  0  0  0  0  0  0  0  # atno 5950 bound_to 2569
    9.2444    2.5086   -2.8595 LP  0  0  0  0  0  0  0  0  0  0  0  0  # atno 5951 bound_to 2569
    8.3629    6.4673    0.3074 LP  0  0  0  0  0  0  0  0  0  0  0  0  # atno 5982 bound_to 2887
    7.6054    5.1324    0.8650 LP  0  0  0  0  0  0  0  0  0  0  0  0  # atno 5983 bound_to 2887
   18.0313    1.9843   -1.0303 LP  0  0  0  0  0  0  0  0  0  0  0  0  # atno 6000 bound_to 3171
   19.3360    2.9623   -0.9415 LP  0  0  0  0  0  0  0  0  0  0  0  0  # atno 6001 bound_to 3171
   12.8298    9.8514   10.2209 LP  0  0  0  0  0  0  0  0  0  0  0  0  # atno 6004 bound_to 5270
   14.4270    9.9484    9.8952 LP  0  0  0  0  0  0  0  0  0  0  0  0  # atno 6005 bound_to 5270
    9.5403   19.4730    8.1735 LP  0  0  0  0  0  0  0  0  0  0  0  0  # atno 6055 bound_to 637 
   10.8021   18.9466    7.2806 LP  0  0  0  0  0  0  0  0  0  0  0  0  # atno 6056 bound_to 637 
    0.7026   11.8580   11.1020 LP  0  0  0  0  0  0  0  0  0  0  0  0  # atno 6063 bound_to 1878
    2.1996   11.9219   10.4529 LP  0  0  0  0  0  0  0  0  0  0  0  0  # atno 6064 bound_to 1878
   -7.0656   15.5240   -0.2767 LP  0  0  0  0  0  0  0  0  0  0  0  0  # atno 6067 bound_to 957 
   -6.4344   16.1407   -1.6507 LP  0  0  0  0  0  0  0  0  0  0  0  0  # atno 6068 bound_to 957 

>  <STRIFE_LigEff_Score>  (83) 
3.0140666666666664

$$$$
unknown|pharmsElabsTestPreDocking|sdf|84|dock6
     RDKit          3D

 16 16  0  0  0  0  0  0  0  0999 V2000
   13.9467    8.0019    3.3740 C   0  0  0  0  0  0  0  0  0  0  0  0
   12.6747    7.7663    2.5599 C   0  0  0  0  0  0  0  0  0  0  0  0
   12.6251    8.6568    1.3922 N   0  0  0  0  0  0  0  0  0  0  0  0
   11.3299    7.7138    3.3118 C   0  0  0  0  0  0  0  0  0  0  0  0
   10.1511    6.8931    2.7231 C   0  0  0  0  0  0  0  0  0  0  0  0
    8.8666    7.6717    2.4736 C   0  0  0  0  0  0  0  0  0  0  0  0
    8.5217    8.5790    3.6527 C   0  0  0  0  0  0  0  0  0  0  0  0
    7.1767    9.2266    3.4473 C   0  0  0  0  0  0  0  0  0  0  0  0
    6.7545   10.0888    4.2685 O   0  0  0  0  0  0  0  0  0  0  0  0
    6.3723    8.8406    2.3242 N   0  0  0  0  0  0  0  0  0  0  0  0
    5.0691    9.3764    2.0713 C   0  0  0  0  0  0  0  0  0  0  0  0
    4.1499    9.5913    3.0239 C   0  0  0  0  0  0  0  0  0  0  0  0
    4.3030    9.2203    4.4026 N   0  0  0  0  0  0  0  0  0  0  0  0
    3.3124    9.4654    5.3673 N   0  0  0  0  0  0  0  0  0  0  0  0
    9.6051    9.6433    3.7949 C   0  0  0  0  0  0  0  0  0  0  0  0
   10.9811    9.0359    4.0607 C   0  0  0  0  0  0  0  0  0  0  0  0
  1  2  1  0
  2  3  1  0
  2  4  1  0
  4  5  1  0
  5  6  1  0
  6  7  1  0
  7  8  1  0
  8  9  2  0
  8 10  1  0
 10 11  1  0
 11 12  2  0
 12 13  1  0
 13 14  1  0
  7 15  1  0
 15 16  1  0
 16  4  1  0
M  CHG  1   3   1
M  END
>  <EmbedRMS>  (84) 
0.2141533042732473

>  <Gold.Version>  (84) 
2020.3.0

>  <Gold.Id.Protein>  (84) 
unknown|1q8t_protein|pdb

>  <Gold.PLP.Fitness>  (84) 
39.5858

>  <Gold.PLP.PLP>  (84) 
-31.4795

>  <Gold.PLP.part.hbond>  (84) 
-3.0800

>  <Gold.PLP.part.metal>  (84) 
0.0000

>  <Gold.PLP.part.buried>  (84) 
-2.3397

>  <Gold.PLP.part.nonpolar>  (84) 
-26.4604

>  <Gold.PLP.part.repulsive>  (84) 
0.0547

>  <Gold.PLP.ligand.clash>  (84) 
0.0000

>  <Gold.PLP.ligand.torsion>  (84) 
0.4808

>  <Gold.PLP.Chemscore.Hbond>  (84) 
2.8933

>  <Gold.PLP.Chemscore.CHOScore>  (84) 
0.0000

>  <Gold.PLP.Chemscore.Metal>  (84) 
0.0000

>  <Gold.Chemscore.Hbonds>  (84) 
donor molecule, donor type, donor heavy atom, donor atom, acceptor molecule, acceptor atom, score
      L1  H     3    21       P1  2902  2.00
      L1  H    10    30       P1  2887  0.01
      L1  H    14    34       P1  1891  0.88

>  <Gold.PLP.Chemscore.Internal.Correction>  (84) 
0.3877

>  <Gold.PLP.Constraint>  (84) 
-0.0000

>  <Gold.Protein.RotatedTorsions>  (84) 
[  681  677  676  673 ] final  -53.89 input -179.99 | X-H torsion
[  702  698  697  694 ] final   96.90 input  179.99 | X-H torsion
[ 2577 2569 2568 2566 ] final   48.19 input   -0.13 | X-H torsion
[ 2891 2887 2886 2883 ] final  -97.84 input  179.98 | X-H torsion
[ 3175 3171 3170 3167 ] final   84.04 input -179.99 | X-H torsion
[ 5278 5270 5269 5267 ] final  -67.77 input    0.55 | X-H torsion
[  641  637  636  633 ] final   68.11 input  179.99 | X-H torsion
[ 1886 1878 1877 1875 ] final  178.19 input    1.60 | X-H torsion
[  965  957  956  954 ] final  -35.32 input    0.45 | X-H torsion

>  <Gold.Protein.ActiveResidues>  (84) 
 LYS47   THR48   LEU49   GLY50   THR51   GLY52   SER53   PHE54   GLY55   ARG56  
 VAL57   MET58   LEU59   TYR69   ALA70   MET71   LYS72   ILE73   LEU74   GLU91  
 LEU95   VAL104  LYS105  MET118  VAL119  MET120  GLU121  TYR122  VAL123  PRO124 
 GLY125  GLY126  GLU127  MET128  PHE129  TYR164  ASP166  LEU167  LYS168  PRO169 
 GLU170  ASN171  LEU172  LEU173  ILE174  GLN181  VAL182  THR183  ASP184  PHE185 
 GLY186  PHE187  GLY200  THR201  ASN326  PHE327  TYR330  ARG18   ARG19   ASN20  
 ALA21   ILE22   HIS23  

>  <Gold.Protein.RotatedAtoms>  (84) 
   10.0048   19.7164    8.7373 H   0  0  0  0  0  0  0  0  0  0  0  0  # atno 641  bound_to 637 
   15.6191   13.1018    7.0712 H   0  0  0  0  0  0  0  0  0  0  0  0  # atno 681  bound_to 677 
   19.8399   11.7892   -1.9361 H   0  0  0  0  0  0  0  0  0  0  0  0  # atno 702  bound_to 698 
   -6.5258   15.6935   -1.4198 H   0  0  0  0  0  0  0  0  0  0  0  0  # atno 965  bound_to 957 
    0.6317   11.5667   11.0646 H   0  0  0  0  0  0  0  0  0  0  0  0  # atno 1886 bound_to 1878
    9.3105    2.7828   -3.0654 H   0  0  0  0  0  0  0  0  0  0  0  0  # atno 2577 bound_to 2569
    7.2155    5.5361    1.3879 H   0  0  0  0  0  0  0  0  0  0  0  0  # atno 2891 bound_to 2887
   18.1655    2.0481   -1.1356 H   0  0  0  0  0  0  0  0  0  0  0  0  # atno 3175 bound_to 3171
   13.4152    9.8116   10.4767 H   0  0  0  0  0  0  0  0  0  0  0  0  # atno 5278 bound_to 5270
   16.9612   13.9580    7.1142 LP  0  0  0  0  0  0  0  0  0  0  0  0  # atno 5914 bound_to 677 
   16.7735   12.7494    6.0323 LP  0  0  0  0  0  0  0  0  0  0  0  0  # atno 5915 bound_to 677 
   19.7165   11.7636   -0.3482 LP  0  0  0  0  0  0  0  0  0  0  0  0  # atno 5920 bound_to 698 
   21.1564   11.5225   -1.0798 LP  0  0  0  0  0  0  0  0  0  0  0  0  # atno 5921 bound_to 698 
   10.8301    3.2247   -3.2406 LP  0  0  0  0  0  0  0  0  0  0  0  0  # atno 5950 bound_to 2569
   10.4372    1.9095   -2.3561 LP  0  0  0  0  0  0  0  0  0  0  0  0  # atno 5951 bound_to 2569
    7.7990    6.9867    1.0850 LP  0  0  0  0  0  0  0  0  0  0  0  0  # atno 5982 bound_to 2887
    8.2819    5.6917    0.2153 LP  0  0  0  0  0  0  0  0  0  0  0  0  # atno 5983 bound_to 2887
   19.3782    3.0153   -0.7754 LP  0  0  0  0  0  0  0  0  0  0  0  0  # atno 6000 bound_to 3171
   18.3925    2.4380    0.3916 LP  0  0  0  0  0  0  0  0  0  0  0  0  # atno 6001 bound_to 3171
   14.4006   10.1048    9.2601 LP  0  0  0  0  0  0  0  0  0  0  0  0  # atno 6004 bound_to 5270
   12.7812   10.1390    9.0527 LP  0  0  0  0  0  0  0  0  0  0  0  0  # atno 6005 bound_to 5270
   10.0167   19.0066    7.3121 LP  0  0  0  0  0  0  0  0  0  0  0  0  # atno 6055 bound_to 637 
   11.4110   19.3301    8.0983 LP  0  0  0  0  0  0  0  0  0  0  0  0  # atno 6056 bound_to 637 
    2.0281   12.1478   10.5670 LP  0  0  0  0  0  0  0  0  0  0  0  0  # atno 6063 bound_to 1878
    1.6923   10.5546   10.4433 LP  0  0  0  0  0  0  0  0  0  0  0  0  # atno 6064 bound_to 1878
   -6.7453   17.1974   -0.9453 LP  0  0  0  0  0  0  0  0  0  0  0  0  # atno 6067 bound_to 957 
   -7.1898   15.9461    0.0051 LP  0  0  0  0  0  0  0  0  0  0  0  0  # atno 6068 bound_to 957 

>  <STRIFE_LigEff_Score>  (84) 
2.4741125

$$$$
unknown|pharmsElabsTestPreDocking|sdf|85|dock8
     RDKit          3D

 19 20  0  0  0  0  0  0  0  0999 V2000
   13.8667    7.3128    2.9662 C   0  0  0  0  0  0  0  0  0  0  0  0
   13.6660    8.6586    2.2461 C   0  0  0  0  0  0  0  0  0  0  0  0
   14.2863    8.5917    0.9157 N   0  0  0  0  0  0  0  0  0  0  0  0
   12.1455    9.0233    2.1806 C   0  0  0  0  0  0  0  0  0  0  0  0
   11.3977    7.9227    1.4058 C   0  0  0  0  0  0  0  0  0  0  0  0
    9.9194    8.2244    1.1871 C   0  0  0  0  0  0  0  0  0  0  0  0
    9.3057    9.1329    2.2415 C   0  0  0  0  0  0  0  0  0  0  0  0
    7.8094    9.2187    2.1651 C   0  0  0  0  0  0  0  0  0  0  0  0
    7.2041    8.1635    2.4761 O   0  0  0  0  0  0  0  0  0  0  0  0
    7.0409   10.3710    1.7754 N   0  0  0  0  0  0  0  0  0  0  0  0
    5.5819   10.2237    1.6528 C   0  0  0  0  0  0  0  0  0  0  0  0
    4.9217   10.0229    2.9826 C   0  0  0  0  0  0  0  0  0  0  0  0
    5.6746   10.0627    4.1634 C   0  0  0  0  0  0  0  0  0  0  0  0
    5.0444    9.8895    5.3959 C   0  0  0  0  0  0  0  0  0  0  0  0
    3.6643    9.6799    5.4345 C   0  0  0  0  0  0  0  0  0  0  0  0
    2.9474    9.6430    4.2797 N   0  0  0  0  0  0  0  0  0  0  0  0
    3.5388    9.8085    3.0669 C   0  0  0  0  0  0  0  0  0  0  0  0
    9.9646    9.3289    3.5935 C   0  0  0  0  0  0  0  0  0  0  0  0
   11.5022    9.1794    3.5823 C   0  0  0  0  0  0  0  0  0  0  0  0
  1  2  1  0
  2  3  1  0
  2  4  1  0
  4  5  1  0
  5  6  1  0
  6  7  1  0
  7  8  1  0
  8  9  2  0
  8 10  1  0
 10 11  1  0
 11 12  1  0
 12 13  2  0
 13 14  1  0
 14 15  2  0
 15 16  1  0
 16 17  2  0
  7 18  1  0
 18 19  1  0
 19  4  1  0
 17 12  1  0
M  CHG  1   3   1
M  END
>  <EmbedRMS>  (85) 
0.17084101544492625

>  <Gold.Version>  (85) 
2020.3.0

>  <Gold.Id.Protein>  (85) 
unknown|1q8t_protein|pdb

>  <Gold.PLP.Fitness>  (85) 
62.2316

>  <Gold.PLP.PLP>  (85) 
-44.7207

>  <Gold.PLP.part.hbond>  (85) 
-3.0000

>  <Gold.PLP.part.metal>  (85) 
0.0000

>  <Gold.PLP.part.buried>  (85) 
-1.8750

>  <Gold.PLP.part.nonpolar>  (85) 
-41.5113

>  <Gold.PLP.part.repulsive>  (85) 
0.1495

>  <Gold.PLP.ligand.clash>  (85) 
0.0000

>  <Gold.PLP.ligand.torsion>  (85) 
0.4474

>  <Gold.PLP.Chemscore.Hbond>  (85) 
4.0000

>  <Gold.PLP.Chemscore.CHOScore>  (85) 
1.8944

>  <Gold.PLP.Chemscore.Metal>  (85) 
0.0000

>  <Gold.Chemscore.Hbonds>  (85) 
donor molecule, donor type, donor heavy atom, donor atom, acceptor molecule, acceptor atom, score
      L1  H     3    24       P1  2902  2.00
      P1  H  2887  2891       L1     9  1.00
      P1  H  1888  1903       L1    16  1.00
      L1  C    15    38       P1  1891  1.00
      L1  C    17    39       P1  1855  0.89

>  <Gold.PLP.Chemscore.Internal.Correction>  (85) 
0.7225

>  <Gold.PLP.Constraint>  (85) 
-0.0000

>  <Gold.Protein.RotatedTorsions>  (85) 
[  681  677  676  673 ] final  -63.80 input -179.99 | X-H torsion
[  702  698  697  694 ] final -107.29 input  179.99 | X-H torsion
[ 2577 2569 2568 2566 ] final -100.26 input   -0.13 | X-H torsion
[ 2891 2887 2886 2883 ] final -176.53 input  179.98 | X-H torsion
[ 3175 3171 3170 3167 ] final -138.66 input -179.99 | X-H torsion
[ 5278 5270 5269 5267 ] final   76.29 input    0.55 | X-H torsion
[  641  637  636  633 ] final -113.73 input  179.99 | X-H torsion
[ 1886 1878 1877 1875 ] final -104.08 input    1.60 | X-H torsion
[  965  957  956  954 ] final  -34.10 input    0.45 | X-H torsion

>  <Gold.Protein.ActiveResidues>  (85) 
 LYS47   THR48   LEU49   GLY50   THR51   GLY52   SER53   PHE54   GLY55   ARG56  
 VAL57   MET58   LEU59   TYR69   ALA70   MET71   LYS72   ILE73   LEU74   GLU91  
 LEU95   VAL104  LYS105  MET118  VAL119  MET120  GLU121  TYR122  VAL123  PRO124 
 GLY125  GLY126  GLU127  MET128  PHE129  TYR164  ASP166  LEU167  LYS168  PRO169 
 GLU170  ASN171  LEU172  LEU173  ILE174  GLN181  VAL182  THR183  ASP184  PHE185 
 GLY186  PHE187  GLY200  THR201  ASN326  PHE327  TYR330  ARG18   ARG19   ASN20  
 ALA21   ILE22   HIS23  

>  <Gold.Protein.RotatedAtoms>  (85) 
   10.9570   18.9850    7.4092 H   0  0  0  0  0  0  0  0  0  0  0  0  # atno 641  bound_to 637 
   15.6489   13.2185    7.1683 H   0  0  0  0  0  0  0  0  0  0  0  0  # atno 681  bound_to 677 
   20.9148   11.5723   -0.5688 H   0  0  0  0  0  0  0  0  0  0  0  0  # atno 702  bound_to 698 
   -6.5310   15.6791   -1.4086 H   0  0  0  0  0  0  0  0  0  0  0  0  # atno 965  bound_to 957 
    1.0821   10.6031   10.7017 H   0  0  0  0  0  0  0  0  0  0  0  0  # atno 1886 bound_to 1878
   11.0300    2.8869   -3.0117 H   0  0  0  0  0  0  0  0  0  0  0  0  # atno 2577 bound_to 2569
    7.3837    6.6571    1.4616 H   0  0  0  0  0  0  0  0  0  0  0  0  # atno 2891 bound_to 2887
   18.6290    2.5890    0.3733 H   0  0  0  0  0  0  0  0  0  0  0  0  # atno 3175 bound_to 3171
   13.1018   10.2098    8.8490 H   0  0  0  0  0  0  0  0  0  0  0  0  # atno 5278 bound_to 5270
   17.0716   13.9146    7.0028 LP  0  0  0  0  0  0  0  0  0  0  0  0  # atno 5914 bound_to 677 
   16.6316   12.6701    6.0415 LP  0  0  0  0  0  0  0  0  0  0  0  0  # atno 5915 bound_to 677 
   20.3812   11.6789   -2.0659 LP  0  0  0  0  0  0  0  0  0  0  0  0  # atno 5920 bound_to 698 
   19.3609   11.8354   -0.8004 LP  0  0  0  0  0  0  0  0  0  0  0  0  # atno 5921 bound_to 698 
    9.9749    1.8815   -2.3705 LP  0  0  0  0  0  0  0  0  0  0  0  0  # atno 5950 bound_to 2569
    9.4820    3.1431   -3.2827 LP  0  0  0  0  0  0  0  0  0  0  0  0  # atno 5951 bound_to 2569
    8.3805    6.3481    0.2585 LP  0  0  0  0  0  0  0  0  0  0  0  0  # atno 5982 bound_to 2887
    7.5234    5.1506    0.9643 LP  0  0  0  0  0  0  0  0  0  0  0  0  # atno 5983 bound_to 2887
   17.9835    1.9608   -0.9399 LP  0  0  0  0  0  0  0  0  0  0  0  0  # atno 6000 bound_to 3171
   19.2994    2.9234   -1.0318 LP  0  0  0  0  0  0  0  0  0  0  0  0  # atno 6001 bound_to 3171
   13.0387    9.8119   10.3900 LP  0  0  0  0  0  0  0  0  0  0  0  0  # atno 6004 bound_to 5270
   14.4728   10.0130    9.6354 LP  0  0  0  0  0  0  0  0  0  0  0  0  # atno 6005 bound_to 5270
   10.8956   19.7260    8.8171 LP  0  0  0  0  0  0  0  0  0  0  0  0  # atno 6055 bound_to 637 
    9.5293   19.3810    7.9920 LP  0  0  0  0  0  0  0  0  0  0  0  0  # atno 6056 bound_to 637 
    0.9457   12.1519   11.0449 LP  0  0  0  0  0  0  0  0  0  0  0  0  # atno 6063 bound_to 1878
    2.3005   11.5649   10.3475 LP  0  0  0  0  0  0  0  0  0  0  0  0  # atno 6064 bound_to 1878
   -6.7372   17.1938   -0.9633 LP  0  0  0  0  0  0  0  0  0  0  0  0  # atno 6067 bound_to 957 
   -7.1924   15.9650    0.0112 LP  0  0  0  0  0  0  0  0  0  0  0  0  # atno 6068 bound_to 957 

>  <STRIFE_LigEff_Score>  (85) 
3.275347368421053

$$$$
unknown|pharmsElabsTestPreDocking|sdf|86|dock1
     RDKit          3D

 17 17  0  0  0  0  0  0  0  0999 V2000
    3.3669    8.6109    1.9998 C   0  0  0  0  0  0  0  0  0  0  0  0
    4.5959    9.1317    2.0312 C   0  0  0  0  0  0  0  0  0  0  0  0
    5.4365    9.2998    3.2418 C   0  0  0  0  0  0  0  0  0  0  0  0
    4.9002    9.8389    4.3634 C   0  0  0  0  0  0  0  0  0  0  0  0
    5.6753   10.1165    5.6153 C   0  0  0  0  0  0  0  0  0  0  0  0
    6.8585    9.0161    3.2083 N   0  0  0  0  0  0  0  0  0  0  0  0
    7.9077    9.3367    2.2646 C   0  0  0  0  0  0  0  0  0  0  0  0
    7.5905   10.0634    1.2880 O   0  0  0  0  0  0  0  0  0  0  0  0
    9.3730    8.9985    2.3097 C   0  0  0  0  0  0  0  0  0  0  0  0
    9.6687    7.5313    2.5714 C   0  0  0  0  0  0  0  0  0  0  0  0
   11.1195    7.1539    2.3534 C   0  0  0  0  0  0  0  0  0  0  0  0
   12.1863    8.1978    2.6988 C   0  0  0  0  0  0  0  0  0  0  0  0
   13.5406    7.9262    1.9983 C   0  0  0  0  0  0  0  0  0  0  0  0
   14.4853    9.1046    1.7613 C   0  0  0  0  0  0  0  0  0  0  0  0
   13.4006    7.0803    0.8120 N   0  0  0  0  0  0  0  0  0  0  0  0
   11.7883    9.6845    2.5254 C   0  0  0  0  0  0  0  0  0  0  0  0
   10.3354   10.0469    2.8021 C   0  0  0  0  0  0  0  0  0  0  0  0
  1  2  2  0
  2  3  1  0
  3  4  2  0
  4  5  1  0
  3  6  1  0
  6  7  1  0
  7  8  2  0
  7  9  1  0
  9 10  1  0
 10 11  1  0
 11 12  1  0
 12 13  1  0
 13 14  1  0
 13 15  1  0
 12 16  1  0
 16 17  1  0
 17  9  1  0
M  CHG  1  15   1
M  END
>  <EmbedRMS>  (86) 
0.29216731409503444

>  <Gold.Version>  (86) 
2020.3.0

>  <Gold.Id.Protein>  (86) 
unknown|1q8t_protein|pdb

>  <Gold.PLP.Fitness>  (86) 
45.0240

>  <Gold.PLP.PLP>  (86) 
-39.4585

>  <Gold.PLP.part.hbond>  (86) 
-1.7330

>  <Gold.PLP.part.metal>  (86) 
0.0000

>  <Gold.PLP.part.buried>  (86) 
-2.0937

>  <Gold.PLP.part.nonpolar>  (86) 
-35.8631

>  <Gold.PLP.part.repulsive>  (86) 
0.0525

>  <Gold.PLP.ligand.clash>  (86) 
0.0000

>  <Gold.PLP.ligand.torsion>  (86) 
2.1759

>  <Gold.PLP.Chemscore.Hbond>  (86) 
2.9920

>  <Gold.PLP.Chemscore.CHOScore>  (86) 
0.0000

>  <Gold.PLP.Chemscore.Metal>  (86) 
0.0000

>  <Gold.Chemscore.Hbonds>  (86) 
donor molecule, donor type, donor heavy atom, donor atom, acceptor molecule, acceptor atom, score
      L1  H    15    36       P1  2691  0.99
      L1  H    15    38       P1  2902  2.00

>  <Gold.PLP.Chemscore.Internal.Correction>  (86) 
0.9412

>  <Gold.PLP.Constraint>  (86) 
-0.0000

>  <Gold.Protein.RotatedTorsions>  (86) 
[  681  677  676  673 ] final -107.73 input -179.99 | X-H torsion
[  702  698  697  694 ] final -116.53 input  179.99 | X-H torsion
[ 2577 2569 2568 2566 ] final   69.19 input   -0.13 | X-H torsion
[ 2891 2887 2886 2883 ] final  176.53 input  179.98 | X-H torsion
[ 3175 3171 3170 3167 ] final  -14.10 input -179.99 | X-H torsion
[ 5278 5270 5269 5267 ] final -116.91 input    0.55 | X-H torsion
[  641  637  636  633 ] final  -98.77 input  179.99 | X-H torsion
[ 1886 1878 1877 1875 ] final  -61.94 input    1.60 | X-H torsion
[  965  957  956  954 ] final -127.11 input    0.45 | X-H torsion

>  <Gold.Protein.ActiveResidues>  (86) 
 LYS47   THR48   LEU49   GLY50   THR51   GLY52   SER53   PHE54   GLY55   ARG56  
 VAL57   MET58   LEU59   TYR69   ALA70   MET71   LYS72   ILE73   LEU74   GLU91  
 LEU95   VAL104  LYS105  MET118  VAL119  MET120  GLU121  TYR122  VAL123  PRO124 
 GLY125  GLY126  GLU127  MET128  PHE129  TYR164  ASP166  LEU167  LYS168  PRO169 
 GLU170  ASN171  LEU172  LEU173  ILE174  GLN181  VAL182  THR183  ASP184  PHE185 
 GLY186  PHE187  GLY200  THR201  ASN326  PHE327  TYR330  ARG18   ARG19   ASN20  
 ALA21   ILE22   HIS23  

>  <Gold.Protein.RotatedAtoms>  (86) 
   10.7470   18.9485    7.3146 H   0  0  0  0  0  0  0  0  0  0  0  0  # atno 641  bound_to 637 
   16.0356   13.7076    7.4137 H   0  0  0  0  0  0  0  0  0  0  0  0  # atno 681  bound_to 677 
   20.9959   11.5602   -0.6876 H   0  0  0  0  0  0  0  0  0  0  0  0  # atno 702  bound_to 698 
   -6.5706   16.9724   -1.2946 H   0  0  0  0  0  0  0  0  0  0  0  0  # atno 965  bound_to 957 
    1.6710   10.6001   10.4415 H   0  0  0  0  0  0  0  0  0  0  0  0  # atno 1886 bound_to 1878
    9.2909    2.5145   -2.8805 H   0  0  0  0  0  0  0  0  0  0  0  0  # atno 2577 bound_to 2569
    7.4432    6.7322    1.4107 H   0  0  0  0  0  0  0  0  0  0  0  0  # atno 2891 bound_to 2887
   19.2468    2.8586   -1.0621 H   0  0  0  0  0  0  0  0  0  0  0  0  # atno 3175 bound_to 3171
   14.1269    9.8714   10.2646 H   0  0  0  0  0  0  0  0  0  0  0  0  # atno 5278 bound_to 5270
   17.3021   13.5182    6.4670 LP  0  0  0  0  0  0  0  0  0  0  0  0  # atno 5914 bound_to 677 
   15.9941   12.5517    6.3191 LP  0  0  0  0  0  0  0  0  0  0  0  0  # atno 5915 bound_to 677 
   20.2321   11.7056   -2.0780 LP  0  0  0  0  0  0  0  0  0  0  0  0  # atno 5920 bound_to 698 
   19.4247   11.8214   -0.6633 LP  0  0  0  0  0  0  0  0  0  0  0  0  # atno 5921 bound_to 698 
   10.5439    3.3705   -3.3627 LP  0  0  0  0  0  0  0  0  0  0  0  0  # atno 5950 bound_to 2569
   10.7441    2.0462   -2.4285 LP  0  0  0  0  0  0  0  0  0  0  0  0  # atno 5951 bound_to 2569
    8.3861    6.2388    0.2257 LP  0  0  0  0  0  0  0  0  0  0  0  0  # atno 5982 bound_to 2887
    7.4551    5.1808    1.0507 LP  0  0  0  0  0  0  0  0  0  0  0  0  # atno 5983 bound_to 2887
   18.6783    2.6523    0.4110 LP  0  0  0  0  0  0  0  0  0  0  0  0  # atno 6000 bound_to 3171
   17.9544    1.9480   -0.8722 LP  0  0  0  0  0  0  0  0  0  0  0  0  # atno 6001 bound_to 3171
   13.8255   10.2267    8.7415 LP  0  0  0  0  0  0  0  0  0  0  0  0  # atno 6004 bound_to 5270
   12.6074    9.9543    9.7945 LP  0  0  0  0  0  0  0  0  0  0  0  0  # atno 6005 bound_to 5270
   11.0980   19.6539    8.6982 LP  0  0  0  0  0  0  0  0  0  0  0  0  # atno 6055 bound_to 637 
    9.5480   19.4915    8.2105 LP  0  0  0  0  0  0  0  0  0  0  0  0  # atno 6056 bound_to 637 
    0.5967   11.5734   11.1001 LP  0  0  0  0  0  0  0  0  0  0  0  0  # atno 6063 bound_to 1878
    2.0295   12.1465   10.5662 LP  0  0  0  0  0  0  0  0  0  0  0  0  # atno 6064 bound_to 1878
   -7.2058   16.4031    0.0498 LP  0  0  0  0  0  0  0  0  0  0  0  0  # atno 6067 bound_to 957 
   -6.6821   15.3936   -1.1220 LP  0  0  0  0  0  0  0  0  0  0  0  0  # atno 6068 bound_to 957 

>  <STRIFE_LigEff_Score>  (86) 
2.6484705882352944

$$$$
unknown|pharmsElabsTestPreDocking|sdf|87|dock8
     RDKit          3D

 17 18  0  0  0  0  0  0  0  0999 V2000
   14.1589    9.4213    1.1558 C   0  0  0  0  0  0  0  0  0  0  0  0
   13.4966    8.2204    1.8311 C   0  0  0  0  0  0  0  0  0  0  0  0
   13.2866    7.1275    0.8718 N   0  0  0  0  0  0  0  0  0  0  0  0
   12.2548    8.4736    2.7083 C   0  0  0  0  0  0  0  0  0  0  0  0
   11.3049    7.2956    3.0536 C   0  0  0  0  0  0  0  0  0  0  0  0
    9.8512    7.4824    2.6446 C   0  0  0  0  0  0  0  0  0  0  0  0
    9.3421    8.8762    3.0062 C   0  0  0  0  0  0  0  0  0  0  0  0
    7.8679    8.9850    2.7259 C   0  0  0  0  0  0  0  0  0  0  0  0
    7.4492    8.9022    1.5390 O   0  0  0  0  0  0  0  0  0  0  0  0
    6.9612    9.2065    3.8152 N   0  0  0  0  0  0  0  0  0  0  0  0
    5.5362    9.3108    3.7040 C   0  0  0  0  0  0  0  0  0  0  0  0
    4.7404    8.9079    2.6426 C   0  0  0  0  0  0  0  0  0  0  0  0
    3.4646    9.2390    3.0424 C   0  0  0  0  0  0  0  0  0  0  0  0
    3.5202    9.7997    4.2633 N   0  0  0  0  0  0  0  0  0  0  0  0
    4.7752    9.8485    4.6749 N   0  0  0  0  0  0  0  0  0  0  0  0
   10.1116    9.9137    2.1959 C   0  0  0  0  0  0  0  0  0  0  0  0
   11.6100    9.8767    2.4898 C   0  0  0  0  0  0  0  0  0  0  0  0
  1  2  1  0
  2  3  1  0
  2  4  1  0
  4  5  1  0
  5  6  1  0
  6  7  1  0
  7  8  1  0
  8  9  2  0
  8 10  1  0
 10 11  1  0
 11 12  1  0
 12 13  2  0
 13 14  1  0
 14 15  1  0
  7 16  1  0
 16 17  1  0
 17  4  1  0
 15 11  2  0
M  CHG  1   3   1
M  END
>  <EmbedRMS>  (87) 
0.20783527019262546

>  <Gold.Version>  (87) 
2020.3.0

>  <Gold.Id.Protein>  (87) 
unknown|1q8t_protein|pdb

>  <Gold.PLP.Fitness>  (87) 
43.6251

>  <Gold.PLP.PLP>  (87) 
-34.3782

>  <Gold.PLP.part.hbond>  (87) 
-2.8164

>  <Gold.PLP.part.metal>  (87) 
0.0000

>  <Gold.PLP.part.buried>  (87) 
-4.9524

>  <Gold.PLP.part.nonpolar>  (87) 
-26.5307

>  <Gold.PLP.part.repulsive>  (87) 
0.1683

>  <Gold.PLP.ligand.clash>  (87) 
0.0000

>  <Gold.PLP.ligand.torsion>  (87) 
1.0527

>  <Gold.PLP.Chemscore.Hbond>  (87) 
2.6560

>  <Gold.PLP.Chemscore.CHOScore>  (87) 
0.9997

>  <Gold.PLP.Chemscore.Metal>  (87) 
0.0000

>  <Gold.Chemscore.Hbonds>  (87) 
donor molecule, donor type, donor heavy atom, donor atom, acceptor molecule, acceptor atom, score
      L1  H     3    22       P1  2902  2.00
      L1  H     3    23       P1  2691  0.66
      L1  C    13    33       P1  1855  1.00

>  <Gold.PLP.Chemscore.Internal.Correction>  (87) 
0.3853

>  <Gold.PLP.Constraint>  (87) 
-0.0000

>  <Gold.Protein.RotatedTorsions>  (87) 
[  681  677  676  673 ] final -170.73 input -179.99 | X-H torsion
[  702  698  697  694 ] final  141.12 input  179.99 | X-H torsion
[ 2577 2569 2568 2566 ] final   13.65 input   -0.13 | X-H torsion
[ 2891 2887 2886 2883 ] final -114.85 input  179.98 | X-H torsion
[ 3175 3171 3170 3167 ] final   38.96 input -179.99 | X-H torsion
[ 5278 5270 5269 5267 ] final   95.04 input    0.55 | X-H torsion
[  641  637  636  633 ] final  -33.40 input  179.99 | X-H torsion
[ 1886 1878 1877 1875 ] final  -22.90 input    1.60 | X-H torsion
[  965  957  956  954 ] final  -18.70 input    0.45 | X-H torsion

>  <Gold.Protein.ActiveResidues>  (87) 
 LYS47   THR48   LEU49   GLY50   THR51   GLY52   SER53   PHE54   GLY55   ARG56  
 VAL57   MET58   LEU59   TYR69   ALA70   MET71   LYS72   ILE73   LEU74   GLU91  
 LEU95   VAL104  LYS105  MET118  VAL119  MET120  GLU121  TYR122  VAL123  PRO124 
 GLY125  GLY126  GLU127  MET128  PHE129  TYR164  ASP166  LEU167  LYS168  PRO169 
 GLU170  ASN171  LEU172  LEU173  ILE174  GLN181  VAL182  THR183  ASP184  PHE185 
 GLY186  PHE187  GLY200  THR201  ASN326  PHE327  TYR330  ARG18   ARG19   ASN20  
 ALA21   ILE22   HIS23  

>  <Gold.Protein.RotatedAtoms>  (87) 
    9.8123   19.1004    7.5099 H   0  0  0  0  0  0  0  0  0  0  0  0  # atno 641  bound_to 637 
   16.8916   13.9432    7.1170 H   0  0  0  0  0  0  0  0  0  0  0  0  # atno 681  bound_to 677 
   20.5024   11.6728   -1.9892 H   0  0  0  0  0  0  0  0  0  0  0  0  # atno 702  bound_to 698 
   -6.6072   15.5213   -1.2446 H   0  0  0  0  0  0  0  0  0  0  0  0  # atno 965  bound_to 957 
    2.1126   10.9827   10.3121 H   0  0  0  0  0  0  0  0  0  0  0  0  # atno 1886 bound_to 1878
    9.5855    3.1657   -3.3111 H   0  0  0  0  0  0  0  0  0  0  0  0  # atno 2577 bound_to 2569
    7.1613    5.7671    1.5060 H   0  0  0  0  0  0  0  0  0  0  0  0  # atno 2891 bound_to 2887
   18.6889    2.4002   -1.4067 H   0  0  0  0  0  0  0  0  0  0  0  0  # atno 3175 bound_to 3171
   13.3775   10.2355    8.7566 H   0  0  0  0  0  0  0  0  0  0  0  0  # atno 5278 bound_to 5270
   16.8169   12.7781    6.0338 LP  0  0  0  0  0  0  0  0  0  0  0  0  # atno 5914 bound_to 677 
   15.5784   13.0438    7.0645 LP  0  0  0  0  0  0  0  0  0  0  0  0  # atno 5915 bound_to 677 
   19.3225   11.8448   -0.9329 LP  0  0  0  0  0  0  0  0  0  0  0  0  # atno 5920 bound_to 698 
   20.8535   11.5638   -0.4393 LP  0  0  0  0  0  0  0  0  0  0  0  0  # atno 5921 bound_to 698 
   11.0991    2.8310   -2.9474 LP  0  0  0  0  0  0  0  0  0  0  0  0  # atno 5950 bound_to 2569
    9.8786    1.9001   -2.3905 LP  0  0  0  0  0  0  0  0  0  0  0  0  # atno 5951 bound_to 2569
    7.9800    6.9776    0.8731 LP  0  0  0  0  0  0  0  0  0  0  0  0  # atno 5982 bound_to 2887
    8.1579    5.4578    0.3029 LP  0  0  0  0  0  0  0  0  0  0  0  0  # atno 5983 bound_to 2887
   19.2667    3.0262   -0.0614 LP  0  0  0  0  0  0  0  0  0  0  0  0  # atno 6000 bound_to 3171
   17.9531    2.0565   -0.0370 LP  0  0  0  0  0  0  0  0  0  0  0  0  # atno 6001 bound_to 3171
   12.8062    9.8577   10.1945 LP  0  0  0  0  0  0  0  0  0  0  0  0  # atno 6004 bound_to 5270
   14.4152    9.9401    9.9282 LP  0  0  0  0  0  0  0  0  0  0  0  0  # atno 6005 bound_to 5270
   11.3690   19.1956    7.8302 LP  0  0  0  0  0  0  0  0  0  0  0  0  # atno 6055 bound_to 637 
   10.2615   19.7899    8.8729 LP  0  0  0  0  0  0  0  0  0  0  0  0  # atno 6056 bound_to 637 
    0.6615   10.9610   10.9671 LP  0  0  0  0  0  0  0  0  0  0  0  0  # atno 6063 bound_to 1878
    1.4999   12.3561   10.8354 LP  0  0  0  0  0  0  0  0  0  0  0  0  # atno 6064 bound_to 1878
   -6.6388   17.1119   -1.1812 LP  0  0  0  0  0  0  0  0  0  0  0  0  # atno 6067 bound_to 957 
   -7.2106   16.2130    0.0564 LP  0  0  0  0  0  0  0  0  0  0  0  0  # atno 6068 bound_to 957 

>  <STRIFE_LigEff_Score>  (87) 
2.5661823529411767

$$$$
unknown|pharmsElabsTestPreDocking|sdf|88|dock1
     RDKit          3D

 18 18  0  0  0  0  0  0  0  0999 V2000
   14.1344    7.0516    3.3569 C   0  0  0  0  0  0  0  0  0  0  0  0
   13.7697    7.8783    2.1080 C   0  0  0  0  0  0  0  0  0  0  0  0
   13.9986    7.0633    0.9078 N   0  0  0  0  0  0  0  0  0  0  0  0
   12.2978    8.3788    2.2074 C   0  0  0  0  0  0  0  0  0  0  0  0
   11.3331    7.1753    2.2398 C   0  0  0  0  0  0  0  0  0  0  0  0
    9.8895    7.6557    2.1774 C   0  0  0  0  0  0  0  0  0  0  0  0
    9.5800    8.5654    3.3717 C   0  0  0  0  0  0  0  0  0  0  0  0
    8.1515    9.0261    3.3169 C   0  0  0  0  0  0  0  0  0  0  0  0
    7.3758    8.5949    2.4178 O   0  0  0  0  0  0  0  0  0  0  0  0
    7.6791    9.9643    4.2903 N   0  0  0  0  0  0  0  0  0  0  0  0
    6.2908   10.4092    4.3343 C   0  0  0  0  0  0  0  0  0  0  0  0
    5.5689    9.8162    5.5469 C   0  0  0  0  0  0  0  0  0  0  0  0
    4.1245   10.0110    5.4397 N   0  0  0  0  0  0  0  0  0  0  0  0
    3.3985    9.7983    4.2240 C   0  0  0  0  0  0  0  0  0  0  0  0
    4.0052    9.4157    3.1442 N   0  0  0  0  0  0  0  0  0  0  0  0
    3.3058    9.2055    1.9481 N   0  0  0  0  0  0  0  0  0  0  0  0
   10.5489    9.7591    3.4326 C   0  0  0  0  0  0  0  0  0  0  0  0
   12.0129    9.2863    3.4300 C   0  0  0  0  0  0  0  0  0  0  0  0
  1  2  1  0
  2  3  1  0
  2  4  1  0
  4  5  1  0
  5  6  1  0
  6  7  1  0
  7  8  1  0
  8  9  2  0
  8 10  1  0
 10 11  1  0
 11 12  1  0
 12 13  1  0
 13 14  1  0
 14 15  2  0
 15 16  1  0
  7 17  1  0
 17 18  1  0
 18  4  1  0
M  CHG  1   3   1
M  END
>  <EmbedRMS>  (88) 
0.029670762141164694

>  <Gold.Version>  (88) 
2020.3.0

>  <Gold.Id.Protein>  (88) 
unknown|1q8t_protein|pdb

>  <Gold.PLP.Fitness>  (88) 
53.3037

>  <Gold.PLP.PLP>  (88) 
-38.7231

>  <Gold.PLP.part.hbond>  (88) 
-3.9017

>  <Gold.PLP.part.metal>  (88) 
0.0000

>  <Gold.PLP.part.buried>  (88) 
-5.8150

>  <Gold.PLP.part.nonpolar>  (88) 
-29.5179

>  <Gold.PLP.part.repulsive>  (88) 
0.2260

>  <Gold.PLP.ligand.clash>  (88) 
0.0000

>  <Gold.PLP.ligand.torsion>  (88) 
0.2958

>  <Gold.PLP.Chemscore.Hbond>  (88) 
5.0000

>  <Gold.PLP.Chemscore.CHOScore>  (88) 
0.0000

>  <Gold.PLP.Chemscore.Metal>  (88) 
0.0000

>  <Gold.Chemscore.Hbonds>  (88) 
donor molecule, donor type, donor heavy atom, donor atom, acceptor molecule, acceptor atom, score
      L1  H     3    23       P1  2691  1.00
      L1  H     3    25       P1  2902  2.00
      L1  H    16    39       P1  1855  1.00
      P1  H  2887  2891       L1     9  1.00

>  <Gold.PLP.Chemscore.Internal.Correction>  (88) 
0.1723

>  <Gold.PLP.Constraint>  (88) 
-0.0000

>  <Gold.Protein.RotatedTorsions>  (88) 
[  681  677  676  673 ] final   39.90 input -179.99 | X-H torsion
[  702  698  697  694 ] final  -24.09 input  179.99 | X-H torsion
[ 2577 2569 2568 2566 ] final  115.14 input   -0.13 | X-H torsion
[ 2891 2887 2886 2883 ] final  155.56 input  179.98 | X-H torsion
[ 3175 3171 3170 3167 ] final -163.85 input -179.99 | X-H torsion
[ 5278 5270 5269 5267 ] final  127.50 input    0.55 | X-H torsion
[  641  637  636  633 ] final   -2.60 input  179.99 | X-H torsion
[ 1886 1878 1877 1875 ] final  -23.27 input    1.60 | X-H torsion
[  965  957  956  954 ] final  -44.01 input    0.45 | X-H torsion

>  <Gold.Protein.ActiveResidues>  (88) 
 LYS47   THR48   LEU49   GLY50   THR51   GLY52   SER53   PHE54   GLY55   ARG56  
 VAL57   MET58   LEU59   TYR69   ALA70   MET71   LYS72   ILE73   LEU74   GLU91  
 LEU95   VAL104  LYS105  MET118  VAL119  MET120  GLU121  TYR122  VAL123  PRO124 
 GLY125  GLY126  GLU127  MET128  PHE129  TYR164  ASP166  LEU167  LYS168  PRO169 
 GLU170  ASN171  LEU172  LEU173  ILE174  GLN181  VAL182  THR183  ASP184  PHE185 
 GLY186  PHE187  GLY200  THR201  ASN326  PHE327  TYR330  ARG18   ARG19   ASN20  
 ALA21   ILE22   HIS23  

>  <Gold.Protein.RotatedAtoms>  (88) 
    9.5940   19.3021    7.8810 H   0  0  0  0  0  0  0  0  0  0  0  0  # atno 641  bound_to 637 
   16.3837   12.6238    6.1235 H   0  0  0  0  0  0  0  0  0  0  0  0  # atno 681  bound_to 677 
   19.7575   11.7738   -0.3783 H   0  0  0  0  0  0  0  0  0  0  0  0  # atno 702  bound_to 698 
   -6.4922   15.8038   -1.4914 H   0  0  0  0  0  0  0  0  0  0  0  0  # atno 965  bound_to 957 
    2.1096   10.9778   10.3126 H   0  0  0  0  0  0  0  0  0  0  0  0  # atno 1886 bound_to 1878
    9.6400    2.0294   -2.5181 H   0  0  0  0  0  0  0  0  0  0  0  0  # atno 2577 bound_to 2569
    7.6462    6.8957    1.2147 H   0  0  0  0  0  0  0  0  0  0  0  0  # atno 2891 bound_to 2887
   18.3232    2.3542    0.3101 H   0  0  0  0  0  0  0  0  0  0  0  0  # atno 3175 bound_to 3171
   13.8752   10.2270    8.8121 H   0  0  0  0  0  0  0  0  0  0  0  0  # atno 5278 bound_to 5270
   15.7189   13.4088    7.3393 LP  0  0  0  0  0  0  0  0  0  0  0  0  # atno 5914 bound_to 677 
   17.2110   13.8018    6.8046 LP  0  0  0  0  0  0  0  0  0  0  0  0  # atno 5915 bound_to 677 
   21.1572   11.5227   -1.0961 LP  0  0  0  0  0  0  0  0  0  0  0  0  # atno 5920 bound_to 698 
   19.8023   11.7797   -1.9706 LP  0  0  0  0  0  0  0  0  0  0  0  0  # atno 5921 bound_to 698 
    9.8093    3.3450   -3.3989 LP  0  0  0  0  0  0  0  0  0  0  0  0  # atno 5950 bound_to 2569
   11.1111    2.5825   -2.7740 LP  0  0  0  0  0  0  0  0  0  0  0  0  # atno 5951 bound_to 2569
    8.3479    5.8998    0.1888 LP  0  0  0  0  0  0  0  0  0  0  0  0  # atno 5982 bound_to 2887
    7.2797    5.3478    1.2938 LP  0  0  0  0  0  0  0  0  0  0  0  0  # atno 5983 bound_to 2887
   18.2128    2.0892   -1.2561 LP  0  0  0  0  0  0  0  0  0  0  0  0  # atno 6000 bound_to 3171
   19.3919    3.0420   -0.6492 LP  0  0  0  0  0  0  0  0  0  0  0  0  # atno 6001 bound_to 3171
   12.5954    9.9713    9.7251 LP  0  0  0  0  0  0  0  0  0  0  0  0  # atno 6004 bound_to 5270
   14.1024    9.8355   10.3392 LP  0  0  0  0  0  0  0  0  0  0  0  0  # atno 6005 bound_to 5270
   11.0993   19.0158    7.4485 LP  0  0  0  0  0  0  0  0  0  0  0  0  # atno 6055 bound_to 637 
   10.7611   19.7572    8.8636 LP  0  0  0  0  0  0  0  0  0  0  0  0  # atno 6056 bound_to 637 
    0.6590   10.9663   10.9691 LP  0  0  0  0  0  0  0  0  0  0  0  0  # atno 6063 bound_to 1878
    1.5055   12.3561   10.8329 LP  0  0  0  0  0  0  0  0  0  0  0  0  # atno 6064 bound_to 1878
   -6.8041   17.2115   -0.8159 LP  0  0  0  0  0  0  0  0  0  0  0  0  # atno 6067 bound_to 957 
   -7.1664   15.8160   -0.0490 LP  0  0  0  0  0  0  0  0  0  0  0  0  # atno 6068 bound_to 957 

>  <STRIFE_LigEff_Score>  (88) 
2.961316666666667

$$$$
unknown|pharmsElabsTestPreDocking|sdf|89|dock6
     RDKit          3D

 19 20  0  0  0  0  0  0  0  0999 V2000
    3.3203    8.8854    3.0533 C   0  0  0  0  0  0  0  0  0  0  0  0
    4.6532    9.3456    3.5364 C   0  0  0  0  0  0  0  0  0  0  0  0
    5.5855    9.9038    2.7346 N   0  0  0  0  0  0  0  0  0  0  0  0
    6.7083   10.2237    3.3753 N   0  0  0  0  0  0  0  0  0  0  0  0
    6.6871    9.9092    4.6886 C   0  0  0  0  0  0  0  0  0  0  0  0
    7.8183   10.2260    5.6218 C   0  0  0  0  0  0  0  0  0  0  0  0
    8.9904    9.3903    5.3197 N   0  0  0  0  0  0  0  0  0  0  0  0
    9.6634    9.5120    4.0548 C   0  0  0  0  0  0  0  0  0  0  0  0
    9.2033   10.2981    3.1926 O   0  0  0  0  0  0  0  0  0  0  0  0
   10.9072    8.7801    3.6421 C   0  0  0  0  0  0  0  0  0  0  0  0
   10.6478    7.4203    3.0447 C   0  0  0  0  0  0  0  0  0  0  0  0
   11.8680    6.8445    2.3448 C   0  0  0  0  0  0  0  0  0  0  0  0
   13.2190    7.0497    3.0455 C   0  0  0  0  0  0  0  0  0  0  0  0
   14.4388    6.8834    2.1058 C   0  0  0  0  0  0  0  0  0  0  0  0
   15.8126    6.6479    2.7316 C   0  0  0  0  0  0  0  0  0  0  0  0
   14.4779    7.9002    1.0527 N   0  0  0  0  0  0  0  0  0  0  0  0
   13.3707    8.3362    3.8999 C   0  0  0  0  0  0  0  0  0  0  0  0
   12.1047    8.8969    4.5440 C   0  0  0  0  0  0  0  0  0  0  0  0
    5.2149    9.2008    5.1192 S   0  0  0  0  0  0  0  0  0  0  0  0
  1  2  1  0
  2  3  2  0
  3  4  1  0
  4  5  2  0
  5  6  1  0
  6  7  1  0
  7  8  1  0
  8  9  2  0
  8 10  1  0
 10 11  1  0
 11 12  1  0
 12 13  1  0
 13 14  1  0
 14 15  1  0
 14 16  1  0
 13 17  1  0
 17 18  1  0
  5 19  1  0
 19  2  1  0
 18 10  1  0
M  CHG  1  16   1
M  END
>  <EmbedRMS>  (89) 
0.28560676549796915

>  <Gold.Version>  (89) 
2020.3.0

>  <Gold.Id.Protein>  (89) 
unknown|1q8t_protein|pdb

>  <Gold.PLP.Fitness>  (89) 
47.1870

>  <Gold.PLP.PLP>  (89) 
-38.7240

>  <Gold.PLP.part.hbond>  (89) 
-1.9341

>  <Gold.PLP.part.metal>  (89) 
0.0000

>  <Gold.PLP.part.buried>  (89) 
1.2394

>  <Gold.PLP.part.nonpolar>  (89) 
-37.7311

>  <Gold.PLP.part.repulsive>  (89) 
0.0325

>  <Gold.PLP.ligand.clash>  (89) 
0.0000

>  <Gold.PLP.ligand.torsion>  (89) 
0.5679

>  <Gold.PLP.Chemscore.Hbond>  (89) 
3.0000

>  <Gold.PLP.Chemscore.CHOScore>  (89) 
0.0000

>  <Gold.PLP.Chemscore.Metal>  (89) 
0.0000

>  <Gold.Chemscore.Hbonds>  (89) 
donor molecule, donor type, donor heavy atom, donor atom, acceptor molecule, acceptor atom, score
      L1  H     7    25       P1  1940  1.00
      L1  H    16    37       P1  2902  2.00

>  <Gold.PLP.Chemscore.Internal.Correction>  (89) 
0.5987

>  <Gold.PLP.Constraint>  (89) 
-0.0000

>  <Gold.Protein.RotatedTorsions>  (89) 
[  681  677  676  673 ] final   42.14 input -179.99 | X-H torsion
[  702  698  697  694 ] final   -8.00 input  179.99 | X-H torsion
[ 2577 2569 2568 2566 ] final  -81.46 input   -0.13 | X-H torsion
[ 2891 2887 2886 2883 ] final -122.93 input  179.98 | X-H torsion
[ 3175 3171 3170 3167 ] final -120.11 input -179.99 | X-H torsion
[ 5278 5270 5269 5267 ] final -104.15 input    0.55 | X-H torsion
[  641  637  636  633 ] final   29.30 input  179.99 | X-H torsion
[ 1886 1878 1877 1875 ] final -162.81 input    1.60 | X-H torsion
[  965  957  956  954 ] final   18.66 input    0.45 | X-H torsion

>  <Gold.Protein.ActiveResidues>  (89) 
 LYS47   THR48   LEU49   GLY50   THR51   GLY52   SER53   PHE54   GLY55   ARG56  
 VAL57   MET58   LEU59   TYR69   ALA70   MET71   LYS72   ILE73   LEU74   GLU91  
 LEU95   VAL104  LYS105  MET118  VAL119  MET120  GLU121  TYR122  VAL123  PRO124 
 GLY125  GLY126  GLU127  MET128  PHE129  TYR164  ASP166  LEU167  LYS168  PRO169 
 GLU170  ASN171  LEU172  LEU173  ILE174  GLN181  VAL182  THR183  ASP184  PHE185 
 GLY186  PHE187  GLY200  THR201  ASN326  PHE327  TYR330  ARG18   ARG19   ASN20  
 ALA21   ILE22   HIS23  

>  <Gold.Protein.RotatedAtoms>  (89) 
    9.6281   19.5239    8.3190 H   0  0  0  0  0  0  0  0  0  0  0  0  # atno 641  bound_to 637 
   16.4156   12.6327    6.1126 H   0  0  0  0  0  0  0  0  0  0  0  0  # atno 681  bound_to 677 
   19.5700   11.8102   -0.5410 H   0  0  0  0  0  0  0  0  0  0  0  0  # atno 702  bound_to 698 
   -6.8381   15.3756   -0.7402 H   0  0  0  0  0  0  0  0  0  0  0  0  # atno 965  bound_to 957 
    0.6153   11.2745   11.0220 H   0  0  0  0  0  0  0  0  0  0  0  0  # atno 1886 bound_to 1878
   10.8974    3.0964   -3.1669 H   0  0  0  0  0  0  0  0  0  0  0  0  # atno 2577 bound_to 2569
    7.1534    5.8871    1.5439 H   0  0  0  0  0  0  0  0  0  0  0  0  # atno 2891 bound_to 2887
   18.8594    2.7515    0.3110 H   0  0  0  0  0  0  0  0  0  0  0  0  # atno 3175 bound_to 3171
   13.9647    9.8422   10.3761 H   0  0  0  0  0  0  0  0  0  0  0  0  # atno 5278 bound_to 5270
   15.7009   13.3811    7.3230 LP  0  0  0  0  0  0  0  0  0  0  0  0  # atno 5914 bound_to 677 
   17.1953   13.8201    6.8324 LP  0  0  0  0  0  0  0  0  0  0  0  0  # atno 5915 bound_to 677 
   21.1093   11.5261   -0.8366 LP  0  0  0  0  0  0  0  0  0  0  0  0  # atno 5920 bound_to 698 
   20.0474   11.7380   -2.0590 LP  0  0  0  0  0  0  0  0  0  0  0  0  # atno 5921 bound_to 698 
   10.2818    1.8788   -2.3461 LP  0  0  0  0  0  0  0  0  0  0  0  0  # atno 5950 bound_to 2569
    9.3146    2.9252   -3.1436 LP  0  0  0  0  0  0  0  0  0  0  0  0  # atno 5951 bound_to 2569
    8.0602    6.9449    0.7724 LP  0  0  0  0  0  0  0  0  0  0  0  0  # atno 5982 bound_to 2887
    8.0861    5.3641    0.3637 LP  0  0  0  0  0  0  0  0  0  0  0  0  # atno 5983 bound_to 2887
   17.8921    1.9308   -0.6516 LP  0  0  0  0  0  0  0  0  0  0  0  0  # atno 6000 bound_to 3171
   19.1483    2.7823   -1.2546 LP  0  0  0  0  0  0  0  0  0  0  0  0  # atno 6001 bound_to 3171
   14.0158   10.2077    8.8267 LP  0  0  0  0  0  0  0  0  0  0  0  0  # atno 6004 bound_to 5270
   12.5878   10.0040    9.5920 LP  0  0  0  0  0  0  0  0  0  0  0  0  # atno 6005 bound_to 5270
   10.6341   18.9330    7.2356 LP  0  0  0  0  0  0  0  0  0  0  0  0  # atno 6055 bound_to 637 
   11.1903   19.6065    8.6153 LP  0  0  0  0  0  0  0  0  0  0  0  0  # atno 6056 bound_to 637 
    1.7899   12.2996   10.6979 LP  0  0  0  0  0  0  0  0  0  0  0  0  # atno 6063 bound_to 1878
    1.9477   10.7103   10.3573 LP  0  0  0  0  0  0  0  0  0  0  0  0  # atno 6064 bound_to 1878
   -6.4661   16.6829   -1.5695 LP  0  0  0  0  0  0  0  0  0  0  0  0  # atno 6067 bound_to 957 
   -7.1401   16.7956   -0.0864 LP  0  0  0  0  0  0  0  0  0  0  0  0  # atno 6068 bound_to 957 

>  <STRIFE_LigEff_Score>  (89) 
2.4835263157894736

$$$$
unknown|pharmsElabsTestPreDocking|sdf|90|dock5
     RDKit          3D

 16 16  0  0  0  0  0  0  0  0999 V2000
    3.6000    8.6092    3.9246 C   0  0  0  0  0  0  0  0  0  0  0  0
    3.5622    9.4223    5.1384 N   0  0  0  0  0  0  0  0  0  0  0  0
    4.9305    9.6936    5.5996 C   0  0  0  0  0  0  0  0  0  0  0  0
    5.8156   10.1547    4.4438 C   0  0  0  0  0  0  0  0  0  0  0  0
    7.1042    9.4723    4.4812 N   0  0  0  0  0  0  0  0  0  0  0  0
    7.9855    9.4782    3.3589 C   0  0  0  0  0  0  0  0  0  0  0  0
    7.6683   10.0970    2.3047 O   0  0  0  0  0  0  0  0  0  0  0  0
    9.2993    8.7532    3.4512 C   0  0  0  0  0  0  0  0  0  0  0  0
    9.5687    7.9763    2.1659 C   0  0  0  0  0  0  0  0  0  0  0  0
   10.8152    7.1127    2.2895 C   0  0  0  0  0  0  0  0  0  0  0  0
   12.0468    7.8032    2.9344 C   0  0  0  0  0  0  0  0  0  0  0  0
   13.3727    7.8822    2.1526 C   0  0  0  0  0  0  0  0  0  0  0  0
   14.6783    7.8907    2.9473 C   0  0  0  0  0  0  0  0  0  0  0  0
   13.3622    8.9534    1.1469 N   0  0  0  0  0  0  0  0  0  0  0  0
   11.7823    9.0420    3.8443 C   0  0  0  0  0  0  0  0  0  0  0  0
   10.4346    9.7428    3.6866 C   0  0  0  0  0  0  0  0  0  0  0  0
  1  2  1  0
  2  3  1  0
  3  4  1  0
  4  5  1  0
  5  6  1  0
  6  7  2  0
  6  8  1  0
  8  9  1  0
  9 10  1  0
 10 11  1  0
 11 12  1  0
 12 13  1  0
 12 14  1  0
 11 15  1  0
 15 16  1  0
 16  8  1  0
M  CHG  2   2   1  14   1
M  END
>  <EmbedRMS>  (90) 
0.2153162907233524

>  <Gold.Version>  (90) 
2020.3.0

>  <Gold.Id.Protein>  (90) 
unknown|1q8t_protein|pdb

>  <Gold.PLP.Fitness>  (90) 
40.7139

>  <Gold.PLP.PLP>  (90) 
-34.4706

>  <Gold.PLP.part.hbond>  (90) 
-1.5164

>  <Gold.PLP.part.metal>  (90) 
0.0000

>  <Gold.PLP.part.buried>  (90) 
-4.6873

>  <Gold.PLP.part.nonpolar>  (90) 
-28.2802

>  <Gold.PLP.part.repulsive>  (90) 
0.0976

>  <Gold.PLP.ligand.clash>  (90) 
0.0000

>  <Gold.PLP.ligand.torsion>  (90) 
1.2041

>  <Gold.PLP.Chemscore.Hbond>  (90) 
2.7475

>  <Gold.PLP.Chemscore.CHOScore>  (90) 
0.0000

>  <Gold.PLP.Chemscore.Metal>  (90) 
0.0000

>  <Gold.Chemscore.Hbonds>  (90) 
donor molecule, donor type, donor heavy atom, donor atom, acceptor molecule, acceptor atom, score
      L1  H     2    20       P1  1891  0.75
      L1  H    14    39       P1  2902  2.00

>  <Gold.PLP.Chemscore.Internal.Correction>  (90) 
0.4090

>  <Gold.PLP.Constraint>  (90) 
-0.0000

>  <Gold.Protein.RotatedTorsions>  (90) 
[  681  677  676  673 ] final  -78.25 input -179.99 | X-H torsion
[  702  698  697  694 ] final -125.66 input  179.99 | X-H torsion
[ 2577 2569 2568 2566 ] final -115.10 input   -0.13 | X-H torsion
[ 2891 2887 2886 2883 ] final  123.82 input  179.98 | X-H torsion
[ 3175 3171 3170 3167 ] final   64.45 input -179.99 | X-H torsion
[ 5278 5270 5269 5267 ] final -144.71 input    0.55 | X-H torsion
[  641  637  636  633 ] final -173.45 input  179.99 | X-H torsion
[ 1886 1878 1877 1875 ] final -136.36 input    1.60 | X-H torsion
[  965  957  956  954 ] final  -47.09 input    0.45 | X-H torsion

>  <Gold.Protein.ActiveResidues>  (90) 
 LYS47   THR48   LEU49   GLY50   THR51   GLY52   SER53   PHE54   GLY55   ARG56  
 VAL57   MET58   LEU59   TYR69   ALA70   MET71   LYS72   ILE73   LEU74   GLU91  
 LEU95   VAL104  LYS105  MET118  VAL119  MET120  GLU121  TYR122  VAL123  PRO124 
 GLY125  GLY126  GLU127  MET128  PHE129  TYR164  ASP166  LEU167  LYS168  PRO169 
 GLU170  ASN171  LEU172  LEU173  ILE174  GLN181  VAL182  THR183  ASP184  PHE185 
 GLY186  PHE187  GLY200  THR201  ASN326  PHE327  TYR330  ARG18   ARG19   ASN20  
 ALA21   ILE22   HIS23  

>  <Gold.Protein.RotatedAtoms>  (90) 
   11.3619   19.3282    8.1255 H   0  0  0  0  0  0  0  0  0  0  0  0  # atno 641  bound_to 637 
   15.7339   13.3906    7.2863 H   0  0  0  0  0  0  0  0  0  0  0  0  # atno 681  bound_to 677 
   21.0566   11.5520   -0.8166 H   0  0  0  0  0  0  0  0  0  0  0  0  # atno 702  bound_to 698 
   -6.4820   15.8456   -1.5129 H   0  0  0  0  0  0  0  0  0  0  0  0  # atno 965  bound_to 957 
    0.7393   10.9024   10.9038 H   0  0  0  0  0  0  0  0  0  0  0  0  # atno 1886 bound_to 1878
   11.0708    2.7013   -2.8798 H   0  0  0  0  0  0  0  0  0  0  0  0  # atno 2577 bound_to 2569
    7.9696    6.9306    0.8485 H   0  0  0  0  0  0  0  0  0  0  0  0  # atno 2891 bound_to 2887
   18.3744    2.1794   -1.3143 H   0  0  0  0  0  0  0  0  0  0  0  0  # atno 3175 bound_to 3171
   14.3698    9.9589    9.9200 H   0  0  0  0  0  0  0  0  0  0  0  0  # atno 5278 bound_to 5270
   17.1981   13.8170    6.8276 LP  0  0  0  0  0  0  0  0  0  0  0  0  # atno 5914 bound_to 677 
   16.4156   12.5866    6.0925 LP  0  0  0  0  0  0  0  0  0  0  0  0  # atno 5915 bound_to 677 
   20.0847   11.7315   -2.0659 LP  0  0  0  0  0  0  0  0  0  0  0  0  # atno 5920 bound_to 698 
   19.5083   11.8042   -0.5398 LP  0  0  0  0  0  0  0  0  0  0  0  0  # atno 5921 bound_to 698 
    9.7461    1.9415   -2.4289 LP  0  0  0  0  0  0  0  0  0  0  0  0  # atno 5950 bound_to 2569
    9.6678    3.2786   -3.3631 LP  0  0  0  0  0  0  0  0  0  0  0  0  # atno 5951 bound_to 2569
    8.1466    5.4415    0.3121 LP  0  0  0  0  0  0  0  0  0  0  0  0  # atno 5982 bound_to 2887
    7.1406    5.7693    1.5560 LP  0  0  0  0  0  0  0  0  0  0  0  0  # atno 5983 bound_to 2887
   19.3859    3.0625   -0.4583 LP  0  0  0  0  0  0  0  0  0  0  0  0  # atno 6000 bound_to 3171
   18.1649    2.2526    0.2625 LP  0  0  0  0  0  0  0  0  0  0  0  0  # atno 6001 bound_to 3171
   13.3737   10.2304    8.7071 LP  0  0  0  0  0  0  0  0  0  0  0  0  # atno 6004 bound_to 5270
   12.8036    9.8584   10.1914 LP  0  0  0  0  0  0  0  0  0  0  0  0  # atno 6005 bound_to 5270
    9.9592   19.7454    8.7527 LP  0  0  0  0  0  0  0  0  0  0  0  0  # atno 6055 bound_to 637 
   10.0394   19.0001    7.3019 LP  0  0  0  0  0  0  0  0  0  0  0  0  # atno 6056 bound_to 637 
    1.4012   12.3503   10.8779 LP  0  0  0  0  0  0  0  0  0  0  0  0  # atno 6063 bound_to 1878
    2.2058   11.0514   10.3017 LP  0  0  0  0  0  0  0  0  0  0  0  0  # atno 6064 bound_to 1878
   -6.8251   17.2112   -0.7698 LP  0  0  0  0  0  0  0  0  0  0  0  0  # atno 6067 bound_to 957 
   -7.1562   15.7722   -0.0724 LP  0  0  0  0  0  0  0  0  0  0  0  0  # atno 6068 bound_to 957 

>  <STRIFE_LigEff_Score>  (90) 
2.54461875

$$$$
unknown|pharmsElabsTestPreDocking|sdf|91|dock4
     RDKit          3D

 18 19  0  0  0  0  0  0  0  0999 V2000
    2.6044    9.5064    2.0628 C   0  0  0  0  0  0  0  0  0  0  0  0
    3.6270    9.4911    3.1487 C   0  0  0  0  0  0  0  0  0  0  0  0
    4.9933    9.2597    2.8859 C   0  0  0  0  0  0  0  0  0  0  0  0
    5.7656    9.2818    4.0341 C   0  0  0  0  0  0  0  0  0  0  0  0
    7.1815    9.0742    4.0810 N   0  0  0  0  0  0  0  0  0  0  0  0
    8.0557    9.0877    2.9448 C   0  0  0  0  0  0  0  0  0  0  0  0
    7.6118    9.3299    1.7881 O   0  0  0  0  0  0  0  0  0  0  0  0
    9.5257    8.8329    3.1501 C   0  0  0  0  0  0  0  0  0  0  0  0
    9.9961    7.6715    2.2779 C   0  0  0  0  0  0  0  0  0  0  0  0
   11.4402    7.2962    2.5800 C   0  0  0  0  0  0  0  0  0  0  0  0
   12.4284    8.4858    2.7142 C   0  0  0  0  0  0  0  0  0  0  0  0
   13.6711    8.5518    1.8044 C   0  0  0  0  0  0  0  0  0  0  0  0
   13.9430    9.8527    1.0490 C   0  0  0  0  0  0  0  0  0  0  0  0
   13.7654    7.3927    0.9062 N   0  0  0  0  0  0  0  0  0  0  0  0
   11.8276    9.8840    3.0551 C   0  0  0  0  0  0  0  0  0  0  0  0
   10.3337   10.0782    2.8014 C   0  0  0  0  0  0  0  0  0  0  0  0
    4.7155    9.5787    5.2957 S   0  0  0  0  0  0  0  0  0  0  0  0
    3.2873    9.6876    4.4517 N   0  0  0  0  0  0  0  0  0  0  0  0
  1  2  1  0
  2  3  1  0
  3  4  2  0
  4  5  1  0
  5  6  1  0
  6  7  2  0
  6  8  1  0
  8  9  1  0
  9 10  1  0
 10 11  1  0
 11 12  1  0
 12 13  1  0
 12 14  1  0
 11 15  1  0
 15 16  1  0
  4 17  1  0
 17 18  1  0
 18  2  2  0
 16  8  1  0
M  CHG  1  14   1
M  END
>  <EmbedRMS>  (91) 
0.20198796152370316

>  <Gold.Version>  (91) 
2020.3.0

>  <Gold.Id.Protein>  (91) 
unknown|1q8t_protein|pdb

>  <Gold.PLP.Fitness>  (91) 
49.6109

>  <Gold.PLP.PLP>  (91) 
-40.0885

>  <Gold.PLP.part.hbond>  (91) 
-3.0012

>  <Gold.PLP.part.metal>  (91) 
0.0000

>  <Gold.PLP.part.buried>  (91) 
-0.2376

>  <Gold.PLP.part.nonpolar>  (91) 
-37.9326

>  <Gold.PLP.part.repulsive>  (91) 
0.1575

>  <Gold.PLP.ligand.clash>  (91) 
0.0000

>  <Gold.PLP.ligand.torsion>  (91) 
1.3298

>  <Gold.PLP.Chemscore.Hbond>  (91) 
3.9280

>  <Gold.PLP.Chemscore.CHOScore>  (91) 
0.0000

>  <Gold.PLP.Chemscore.Metal>  (91) 
0.0000

>  <Gold.Chemscore.Hbonds>  (91) 
donor molecule, donor type, donor heavy atom, donor atom, acceptor molecule, acceptor atom, score
      L1  H    14    35       P1  2902  2.00
      L1  H    14    36       P1  2691  0.93
      P1  H  1888  1903       L1    18  1.00

>  <Gold.PLP.Chemscore.Internal.Correction>  (91) 
0.3980

>  <Gold.PLP.Constraint>  (91) 
-0.0000

>  <Gold.Protein.RotatedTorsions>  (91) 
[  681  677  676  673 ] final -149.10 input -179.99 | X-H torsion
[  702  698  697  694 ] final   -9.95 input  179.99 | X-H torsion
[ 2577 2569 2568 2566 ] final   27.01 input   -0.13 | X-H torsion
[ 2891 2887 2886 2883 ] final  -85.40 input  179.98 | X-H torsion
[ 3175 3171 3170 3167 ] final  -83.47 input -179.99 | X-H torsion
[ 5278 5270 5269 5267 ] final -158.64 input    0.55 | X-H torsion
[  641  637  636  633 ] final  157.78 input  179.99 | X-H torsion
[ 1886 1878 1877 1875 ] final -178.28 input    1.60 | X-H torsion
[  965  957  956  954 ] final  -91.88 input    0.45 | X-H torsion

>  <Gold.Protein.ActiveResidues>  (91) 
 LYS47   THR48   LEU49   GLY50   THR51   GLY52   SER53   PHE54   GLY55   ARG56  
 VAL57   MET58   LEU59   TYR69   ALA70   MET71   LYS72   ILE73   LEU74   GLU91  
 LEU95   VAL104  LYS105  MET118  VAL119  MET120  GLU121  TYR122  VAL123  PRO124 
 GLY125  GLY126  GLU127  MET128  PHE129  TYR164  ASP166  LEU167  LYS168  PRO169 
 GLU170  ASN171  LEU172  LEU173  ILE174  GLN181  VAL182  THR183  ASP184  PHE185 
 GLY186  PHE187  GLY200  THR201  ASN326  PHE327  TYR330  ARG18   ARG19   ASN20  
 ALA21   ILE22   HIS23  

>  <Gold.Protein.RotatedAtoms>  (91) 
   11.2305   19.5273    8.5010 H   0  0  0  0  0  0  0  0  0  0  0  0  # atno 641  bound_to 637 
   16.6089   13.9498    7.2987 H   0  0  0  0  0  0  0  0  0  0  0  0  # atno 681  bound_to 677 
   19.5903   11.8061   -0.5185 H   0  0  0  0  0  0  0  0  0  0  0  0  # atno 702  bound_to 698 
   -6.4480   16.5243   -1.5734 H   0  0  0  0  0  0  0  0  0  0  0  0  # atno 965  bound_to 957 
    0.6218   11.5125   11.0597 H   0  0  0  0  0  0  0  0  0  0  0  0  # atno 1886 bound_to 1878
    9.4469    3.0334   -3.2294 H   0  0  0  0  0  0  0  0  0  0  0  0  # atno 2577 bound_to 2569
    7.2850    5.3955    1.2736 H   0  0  0  0  0  0  0  0  0  0  0  0  # atno 2891 bound_to 2887
   19.2280    2.9772   -0.0498 H   0  0  0  0  0  0  0  0  0  0  0  0  # atno 3175 bound_to 3171
   14.4204   10.0100    9.7149 H   0  0  0  0  0  0  0  0  0  0  0  0  # atno 5278 bound_to 5270
   17.0763   13.0089    6.1019 LP  0  0  0  0  0  0  0  0  0  0  0  0  # atno 5914 bound_to 677 
   15.6166   12.8061    6.8052 LP  0  0  0  0  0  0  0  0  0  0  0  0  # atno 5915 bound_to 677 
   21.1189   11.5250   -0.8672 LP  0  0  0  0  0  0  0  0  0  0  0  0  # atno 5920 bound_to 698 
   20.0166   11.7433   -2.0520 LP  0  0  0  0  0  0  0  0  0  0  0  0  # atno 5921 bound_to 698 
   11.0308    2.9998   -3.0696 LP  0  0  0  0  0  0  0  0  0  0  0  0  # atno 5950 bound_to 2569
   10.0929    1.8706   -2.3543 LP  0  0  0  0  0  0  0  0  0  0  0  0  # atno 5951 bound_to 2569
    7.6635    6.9419    1.2312 LP  0  0  0  0  0  0  0  0  0  0  0  0  # atno 5982 bound_to 2887
    8.3442    5.8845    0.1894 LP  0  0  0  0  0  0  0  0  0  0  0  0  # atno 5983 bound_to 2887
   17.9395    2.0419   -0.0714 LP  0  0  0  0  0  0  0  0  0  0  0  0  # atno 6000 bound_to 3171
   18.7131    2.4336   -1.4551 LP  0  0  0  0  0  0  0  0  0  0  0  0  # atno 6001 bound_to 3171
   13.1545   10.2127    8.7698 LP  0  0  0  0  0  0  0  0  0  0  0  0  # atno 6004 bound_to 5270
   12.9695    9.8224   10.3446 LP  0  0  0  0  0  0  0  0  0  0  0  0  # atno 6005 bound_to 5270
    9.6413   19.6032    8.4394 LP  0  0  0  0  0  0  0  0  0  0  0  0  # atno 6055 bound_to 637 
   10.4956   18.9327    7.2198 LP  0  0  0  0  0  0  0  0  0  0  0  0  # atno 6056 bound_to 637 
    1.9879   12.1827   10.5907 LP  0  0  0  0  0  0  0  0  0  0  0  0  # atno 6063 bound_to 1878
    1.7428   10.5767   10.4248 LP  0  0  0  0  0  0  0  0  0  0  0  0  # atno 6064 bound_to 1878
   -7.0989   16.9168   -0.1743 LP  0  0  0  0  0  0  0  0  0  0  0  0  # atno 6067 bound_to 957 
   -6.9182   15.3518   -0.6042 LP  0  0  0  0  0  0  0  0  0  0  0  0  # atno 6068 bound_to 957 

>  <STRIFE_LigEff_Score>  (91) 
2.756161111111111

$$$$
unknown|pharmsElabsTestPreDocking|sdf|92|dock4
     RDKit          3D

 17 17  0  0  0  0  0  0  0  0999 V2000
   14.6031    9.1561    1.4590 C   0  0  0  0  0  0  0  0  0  0  0  0
   13.6973    7.9554    1.6748 C   0  0  0  0  0  0  0  0  0  0  0  0
   14.0284    6.7864    0.8668 N   0  0  0  0  0  0  0  0  0  0  0  0
   12.1856    8.2459    1.9307 C   0  0  0  0  0  0  0  0  0  0  0  0
   11.3851    7.2146    2.7413 C   0  0  0  0  0  0  0  0  0  0  0  0
    9.8667    7.4373    2.5823 C   0  0  0  0  0  0  0  0  0  0  0  0
    9.4706    8.8724    2.2251 C   0  0  0  0  0  0  0  0  0  0  0  0
    7.9939    9.1446    2.2450 C   0  0  0  0  0  0  0  0  0  0  0  0
    7.5856    9.9377    1.3612 O   0  0  0  0  0  0  0  0  0  0  0  0
    7.0509    8.5974    3.1849 N   0  0  0  0  0  0  0  0  0  0  0  0
    5.7335    9.1788    3.3541 C   0  0  0  0  0  0  0  0  0  0  0  0
    4.8265    8.9887    2.4473 N   0  0  0  0  0  0  0  0  0  0  0  0
    5.3905    9.9179    4.5502 N   0  0  0  0  0  0  0  0  0  0  0  0
    6.3626   10.1034    5.6298 C   0  0  0  0  0  0  0  0  0  0  0  0
    4.0167   10.3803    4.7649 C   0  0  0  0  0  0  0  0  0  0  0  0
   10.4091   10.0295    2.5317 C   0  0  0  0  0  0  0  0  0  0  0  0
   11.9079    9.6612    2.4773 C   0  0  0  0  0  0  0  0  0  0  0  0
  1  2  1  0
  2  3  1  0
  2  4  1  0
  4  5  1  0
  5  6  1  0
  6  7  1  0
  7  8  1  0
  8  9  2  0
  8 10  1  0
 10 11  1  0
 11 12  2  0
 11 13  1  0
 13 14  1  0
 13 15  1  0
  7 16  1  0
 16 17  1  0
 17  4  1  0
M  CHG  1   3   1
M  END
>  <EmbedRMS>  (92) 
0.258260798322235

>  <Gold.Version>  (92) 
2020.3.0

>  <Gold.Id.Protein>  (92) 
unknown|1q8t_protein|pdb

>  <Gold.PLP.Fitness>  (92) 
43.3533

>  <Gold.PLP.PLP>  (92) 
-36.4184

>  <Gold.PLP.part.hbond>  (92) 
-1.9571

>  <Gold.PLP.part.metal>  (92) 
0.0000

>  <Gold.PLP.part.buried>  (92) 
-2.8163

>  <Gold.PLP.part.nonpolar>  (92) 
-32.1669

>  <Gold.PLP.part.repulsive>  (92) 
0.0938

>  <Gold.PLP.ligand.clash>  (92) 
0.0000

>  <Gold.PLP.ligand.torsion>  (92) 
1.5191

>  <Gold.PLP.Chemscore.Hbond>  (92) 
2.9840

>  <Gold.PLP.Chemscore.CHOScore>  (92) 
0.0000

>  <Gold.PLP.Chemscore.Metal>  (92) 
0.0000

>  <Gold.Chemscore.Hbonds>  (92) 
donor molecule, donor type, donor heavy atom, donor atom, acceptor molecule, acceptor atom, score
      L1  H     3    22       P1  2691  1.00
      L1  H     3    24       P1  2902  1.98

>  <Gold.PLP.Chemscore.Internal.Correction>  (92) 
1.0212

>  <Gold.PLP.Constraint>  (92) 
-0.0000

>  <Gold.Protein.RotatedTorsions>  (92) 
[  681  677  676  673 ] final   99.92 input -179.99 | X-H torsion
[  702  698  697  694 ] final  -81.12 input  179.99 | X-H torsion
[ 2577 2569 2568 2566 ] final -120.65 input   -0.13 | X-H torsion
[ 2891 2887 2886 2883 ] final   35.39 input  179.98 | X-H torsion
[ 3175 3171 3170 3167 ] final  -16.06 input -179.99 | X-H torsion
[ 5278 5270 5269 5267 ] final -129.09 input    0.55 | X-H torsion
[  641  637  636  633 ] final   56.96 input  179.99 | X-H torsion
[ 1886 1878 1877 1875 ] final -152.83 input    1.60 | X-H torsion
[  965  957  956  954 ] final  107.49 input    0.45 | X-H torsion

>  <Gold.Protein.ActiveResidues>  (92) 
 LYS47   THR48   LEU49   GLY50   THR51   GLY52   SER53   PHE54   GLY55   ARG56  
 VAL57   MET58   LEU59   TYR69   ALA70   MET71   LYS72   ILE73   LEU74   GLU91  
 LEU95   VAL104  LYS105  MET118  VAL119  MET120  GLU121  TYR122  VAL123  PRO124 
 GLY125  GLY126  GLU127  MET128  PHE129  TYR164  ASP166  LEU167  LYS168  PRO169 
 GLU170  ASN171  LEU172  LEU173  ILE174  GLN181  VAL182  THR183  ASP184  PHE185 
 GLY186  PHE187  GLY200  THR201  ASN326  PHE327  TYR330  ARG18   ARG19   ASN20  
 ALA21   ILE22   HIS23  

>  <Gold.Protein.RotatedAtoms>  (92) 
    9.8657   19.6751    8.6412 H   0  0  0  0  0  0  0  0  0  0  0  0  # atno 641  bound_to 637 
   17.1171   13.1358    6.1768 H   0  0  0  0  0  0  0  0  0  0  0  0  # atno 681  bound_to 677 
   20.5980   11.6237   -0.3206 H   0  0  0  0  0  0  0  0  0  0  0  0  # atno 702  bound_to 698 
   -7.1755   16.3122    0.0208 H   0  0  0  0  0  0  0  0  0  0  0  0  # atno 965  bound_to 957 
    0.6427   11.1258   10.9846 H   0  0  0  0  0  0  0  0  0  0  0  0  # atno 1886 bound_to 1878
   11.0707    2.6301   -2.8304 H   0  0  0  0  0  0  0  0  0  0  0  0  # atno 2577 bound_to 2569
    8.3058    5.9080    0.2141 H   0  0  0  0  0  0  0  0  0  0  0  0  # atno 2891 bound_to 2887
   19.2601    2.8716   -1.0376 H   0  0  0  0  0  0  0  0  0  0  0  0  # atno 3175 bound_to 3171
   14.2546    9.9064   10.1279 H   0  0  0  0  0  0  0  0  0  0  0  0  # atno 5278 bound_to 5270
   15.6676   12.7244    6.6925 LP  0  0  0  0  0  0  0  0  0  0  0  0  # atno 5914 bound_to 677 
   16.4904   13.9474    7.3953 LP  0  0  0  0  0  0  0  0  0  0  0  0  # atno 5915 bound_to 677 
   20.7695   11.6070   -1.9041 LP  0  0  0  0  0  0  0  0  0  0  0  0  # atno 5920 bound_to 698 
   19.3058   11.8533   -1.2233 LP  0  0  0  0  0  0  0  0  0  0  0  0  # atno 5921 bound_to 698 
    9.6673    1.9763   -2.4589 LP  0  0  0  0  0  0  0  0  0  0  0  0  # atno 5950 bound_to 2569
    9.7467    3.3187   -3.3852 LP  0  0  0  0  0  0  0  0  0  0  0  0  # atno 5951 bound_to 2569
    7.2786    5.3495    1.2956 LP  0  0  0  0  0  0  0  0  0  0  0  0  # atno 5982 bound_to 2887
    7.6549    6.9376    1.2401 LP  0  0  0  0  0  0  0  0  0  0  0  0  # atno 5983 bound_to 2887
   18.6523    2.6335    0.4148 LP  0  0  0  0  0  0  0  0  0  0  0  0  # atno 6000 bound_to 3171
   17.9665    1.9531   -0.9017 LP  0  0  0  0  0  0  0  0  0  0  0  0  # atno 6001 bound_to 3171
   13.6298   10.2348    8.7002 LP  0  0  0  0  0  0  0  0  0  0  0  0  # atno 6004 bound_to 5270
   12.6688    9.9092    9.9796 LP  0  0  0  0  0  0  0  0  0  0  0  0  # atno 6005 bound_to 5270
   10.1850   18.9664    7.2517 LP  0  0  0  0  0  0  0  0  0  0  0  0  # atno 6055 bound_to 637 
   11.3892   19.4138    8.2598 LP  0  0  0  0  0  0  0  0  0  0  0  0  # atno 6056 bound_to 637 
    1.6476   12.3417   10.7678 LP  0  0  0  0  0  0  0  0  0  0  0  0  # atno 6063 bound_to 1878
    2.0611   10.8248   10.3268 LP  0  0  0  0  0  0  0  0  0  0  0  0  # atno 6064 bound_to 1878
   -6.6483   15.4305   -1.1956 LP  0  0  0  0  0  0  0  0  0  0  0  0  # atno 6067 bound_to 957 
   -6.6025   17.0615   -1.2619 LP  0  0  0  0  0  0  0  0  0  0  0  0  # atno 6068 bound_to 957 

>  <STRIFE_LigEff_Score>  (92) 
2.5501941176470586

$$$$
unknown|pharmsElabsTestPreDocking|sdf|93|dock5
     RDKit          3D

 19 19  0  0  0  0  0  0  0  0999 V2000
    3.9552    9.8001    5.5549 C   0  0  0  0  0  0  0  0  0  0  0  0
    5.0879    9.8906    4.8508 C   0  0  0  0  0  0  0  0  0  0  0  0
    6.3507    9.9874    5.6607 C   0  0  0  0  0  0  0  0  0  0  0  0
    5.1350   10.0820    3.3607 C   0  0  0  0  0  0  0  0  0  0  0  0
    4.3254    9.4507    2.4792 C   0  0  0  0  0  0  0  0  0  0  0  0
    3.2989    8.4077    2.8015 C   0  0  0  0  0  0  0  0  0  0  0  0
    6.1797   11.0071    2.7704 C   0  0  0  0  0  0  0  0  0  0  0  0
    7.5001   10.3989    2.8669 N   0  0  0  0  0  0  0  0  0  0  0  0
    7.7436    9.0371    2.5022 C   0  0  0  0  0  0  0  0  0  0  0  0
    6.8181    8.3375    2.0006 O   0  0  0  0  0  0  0  0  0  0  0  0
    9.1185    8.4497    2.6920 C   0  0  0  0  0  0  0  0  0  0  0  0
    9.7681    8.2348    1.3300 C   0  0  0  0  0  0  0  0  0  0  0  0
   11.1120    7.5371    1.4294 C   0  0  0  0  0  0  0  0  0  0  0  0
   11.9908    7.9833    2.6131 C   0  0  0  0  0  0  0  0  0  0  0  0
   13.5399    7.8371    2.4071 C   0  0  0  0  0  0  0  0  0  0  0  0
   14.3416    7.3346    3.6173 C   0  0  0  0  0  0  0  0  0  0  0  0
   13.8713    7.0438    1.2181 N   0  0  0  0  0  0  0  0  0  0  0  0
   11.4747    9.0607    3.5899 C   0  0  0  0  0  0  0  0  0  0  0  0
    9.9688    9.3850    3.5587 C   0  0  0  0  0  0  0  0  0  0  0  0
  1  2  2  0
  2  3  1  0
  2  4  1  0
  4  5  2  0
  5  6  1  0
  4  7  1  0
  7  8  1  0
  8  9  1  0
  9 10  2  0
  9 11  1  0
 11 12  1  0
 12 13  1  0
 13 14  1  0
 14 15  1  0
 15 16  1  0
 15 17  1  0
 14 18  1  0
 18 19  1  0
 19 11  1  0
M  CHG  1  17   1
M  END
>  <EmbedRMS>  (93) 
0.16423161568044162

>  <Gold.Version>  (93) 
2020.3.0

>  <Gold.Id.Protein>  (93) 
unknown|1q8t_protein|pdb

>  <Gold.PLP.Fitness>  (93) 
52.2318

>  <Gold.PLP.PLP>  (93) 
-42.2718

>  <Gold.PLP.part.hbond>  (93) 
-3.0000

>  <Gold.PLP.part.metal>  (93) 
0.0000

>  <Gold.PLP.part.buried>  (93) 
1.8051

>  <Gold.PLP.part.nonpolar>  (93) 
-40.8075

>  <Gold.PLP.part.repulsive>  (93) 
0.0579

>  <Gold.PLP.ligand.clash>  (93) 
0.0000

>  <Gold.PLP.ligand.torsion>  (93) 
1.6612

>  <Gold.PLP.Chemscore.Hbond>  (93) 
3.9920

>  <Gold.PLP.Chemscore.CHOScore>  (93) 
0.0000

>  <Gold.PLP.Chemscore.Metal>  (93) 
0.0000

>  <Gold.Chemscore.Hbonds>  (93) 
donor molecule, donor type, donor heavy atom, donor atom, acceptor molecule, acceptor atom, score
      L1  H    17    43       P1  2691  1.00
      L1  H    17    44       P1  2902  2.00
      P1  H  2887  2891       L1    10  0.99

>  <Gold.PLP.Chemscore.Internal.Correction>  (93) 
1.3064

>  <Gold.PLP.Constraint>  (93) 
-0.0000

>  <Gold.Protein.RotatedTorsions>  (93) 
[  681  677  676  673 ] final -120.10 input -179.99 | X-H torsion
[  702  698  697  694 ] final  -41.62 input  179.99 | X-H torsion
[ 2577 2569 2568 2566 ] final -101.58 input   -0.13 | X-H torsion
[ 2891 2887 2886 2883 ] final  165.82 input  179.98 | X-H torsion
[ 3175 3171 3170 3167 ] final  141.70 input -179.99 | X-H torsion
[ 5278 5270 5269 5267 ] final -178.03 input    0.55 | X-H torsion
[  641  637  636  633 ] final  177.88 input  179.99 | X-H torsion
[ 1886 1878 1877 1875 ] final  170.15 input    1.60 | X-H torsion
[  965  957  956  954 ] final   14.43 input    0.45 | X-H torsion

>  <Gold.Protein.ActiveResidues>  (93) 
 LYS47   THR48   LEU49   GLY50   THR51   GLY52   SER53   PHE54   GLY55   ARG56  
 VAL57   MET58   LEU59   TYR69   ALA70   MET71   LYS72   ILE73   LEU74   GLU91  
 LEU95   VAL104  LYS105  MET118  VAL119  MET120  GLU121  TYR122  VAL123  PRO124 
 GLY125  GLY126  GLU127  MET128  PHE129  TYR164  ASP166  LEU167  LYS168  PRO169 
 GLU170  ASN171  LEU172  LEU173  ILE174  GLN181  VAL182  THR183  ASP184  PHE185 
 GLY186  PHE187  GLY200  THR201  ASN326  PHE327  TYR330  ARG18   ARG19   ASN20  
 ALA21   ILE22   HIS23  

>  <Gold.Protein.RotatedAtoms>  (93) 
   11.3450   19.3900    8.2447 H   0  0  0  0  0  0  0  0  0  0  0  0  # atno 641  bound_to 637 
   16.1986   13.8112    7.4154 H   0  0  0  0  0  0  0  0  0  0  0  0  # atno 681  bound_to 677 
   20.0036   11.7280   -0.2689 H   0  0  0  0  0  0  0  0  0  0  0  0  # atno 702  bound_to 698 
   -6.8107   15.3735   -0.8005 H   0  0  0  0  0  0  0  0  0  0  0  0  # atno 965  bound_to 957 
    0.6653   11.6875   11.0704 H   0  0  0  0  0  0  0  0  0  0  0  0  # atno 1886 bound_to 1878
   11.0359    2.8710   -3.0002 H   0  0  0  0  0  0  0  0  0  0  0  0  # atno 2577 bound_to 2569
    7.5435    6.8284    1.3176 H   0  0  0  0  0  0  0  0  0  0  0  0  # atno 2891 bound_to 2887
   17.9312    1.9831   -0.3067 H   0  0  0  0  0  0  0  0  0  0  0  0  # atno 3175 bound_to 3171
   14.4036   10.0820    9.4223 H   0  0  0  0  0  0  0  0  0  0  0  0  # atno 5278 bound_to 5270
   17.2786   13.3678    6.3324 LP  0  0  0  0  0  0  0  0  0  0  0  0  # atno 5914 bound_to 677 
   15.8461   12.5932    6.4519 LP  0  0  0  0  0  0  0  0  0  0  0  0  # atno 5915 bound_to 677 
   21.1267   11.5336   -1.3816 LP  0  0  0  0  0  0  0  0  0  0  0  0  # atno 5920 bound_to 698 
   19.5739   11.8169   -1.8002 LP  0  0  0  0  0  0  0  0  0  0  0  0  # atno 5921 bound_to 698 
    9.9538    1.8848   -2.3743 LP  0  0  0  0  0  0  0  0  0  0  0  0  # atno 5950 bound_to 2569
    9.4967    3.1566   -3.2909 LP  0  0  0  0  0  0  0  0  0  0  0  0  # atno 5951 bound_to 2569
    8.3769    6.0658    0.1950 LP  0  0  0  0  0  0  0  0  0  0  0  0  # atno 5982 bound_to 2887
    7.3589    5.2526    1.1793 LP  0  0  0  0  0  0  0  0  0  0  0  0  # atno 5983 bound_to 2887
   18.9038    2.5799   -1.4173 LP  0  0  0  0  0  0  0  0  0  0  0  0  # atno 6000 bound_to 3171
   19.1134    2.9418    0.1611 LP  0  0  0  0  0  0  0  0  0  0  0  0  # atno 6001 bound_to 3171
   12.8888   10.1685    8.9379 LP  0  0  0  0  0  0  0  0  0  0  0  0  # atno 6004 bound_to 5270
   13.2530    9.7908   10.4843 LP  0  0  0  0  0  0  0  0  0  0  0  0  # atno 6005 bound_to 5270
    9.8458   19.7113    8.6735 LP  0  0  0  0  0  0  0  0  0  0  0  0  # atno 6055 bound_to 637 
   10.1705   18.9692    7.2556 LP  0  0  0  0  0  0  0  0  0  0  0  0  # atno 6056 bound_to 637 
    2.1108   12.0587   10.5154 LP  0  0  0  0  0  0  0  0  0  0  0  0  # atno 6063 bound_to 1878
    1.5742   10.5166   10.4889 LP  0  0  0  0  0  0  0  0  0  0  0  0  # atno 6064 bound_to 1878
   -6.4793   16.7443   -1.5394 LP  0  0  0  0  0  0  0  0  0  0  0  0  # atno 6067 bound_to 957 
   -7.1558   16.7364   -0.0531 LP  0  0  0  0  0  0  0  0  0  0  0  0  # atno 6068 bound_to 957 

>  <STRIFE_LigEff_Score>  (93) 
2.749042105263158

$$$$
unknown|pharmsElabsTestPreDocking|sdf|94|dock10
     RDKit          3D

 18 19  0  0  0  0  0  0  0  0999 V2000
   14.5160    9.2021    1.3401 C   0  0  0  0  0  0  0  0  0  0  0  0
   13.6520    7.9883    1.6385 C   0  0  0  0  0  0  0  0  0  0  0  0
   13.9171    6.8265    0.7971 N   0  0  0  0  0  0  0  0  0  0  0  0
   12.1698    8.2577    2.0410 C   0  0  0  0  0  0  0  0  0  0  0  0
   11.4529    7.1928    2.8857 C   0  0  0  0  0  0  0  0  0  0  0  0
    9.9272    7.4090    2.8724 C   0  0  0  0  0  0  0  0  0  0  0  0
    9.4998    8.8562    2.6152 C   0  0  0  0  0  0  0  0  0  0  0  0
    8.0287    9.1025    2.7441 C   0  0  0  0  0  0  0  0  0  0  0  0
    7.5040    9.5272    1.6917 O   0  0  0  0  0  0  0  0  0  0  0  0
    7.2257    8.8908    3.9285 N   0  0  0  0  0  0  0  0  0  0  0  0
    5.8204    9.2630    4.0506 C   0  0  0  0  0  0  0  0  0  0  0  0
    4.9696    9.1166    2.9380 C   0  0  0  0  0  0  0  0  0  0  0  0
    3.6108    9.4527    3.0239 C   0  0  0  0  0  0  0  0  0  0  0  0
    3.0806    9.9486    4.2155 C   0  0  0  0  0  0  0  0  0  0  0  0
    3.8998   10.0999    5.3265 C   0  0  0  0  0  0  0  0  0  0  0  0
    5.2448    9.7515    5.2560 C   0  0  0  0  0  0  0  0  0  0  0  0
   10.4510   10.0087    2.8767 C   0  0  0  0  0  0  0  0  0  0  0  0
   11.9376    9.6537    2.6583 C   0  0  0  0  0  0  0  0  0  0  0  0
  1  2  1  0
  2  3  1  0
  2  4  1  0
  4  5  1  0
  5  6  1  0
  6  7  1  0
  7  8  1  0
  8  9  2  0
  8 10  1  0
 10 11  1  0
 11 12  2  0
 12 13  1  0
 13 14  2  0
 14 15  1  0
 15 16  2  0
  7 17  1  0
 17 18  1  0
 18  4  1  0
 16 11  1  0
M  CHG  1   3   1
M  END
>  <EmbedRMS>  (94) 
0.24964892458419108

>  <Gold.Version>  (94) 
2020.3.0

>  <Gold.Id.Protein>  (94) 
unknown|1q8t_protein|pdb

>  <Gold.PLP.Fitness>  (94) 
54.9990

>  <Gold.PLP.PLP>  (94) 
-47.1904

>  <Gold.PLP.part.hbond>  (94) 
-1.8600

>  <Gold.PLP.part.metal>  (94) 
0.0000

>  <Gold.PLP.part.buried>  (94) 
-1.2892

>  <Gold.PLP.part.nonpolar>  (94) 
-44.8186

>  <Gold.PLP.part.repulsive>  (94) 
0.0895

>  <Gold.PLP.ligand.clash>  (94) 
0.0000

>  <Gold.PLP.ligand.torsion>  (94) 
1.0507

>  <Gold.PLP.Chemscore.Hbond>  (94) 
2.9920

>  <Gold.PLP.Chemscore.CHOScore>  (94) 
0.0000

>  <Gold.PLP.Chemscore.Metal>  (94) 
0.0000

>  <Gold.Chemscore.Hbonds>  (94) 
donor molecule, donor type, donor heavy atom, donor atom, acceptor molecule, acceptor atom, score
      L1  H     3    24       P1  2902  2.00
      L1  H     3    25       P1  2691  0.99

>  <Gold.PLP.Chemscore.Internal.Correction>  (94) 
0.9340

>  <Gold.PLP.Constraint>  (94) 
-0.0000

>  <Gold.Protein.RotatedTorsions>  (94) 
[  681  677  676  673 ] final  -59.81 input -179.99 | X-H torsion
[  702  698  697  694 ] final  -52.58 input  179.99 | X-H torsion
[ 2577 2569 2568 2566 ] final -161.28 input   -0.13 | X-H torsion
[ 2891 2887 2886 2883 ] final  -13.88 input  179.98 | X-H torsion
[ 3175 3171 3170 3167 ] final   -9.55 input -179.99 | X-H torsion
[ 5278 5270 5269 5267 ] final  -25.31 input    0.55 | X-H torsion
[  641  637  636  633 ] final -176.50 input  179.99 | X-H torsion
[ 1886 1878 1877 1875 ] final  -53.11 input    1.60 | X-H torsion
[  965  957  956  954 ] final   24.12 input    0.45 | X-H torsion

>  <Gold.Protein.ActiveResidues>  (94) 
 LYS47   THR48   LEU49   GLY50   THR51   GLY52   SER53   PHE54   GLY55   ARG56  
 VAL57   MET58   LEU59   TYR69   ALA70   MET71   LYS72   ILE73   LEU74   GLU91  
 LEU95   VAL104  LYS105  MET118  VAL119  MET120  GLU121  TYR122  VAL123  PRO124 
 GLY125  GLY126  GLU127  MET128  PHE129  TYR164  ASP166  LEU167  LYS168  PRO169 
 GLU170  ASN171  LEU172  LEU173  ILE174  GLN181  VAL182  THR183  ASP184  PHE185 
 GLY186  PHE187  GLY200  THR201  ASN326  PHE327  TYR330  ARG18   ARG19   ASN20  
 ALA21   ILE22   HIS23  

>  <Gold.Protein.RotatedAtoms>  (94) 
   11.3583   19.3500    8.1678 H   0  0  0  0  0  0  0  0  0  0  0  0  # atno 641  bound_to 637 
   15.6340   13.1711    7.1306 H   0  0  0  0  0  0  0  0  0  0  0  0  # atno 681  bound_to 677 
   20.1699   11.6980   -0.2410 H   0  0  0  0  0  0  0  0  0  0  0  0  # atno 702  bound_to 698 
   -6.8731   15.3855   -0.6631 H   0  0  0  0  0  0  0  0  0  0  0  0  # atno 965  bound_to 957 
    1.7888   10.6582   10.3995 H   0  0  0  0  0  0  0  0  0  0  0  0  # atno 1886 bound_to 1878
   10.8272    2.1520   -2.5163 H   0  0  0  0  0  0  0  0  0  0  0  0  # atno 2577 bound_to 2569
    7.9555    5.3019    0.4747 H   0  0  0  0  0  0  0  0  0  0  0  0  # atno 2891 bound_to 2887
   19.2134    2.8268   -1.1162 H   0  0  0  0  0  0  0  0  0  0  0  0  # atno 3175 bound_to 3171
   12.8455    9.8804   10.1736 H   0  0  0  0  0  0  0  0  0  0  0  0  # atno 5278 bound_to 5270
   17.0292   13.9345    7.0488 LP  0  0  0  0  0  0  0  0  0  0  0  0  # atno 5914 bound_to 677 
   16.6897   12.7000    6.0352 LP  0  0  0  0  0  0  0  0  0  0  0  0  # atno 5915 bound_to 677 
   21.0648   11.5478   -1.5502 LP  0  0  0  0  0  0  0  0  0  0  0  0  # atno 5920 bound_to 698 
   19.4610   11.8343   -1.6610 LP  0  0  0  0  0  0  0  0  0  0  0  0  # atno 5921 bound_to 698 
    9.2750    2.3928   -2.7768 LP  0  0  0  0  0  0  0  0  0  0  0  0  # atno 5950 bound_to 2569
   10.3953    3.4056   -3.3980 LP  0  0  0  0  0  0  0  0  0  0  0  0  # atno 5951 bound_to 2569
    7.1431    6.0522    1.6209 LP  0  0  0  0  0  0  0  0  0  0  0  0  # atno 5982 bound_to 2887
    8.1591    6.8728    0.6406 LP  0  0  0  0  0  0  0  0  0  0  0  0  # atno 5983 bound_to 2887
   18.7383    2.6950    0.3980 LP  0  0  0  0  0  0  0  0  0  0  0  0  # atno 6000 bound_to 3171
   17.9295    1.9388   -0.8023 LP  0  0  0  0  0  0  0  0  0  0  0  0  # atno 6001 bound_to 3171
   14.4172    9.9415    9.9229 LP  0  0  0  0  0  0  0  0  0  0  0  0  # atno 6004 bound_to 5270
   13.3640   10.2299    8.7088 LP  0  0  0  0  0  0  0  0  0  0  0  0  # atno 6005 bound_to 5270
    9.9178   19.7344    8.7266 LP  0  0  0  0  0  0  0  0  0  0  0  0  # atno 6055 bound_to 637 
   10.0845   18.9882    7.2836 LP  0  0  0  0  0  0  0  0  0  0  0  0  # atno 6056 bound_to 637 
    0.5766   11.4305   11.0846 LP  0  0  0  0  0  0  0  0  0  0  0  0  # atno 6063 bound_to 1878
    1.9256   12.2283   10.6259 LP  0  0  0  0  0  0  0  0  0  0  0  0  # atno 6064 bound_to 1878
   -6.4521   16.6004   -1.6022 LP  0  0  0  0  0  0  0  0  0  0  0  0  # atno 6067 bound_to 957 
   -7.1173   16.8676   -0.1350 LP  0  0  0  0  0  0  0  0  0  0  0  0  # atno 6068 bound_to 957 

>  <STRIFE_LigEff_Score>  (94) 
3.0555000000000003

$$$$
unknown|pharmsElabsTestPreDocking|sdf|100|dock6
     RDKit          3D

 19 20  0  0  0  0  0  0  0  0999 V2000
    3.6090    9.0651    1.8764 C   0  0  0  0  0  0  0  0  0  0  0  0
    3.9761    9.3768    3.2923 C   0  0  0  0  0  0  0  0  0  0  0  0
    3.2760    8.9220    4.3524 N   0  0  0  0  0  0  0  0  0  0  0  0
    3.9409    9.4083    5.4216 C   0  0  0  0  0  0  0  0  0  0  0  0
    5.0250   10.1445    4.9984 C   0  0  0  0  0  0  0  0  0  0  0  0
    5.0295   10.1372    3.6561 N   0  0  0  0  0  0  0  0  0  0  0  0
    6.0473   10.7282    2.7937 C   0  0  0  0  0  0  0  0  0  0  0  0
    7.3512   10.1643    3.1160 N   0  0  0  0  0  0  0  0  0  0  0  0
    8.0259    9.2777    2.2210 C   0  0  0  0  0  0  0  0  0  0  0  0
    7.5083    8.9856    1.1064 O   0  0  0  0  0  0  0  0  0  0  0  0
    9.3658    8.7142    2.6076 C   0  0  0  0  0  0  0  0  0  0  0  0
    9.8371    7.7001    1.5681 C   0  0  0  0  0  0  0  0  0  0  0  0
   11.1178    7.0050    2.0072 C   0  0  0  0  0  0  0  0  0  0  0  0
   12.2155    7.9315    2.5956 C   0  0  0  0  0  0  0  0  0  0  0  0
   13.6164    7.9576    1.9534 C   0  0  0  0  0  0  0  0  0  0  0  0
   14.1254    9.2833    1.3877 C   0  0  0  0  0  0  0  0  0  0  0  0
   13.8061    6.8665    0.9877 N   0  0  0  0  0  0  0  0  0  0  0  0
   11.7624    9.3108    3.1652 C   0  0  0  0  0  0  0  0  0  0  0  0
   10.3975    9.8313    2.7189 C   0  0  0  0  0  0  0  0  0  0  0  0
  1  2  1  0
  2  3  2  0
  3  4  1  0
  4  5  2  0
  5  6  1  0
  6  7  1  0
  7  8  1  0
  8  9  1  0
  9 10  2  0
  9 11  1  0
 11 12  1  0
 12 13  1  0
 13 14  1  0
 14 15  1  0
 15 16  1  0
 15 17  1  0
 14 18  1  0
 18 19  1  0
  6  2  1  0
 19 11  1  0
M  CHG  1  17   1
M  END
>  <EmbedRMS>  (95) 
0.19660536923015426

>  <Gold.Version>  (95) 
2020.3.0

>  <Gold.Id.Protein>  (95) 
unknown|1q8t_protein|pdb

>  <Gold.PLP.Fitness>  (95) 
56.8367

>  <Gold.PLP.PLP>  (95) 
-42.0397

>  <Gold.PLP.part.hbond>  (95) 
-3.7927

>  <Gold.PLP.part.metal>  (95) 
0.0000

>  <Gold.PLP.part.buried>  (95) 
1.1668

>  <Gold.PLP.part.nonpolar>  (95) 
-40.5903

>  <Gold.PLP.part.repulsive>  (95) 
0.2106

>  <Gold.PLP.ligand.clash>  (95) 
0.0000

>  <Gold.PLP.ligand.torsion>  (95) 
1.1725

>  <Gold.PLP.Chemscore.Hbond>  (95) 
4.6282

>  <Gold.PLP.Chemscore.CHOScore>  (95) 
0.9267

>  <Gold.PLP.Chemscore.Metal>  (95) 
0.0000

>  <Gold.Chemscore.Hbonds>  (95) 
donor molecule, donor type, donor heavy atom, donor atom, acceptor molecule, acceptor atom, score
      L1  H    17    39       P1  2691  0.93
      L1  H    17    40       P1  2902  2.00
      P1  H  2887  2891       L1    10  0.93
      P1  H  1888  1903       L1     3  0.77
      L1  C     4    23       P1  1891  0.93

>  <Gold.PLP.Chemscore.Internal.Correction>  (95) 
0.4771

>  <Gold.PLP.Constraint>  (95) 
-0.0000

>  <Gold.Protein.RotatedTorsions>  (95) 
[  681  677  676  673 ] final   29.04 input -179.99 | X-H torsion
[  702  698  697  694 ] final   70.47 input  179.99 | X-H torsion
[ 2577 2569 2568 2566 ] final  107.50 input   -0.13 | X-H torsion
[ 2891 2887 2886 2883 ] final  146.12 input  179.98 | X-H torsion
[ 3175 3171 3170 3167 ] final  -68.45 input -179.99 | X-H torsion
[ 5278 5270 5269 5267 ] final   93.10 input    0.55 | X-H torsion
[  641  637  636  633 ] final -151.94 input  179.99 | X-H torsion
[ 1886 1878 1877 1875 ] final   91.77 input    1.60 | X-H torsion
[  965  957  956  954 ] final  177.69 input    0.45 | X-H torsion

>  <Gold.Protein.ActiveResidues>  (95) 
 LYS47   THR48   LEU49   GLY50   THR51   GLY52   SER53   PHE54   GLY55   ARG56  
 VAL57   MET58   LEU59   TYR69   ALA70   MET71   LYS72   ILE73   LEU74   GLU91  
 LEU95   VAL104  LYS105  MET118  VAL119  MET120  GLU121  TYR122  VAL123  PRO124 
 GLY125  GLY126  GLU127  MET128  PHE129  TYR164  ASP166  LEU167  LYS168  PRO169 
 GLU170  ASN171  LEU172  LEU173  ILE174  GLN181  VAL182  THR183  ASP184  PHE185 
 GLY186  PHE187  GLY200  THR201  ASN326  PHE327  TYR330  ARG18   ARG19   ASN20  
 ALA21   ILE22   HIS23  

>  <Gold.Protein.RotatedAtoms>  (95) 
   11.3158   19.1797    7.8297 H   0  0  0  0  0  0  0  0  0  0  0  0  # atno 641  bound_to 637 
   16.2303   12.5948    6.1898 H   0  0  0  0  0  0  0  0  0  0  0  0  # atno 681  bound_to 677 
   19.5292   11.8392   -1.6737 H   0  0  0  0  0  0  0  0  0  0  0  0  # atno 702  bound_to 698 
   -6.9072   17.1249   -0.5517 H   0  0  0  0  0  0  0  0  0  0  0  0  # atno 965  bound_to 957 
    1.5658   12.3080   10.7792 H   0  0  0  0  0  0  0  0  0  0  0  0  # atno 1886 bound_to 1878
    9.5499    2.0904   -2.5671 H   0  0  0  0  0  0  0  0  0  0  0  0  # atno 2577 bound_to 2569
    7.7437    6.9341    1.1110 H   0  0  0  0  0  0  0  0  0  0  0  0  # atno 2891 bound_to 2887
   19.3180    3.0161   -0.2624 H   0  0  0  0  0  0  0  0  0  0  0  0  # atno 3175 bound_to 3171
   13.3477   10.2338    8.7620 H   0  0  0  0  0  0  0  0  0  0  0  0  # atno 5278 bound_to 5270
   15.8214   13.5392    7.4051 LP  0  0  0  0  0  0  0  0  0  0  0  0  # atno 5914 bound_to 677 
   17.2699   13.7019    6.6691 LP  0  0  0  0  0  0  0  0  0  0  0  0  # atno 5915 bound_to 677 
   20.1144   11.6902   -0.1996 LP  0  0  0  0  0  0  0  0  0  0  0  0  # atno 5920 bound_to 698 
   21.0852   11.5433   -1.5044 LP  0  0  0  0  0  0  0  0  0  0  0  0  # atno 5921 bound_to 698 
    9.9277    3.3830   -3.4166 LP  0  0  0  0  0  0  0  0  0  0  0  0  # atno 5950 bound_to 2569
   11.0875    2.4803   -2.7048 LP  0  0  0  0  0  0  0  0  0  0  0  0  # atno 5951 bound_to 2569
    8.3046    5.7516    0.2035 LP  0  0  0  0  0  0  0  0  0  0  0  0  # atno 5982 bound_to 2887
    7.2205    5.4556    1.3883 LP  0  0  0  0  0  0  0  0  0  0  0  0  # atno 5983 bound_to 2887
   18.0433    2.1447    0.1270 LP  0  0  0  0  0  0  0  0  0  0  0  0  # atno 6000 bound_to 3171
   18.5145    2.2899   -1.4298 LP  0  0  0  0  0  0  0  0  0  0  0  0  # atno 6001 bound_to 3171
   12.8271    9.8521   10.2180 LP  0  0  0  0  0  0  0  0  0  0  0  0  # atno 6004 bound_to 5270
   14.4257    9.9475    9.8990 LP  0  0  0  0  0  0  0  0  0  0  0  0  # atno 6005 bound_to 5270
   10.2849   19.7911    8.8778 LP  0  0  0  0  0  0  0  0  0  0  0  0  # atno 6055 bound_to 637 
    9.7621   19.1108    7.4884 LP  0  0  0  0  0  0  0  0  0  0  0  0  # atno 6056 bound_to 637 
    2.1073   10.8839   10.3165 LP  0  0  0  0  0  0  0  0  0  0  0  0  # atno 6063 bound_to 1878
    0.6297   11.0381   10.9943 LP  0  0  0  0  0  0  0  0  0  0  0  0  # atno 6064 bound_to 1878
   -7.0920   15.5792   -0.2175 LP  0  0  0  0  0  0  0  0  0  0  0  0  # atno 6067 bound_to 957 
   -6.4414   16.0570   -1.6370 LP  0  0  0  0  0  0  0  0  0  0  0  0  # atno 6068 bound_to 957 

>  <STRIFE_LigEff_Score>  (95) 
2.991405263157895

$$$$
unknown|pharmsElabsTestPreDocking|sdf|101|dock6
     RDKit          3D

 17 18  0  0  0  0  0  0  0  0999 V2000
   14.7434    8.0975    2.8532 C   0  0  0  0  0  0  0  0  0  0  0  0
   13.4022    7.9567    2.1349 C   0  0  0  0  0  0  0  0  0  0  0  0
   13.3163    8.8145    0.9512 N   0  0  0  0  0  0  0  0  0  0  0  0
   12.1061    7.9840    2.9816 C   0  0  0  0  0  0  0  0  0  0  0  0
   10.9849    7.0974    2.4206 C   0  0  0  0  0  0  0  0  0  0  0  0
    9.5769    7.4028    2.9027 C   0  0  0  0  0  0  0  0  0  0  0  0
    9.3018    8.8826    2.9940 C   0  0  0  0  0  0  0  0  0  0  0  0
    7.8481    9.2242    3.1327 C   0  0  0  0  0  0  0  0  0  0  0  0
    7.6110   10.0598    4.0340 O   0  0  0  0  0  0  0  0  0  0  0  0
    6.7614    8.6884    2.3473 N   0  0  0  0  0  0  0  0  0  0  0  0
    5.3720    8.9912    2.6342 C   0  0  0  0  0  0  0  0  0  0  0  0
    4.7839    9.2186    3.8775 C   0  0  0  0  0  0  0  0  0  0  0  0
    3.4489    9.4478    3.6350 C   0  0  0  0  0  0  0  0  0  0  0  0
    3.1968    9.3681    2.3165 N   0  0  0  0  0  0  0  0  0  0  0  0
    4.3607    9.0896    1.6976 C   0  0  0  0  0  0  0  0  0  0  0  0
   10.2863    9.7055    3.7742 C   0  0  0  0  0  0  0  0  0  0  0  0
   11.7264    9.4468    3.3361 C   0  0  0  0  0  0  0  0  0  0  0  0
  1  2  1  0
  2  3  1  0
  2  4  1  0
  4  5  1  0
  5  6  1  0
  6  7  1  0
  7  8  1  0
  8  9  2  0
  8 10  1  0
 10 11  1  0
 11 12  1  0
 12 13  2  0
 13 14  1  0
 14 15  1  0
  7 16  1  0
 16 17  1  0
 17  4  1  0
 15 11  2  0
M  CHG  1   3   1
M  END
>  <EmbedRMS>  (96) 
0.3005329260886256

>  <Gold.Version>  (96) 
2020.3.0

>  <Gold.Id.Protein>  (96) 
unknown|1q8t_protein|pdb

>  <Gold.PLP.Fitness>  (96) 
48.7989

>  <Gold.PLP.PLP>  (96) 
-40.0399

>  <Gold.PLP.part.hbond>  (96) 
-2.8286

>  <Gold.PLP.part.metal>  (96) 
0.0000

>  <Gold.PLP.part.buried>  (96) 
-4.7144

>  <Gold.PLP.part.nonpolar>  (96) 
-32.6367

>  <Gold.PLP.part.repulsive>  (96) 
0.0651

>  <Gold.PLP.ligand.clash>  (96) 
0.0000

>  <Gold.PLP.ligand.torsion>  (96) 
0.8563

>  <Gold.PLP.Chemscore.Hbond>  (96) 
3.2844

>  <Gold.PLP.Chemscore.CHOScore>  (96) 
0.0000

>  <Gold.PLP.Chemscore.Metal>  (96) 
0.0000

>  <Gold.Chemscore.Hbonds>  (96) 
donor molecule, donor type, donor heavy atom, donor atom, acceptor molecule, acceptor atom, score
      L1  H     3    24       P1  2902  2.00
      L1  H    10    31       P1  2887  0.28
      L1  H    14    34       P1  1855  1.00

>  <Gold.PLP.Chemscore.Internal.Correction>  (96) 
0.6185

>  <Gold.PLP.Constraint>  (96) 
-0.0000

>  <Gold.Protein.RotatedTorsions>  (96) 
[  681  677  676  673 ] final -117.05 input -179.99 | X-H torsion
[  702  698  697  694 ] final   81.56 input  179.99 | X-H torsion
[ 2577 2569 2568 2566 ] final  117.49 input   -0.13 | X-H torsion
[ 2891 2887 2886 2883 ] final   35.68 input  179.98 | X-H torsion
[ 3175 3171 3170 3167 ] final -169.03 input -179.99 | X-H torsion
[ 5278 5270 5269 5267 ] final -102.75 input    0.55 | X-H torsion
[  641  637  636  633 ] final  -79.93 input  179.99 | X-H torsion
[ 1886 1878 1877 1875 ] final  118.03 input    1.60 | X-H torsion
[  965  957  956  954 ] final   50.78 input    0.45 | X-H torsion

>  <Gold.Protein.ActiveResidues>  (96) 
 LYS47   THR48   LEU49   GLY50   THR51   GLY52   SER53   PHE54   GLY55   ARG56  
 VAL57   MET58   LEU59   TYR69   ALA70   MET71   LYS72   ILE73   LEU74   GLU91  
 LEU95   VAL104  LYS105  MET118  VAL119  MET120  GLU121  TYR122  VAL123  PRO124 
 GLY125  GLY126  GLU127  MET128  PHE129  TYR164  ASP166  LEU167  LYS168  PRO169 
 GLU170  ASN171  LEU172  LEU173  ILE174  GLN181  VAL182  THR183  ASP184  PHE185 
 GLY186  PHE187  GLY200  THR201  ASN326  PHE327  TYR330  ARG18   ARG19   ASN20  
 ALA21   ILE22   HIS23  

>  <Gold.Protein.RotatedAtoms>  (96) 
   10.4578   18.9411    7.2686 H   0  0  0  0  0  0  0  0  0  0  0  0  # atno 641  bound_to 637 
   16.1571   13.7878    7.4179 H   0  0  0  0  0  0  0  0  0  0  0  0  # atno 681  bound_to 677 
   19.6448   11.8212   -1.8013 H   0  0  0  0  0  0  0  0  0  0  0  0  # atno 702  bound_to 698 
   -7.0295   15.5451   -0.3161 H   0  0  0  0  0  0  0  0  0  0  0  0  # atno 965  bound_to 957 
    1.1935   12.2545   10.9342 H   0  0  0  0  0  0  0  0  0  0  0  0  # atno 1886 bound_to 1878
    9.6698    2.0127   -2.5044 H   0  0  0  0  0  0  0  0  0  0  0  0  # atno 2577 bound_to 2569
    8.3068    5.9123    0.2140 H   0  0  0  0  0  0  0  0  0  0  0  0  # atno 2891 bound_to 2887
   18.2661    2.3076    0.2767 H   0  0  0  0  0  0  0  0  0  0  0  0  # atno 3175 bound_to 3171
   13.9453    9.8395   10.3861 H   0  0  0  0  0  0  0  0  0  0  0  0  # atno 5278 bound_to 5270
   17.2881   13.4055    6.3639 LP  0  0  0  0  0  0  0  0  0  0  0  0  # atno 5914 bound_to 677 
   15.8802   12.5800    6.4176 LP  0  0  0  0  0  0  0  0  0  0  0  0  # atno 5915 bound_to 677 
   19.9395   11.7220   -0.2390 LP  0  0  0  0  0  0  0  0  0  0  0  0  # atno 5920 bound_to 698 
   21.1386   11.5305   -1.3308 LP  0  0  0  0  0  0  0  0  0  0  0  0  # atno 5921 bound_to 698 
    9.7740    3.3308   -3.3916 LP  0  0  0  0  0  0  0  0  0  0  0  0  # atno 5950 bound_to 2569
   11.1150    2.6143   -2.7958 LP  0  0  0  0  0  0  0  0  0  0  0  0  # atno 5951 bound_to 2569
    7.2806    5.3465    1.2925 LP  0  0  0  0  0  0  0  0  0  0  0  0  # atno 5982 bound_to 2887
    7.6518    6.9360    1.2433 LP  0  0  0  0  0  0  0  0  0  0  0  0  # atno 5983 bound_to 2887
   18.2717    2.1263   -1.3053 LP  0  0  0  0  0  0  0  0  0  0  0  0  # atno 6000 bound_to 3171
   19.3932    3.0540   -0.5648 LP  0  0  0  0  0  0  0  0  0  0  0  0  # atno 6001 bound_to 3171
   14.0355   10.2049    8.8385 LP  0  0  0  0  0  0  0  0  0  0  0  0  # atno 6004 bound_to 5270
   12.5885   10.0095    9.5696 LP  0  0  0  0  0  0  0  0  0  0  0  0  # atno 6005 bound_to 5270
   11.2908   19.5359    8.4881 LP  0  0  0  0  0  0  0  0  0  0  0  0  # atno 6055 bound_to 637 
    9.6599   19.6173    8.4691 LP  0  0  0  0  0  0  0  0  0  0  0  0  # atno 6056 bound_to 637 
    2.2810   11.2753   10.3067 LP  0  0  0  0  0  0  0  0  0  0  0  0  # atno 6063 bound_to 1878
    0.8479   10.7030   10.8409 LP  0  0  0  0  0  0  0  0  0  0  0  0  # atno 6064 bound_to 1878
   -6.4327   16.1692   -1.6537 LP  0  0  0  0  0  0  0  0  0  0  0  0  # atno 6067 bound_to 957 
   -6.9719   17.1307   -0.4489 LP  0  0  0  0  0  0  0  0  0  0  0  0  # atno 6068 bound_to 957 

>  <STRIFE_LigEff_Score>  (96) 
2.870523529411765

$$$$
unknown|pharmsElabsTestPreDocking|sdf|102|dock7
     RDKit          3D

 19 20  0  0  0  0  0  0  0  0999 V2000
   14.4192    9.5213    1.0355 C   0  0  0  0  0  0  0  0  0  0  0  0
   13.9777    8.2152    1.6939 C   0  0  0  0  0  0  0  0  0  0  0  0
   14.2603    7.0495    0.8540 N   0  0  0  0  0  0  0  0  0  0  0  0
   12.5714    8.1535    2.3399 C   0  0  0  0  0  0  0  0  0  0  0  0
   11.5814    7.2608    1.5778 C   0  0  0  0  0  0  0  0  0  0  0  0
   10.1059    7.4925    1.8595 C   0  0  0  0  0  0  0  0  0  0  0  0
    9.7576    8.9551    1.9761 C   0  0  0  0  0  0  0  0  0  0  0  0
    8.2845    9.2377    1.9313 C   0  0  0  0  0  0  0  0  0  0  0  0
    7.6517    8.5902    1.0615 O   0  0  0  0  0  0  0  0  0  0  0  0
    7.5689   10.1686    2.7627 N   0  0  0  0  0  0  0  0  0  0  0  0
    6.1385   10.3857    2.4948 C   0  0  0  0  0  0  0  0  0  0  0  0
    5.2825    9.9620    3.6453 C   0  0  0  0  0  0  0  0  0  0  0  0
    5.4670   10.3127    4.9635 C   0  0  0  0  0  0  0  0  0  0  0  0
    4.4782    9.7730    5.7058 N   0  0  0  0  0  0  0  0  0  0  0  0
    3.7107    9.1041    4.8180 C   0  0  0  0  0  0  0  0  0  0  0  0
    4.1729    9.2081    3.5577 N   0  0  0  0  0  0  0  0  0  0  0  0
    3.5988    8.6006    2.3624 C   0  0  0  0  0  0  0  0  0  0  0  0
   10.5852    9.7672    2.9325 C   0  0  0  0  0  0  0  0  0  0  0  0
   12.0834    9.5814    2.7019 C   0  0  0  0  0  0  0  0  0  0  0  0
  1  2  1  0
  2  3  1  0
  2  4  1  0
  4  5  1  0
  5  6  1  0
  6  7  1  0
  7  8  1  0
  8  9  2  0
  8 10  1  0
 10 11  1  0
 11 12  1  0
 12 13  2  0
 13 14  1  0
 14 15  2  0
 15 16  1  0
 16 17  1  0
  7 18  1  0
 18 19  1  0
 19  4  1  0
 16 12  1  0
M  CHG  1   3   1
M  END
>  <EmbedRMS>  (97) 
0.28482549143865477

>  <Gold.Version>  (97) 
2020.3.0

>  <Gold.Id.Protein>  (97) 
unknown|1q8t_protein|pdb

>  <Gold.PLP.Fitness>  (97) 
53.8720

>  <Gold.PLP.PLP>  (97) 
-41.1405

>  <Gold.PLP.part.hbond>  (97) 
-2.6948

>  <Gold.PLP.part.metal>  (97) 
0.0000

>  <Gold.PLP.part.buried>  (97) 
2.1340

>  <Gold.PLP.part.nonpolar>  (97) 
-41.9465

>  <Gold.PLP.part.repulsive>  (97) 
0.1484

>  <Gold.PLP.ligand.clash>  (97) 
0.0000

>  <Gold.PLP.ligand.torsion>  (97) 
1.3662

>  <Gold.PLP.Chemscore.Hbond>  (97) 
3.9520

>  <Gold.PLP.Chemscore.CHOScore>  (97) 
1.0000

>  <Gold.PLP.Chemscore.Metal>  (97) 
0.0000

>  <Gold.Chemscore.Hbonds>  (97) 
donor molecule, donor type, donor heavy atom, donor atom, acceptor molecule, acceptor atom, score
      L1  H     3    25       P1  2691  0.99
      L1  H     3    26       P1  2902  2.00
      P1  H  2887  2891       L1     9  0.96
      L1  C    15    37       P1  1891  1.00

>  <Gold.PLP.Chemscore.Internal.Correction>  (97) 
0.6080

>  <Gold.PLP.Constraint>  (97) 
-0.0000

>  <Gold.Protein.RotatedTorsions>  (97) 
[  681  677  676  673 ] final   90.83 input -179.99 | X-H torsion
[  702  698  697  694 ] final -149.65 input  179.99 | X-H torsion
[ 2577 2569 2568 2566 ] final  -66.90 input   -0.13 | X-H torsion
[ 2891 2887 2886 2883 ] final  142.81 input  179.98 | X-H torsion
[ 3175 3171 3170 3167 ] final  -42.32 input -179.99 | X-H torsion
[ 5278 5270 5269 5267 ] final  168.95 input    0.55 | X-H torsion
[  641  637  636  633 ] final   67.89 input  179.99 | X-H torsion
[ 1886 1878 1877 1875 ] final  112.83 input    1.60 | X-H torsion
[  965  957  956  954 ] final -127.78 input    0.45 | X-H torsion

>  <Gold.Protein.ActiveResidues>  (97) 
 LYS47   THR48   LEU49   GLY50   THR51   GLY52   SER53   PHE54   GLY55   ARG56  
 VAL57   MET58   LEU59   TYR69   ALA70   MET71   LYS72   ILE73   LEU74   GLU91  
 LEU95   VAL104  LYS105  MET118  VAL119  MET120  GLU121  TYR122  VAL123  PRO124 
 GLY125  GLY126  GLU127  MET128  PHE129  TYR164  ASP166  LEU167  LYS168  PRO169 
 GLU170  ASN171  LEU172  LEU173  ILE174  GLN181  VAL182  THR183  ASP184  PHE185 
 GLY186  PHE187  GLY200  THR201  ASN326  PHE327  TYR330  ARG18   ARG19   ASN20  
 ALA21   ILE22   HIS23  

>  <Gold.Protein.RotatedAtoms>  (97) 
   10.0019   19.7157    8.7357 H   0  0  0  0  0  0  0  0  0  0  0  0  # atno 641  bound_to 637 
   17.0371   13.0315    6.1229 H   0  0  0  0  0  0  0  0  0  0  0  0  # atno 681  bound_to 677 
   21.1140   11.5489   -1.1846 H   0  0  0  0  0  0  0  0  0  0  0  0  # atno 702  bound_to 698 
   -6.5740   16.9789   -1.2870 H   0  0  0  0  0  0  0  0  0  0  0  0  # atno 965  bound_to 957 
    1.2657   12.2795   10.9067 H   0  0  0  0  0  0  0  0  0  0  0  0  # atno 1886 bound_to 1878
   10.7409    3.2259   -3.2683 H   0  0  0  0  0  0  0  0  0  0  0  0  # atno 2577 bound_to 2569
    7.7780    6.9420    1.0731 H   0  0  0  0  0  0  0  0  0  0  0  0  # atno 2891 bound_to 2887
   19.3629    2.9967   -0.6644 H   0  0  0  0  0  0  0  0  0  0  0  0  # atno 3175 bound_to 3171
   14.3362   10.1272    9.2361 H   0  0  0  0  0  0  0  0  0  0  0  0  # atno 5278 bound_to 5270
   15.6162   12.8068    6.8061 LP  0  0  0  0  0  0  0  0  0  0  0  0  # atno 5914 bound_to 677 
   16.6259   13.9747    7.3384 LP  0  0  0  0  0  0  0  0  0  0  0  0  # atno 5915 bound_to 677 
   19.7245   11.7926   -1.9243 LP  0  0  0  0  0  0  0  0  0  0  0  0  # atno 5920 bound_to 698 
   19.8081   11.7463   -0.2942 LP  0  0  0  0  0  0  0  0  0  0  0  0  # atno 5921 bound_to 698 
   10.5137    1.9332   -2.3669 LP  0  0  0  0  0  0  0  0  0  0  0  0  # atno 5950 bound_to 2569
    9.2475    2.7345   -3.0161 LP  0  0  0  0  0  0  0  0  0  0  0  0  # atno 5951 bound_to 2569
    8.2858    5.7014    0.2132 LP  0  0  0  0  0  0  0  0  0  0  0  0  # atno 5982 bound_to 2887
    7.2031    5.4975    1.4185 LP  0  0  0  0  0  0  0  0  0  0  0  0  # atno 5983 bound_to 2887
   18.3143    2.3761    0.3608 LP  0  0  0  0  0  0  0  0  0  0  0  0  # atno 6000 bound_to 3171
   18.1962    2.0789   -1.2405 LP  0  0  0  0  0  0  0  0  0  0  0  0  # atno 6001 bound_to 3171
   12.7497   10.1282    9.0951 LP  0  0  0  0  0  0  0  0  0  0  0  0  # atno 6004 bound_to 5270
   13.4630    9.7835   10.5230 LP  0  0  0  0  0  0  0  0  0  0  0  0  # atno 6005 bound_to 5270
   10.0198   19.0057    7.3107 LP  0  0  0  0  0  0  0  0  0  0  0  0  # atno 6055 bound_to 637 
   11.4109   19.3317    8.1014 LP  0  0  0  0  0  0  0  0  0  0  0  0  # atno 6056 bound_to 637 
    2.2598   11.1926   10.3020 LP  0  0  0  0  0  0  0  0  0  0  0  0  # atno 6063 bound_to 1878
    0.7932   10.7594   10.8747 LP  0  0  0  0  0  0  0  0  0  0  0  0  # atno 6064 bound_to 1878
   -7.2065   16.3922    0.0512 LP  0  0  0  0  0  0  0  0  0  0  0  0  # atno 6067 bound_to 957 
   -6.6779   15.3977   -1.1313 LP  0  0  0  0  0  0  0  0  0  0  0  0  # atno 6068 bound_to 957 

>  <STRIFE_LigEff_Score>  (97) 
2.8353684210526318

$$$$
unknown|pharmsElabsTestPreDocking|sdf|103|dock5
     RDKit          3D

 19 20  0  0  0  0  0  0  0  0999 V2000
   14.5989    7.3342    2.8313 C   0  0  0  0  0  0  0  0  0  0  0  0
   13.3646    7.5771    1.9628 C   0  0  0  0  0  0  0  0  0  0  0  0
   13.4801    8.8441    1.2277 N   0  0  0  0  0  0  0  0  0  0  0  0
   11.9756    7.4011    2.6079 C   0  0  0  0  0  0  0  0  0  0  0  0
   10.7147    7.3207    1.7062 C   0  0  0  0  0  0  0  0  0  0  0  0
    9.6361    8.3567    1.9898 C   0  0  0  0  0  0  0  0  0  0  0  0
    9.3759    8.5000    3.4880 C   0  0  0  0  0  0  0  0  0  0  0  0
    8.2080    9.4170    3.7334 C   0  0  0  0  0  0  0  0  0  0  0  0
    7.7321   10.1065    2.7881 O   0  0  0  0  0  0  0  0  0  0  0  0
    7.6507    9.5142    5.0497 N   0  0  0  0  0  0  0  0  0  0  0  0
    6.5408   10.4043    5.3663 C   0  0  0  0  0  0  0  0  0  0  0  0
    5.2899    9.9043    4.7250 C   0  0  0  0  0  0  0  0  0  0  0  0
    4.0393    9.8000    5.3019 C   0  0  0  0  0  0  0  0  0  0  0  0
    3.1904    9.2592    4.4070 N   0  0  0  0  0  0  0  0  0  0  0  0
    3.8782    9.0101    3.3025 N   0  0  0  0  0  0  0  0  0  0  0  0
    3.2995    8.4408    2.0951 C   0  0  0  0  0  0  0  0  0  0  0  0
    5.1592    9.3893    3.4546 C   0  0  0  0  0  0  0  0  0  0  0  0
   10.6299    9.0477    4.1609 C   0  0  0  0  0  0  0  0  0  0  0  0
   11.8298    8.1184    3.9851 C   0  0  0  0  0  0  0  0  0  0  0  0
  1  2  1  0
  2  3  1  0
  2  4  1  0
  4  5  1  0
  5  6  1  0
  6  7  1  0
  7  8  1  0
  8  9  2  0
  8 10  1  0
 10 11  1  0
 11 12  1  0
 12 13  1  0
 13 14  2  0
 14 15  1  0
 15 16  1  0
 15 17  1  0
  7 18  1  0
 18 19  1  0
 19  4  1  0
 17 12  2  0
M  CHG  1   3   1
M  END
>  <EmbedRMS>  (98) 
0.19659211194601114

>  <Gold.Version>  (98) 
2020.3.0

>  <Gold.Id.Protein>  (98) 
unknown|1q8t_protein|pdb

>  <Gold.PLP.Fitness>  (98) 
60.0864

>  <Gold.PLP.PLP>  (98) 
-51.9690

>  <Gold.PLP.part.hbond>  (98) 
-2.0000

>  <Gold.PLP.part.metal>  (98) 
0.0000

>  <Gold.PLP.part.buried>  (98) 
-5.1798

>  <Gold.PLP.part.nonpolar>  (98) 
-44.4162

>  <Gold.PLP.part.repulsive>  (98) 
0.1359

>  <Gold.PLP.ligand.clash>  (98) 
0.0000

>  <Gold.PLP.ligand.torsion>  (98) 
0.6762

>  <Gold.PLP.Chemscore.Hbond>  (98) 
3.0000

>  <Gold.PLP.Chemscore.CHOScore>  (98) 
0.0000

>  <Gold.PLP.Chemscore.Metal>  (98) 
0.0000

>  <Gold.Chemscore.Hbonds>  (98) 
donor molecule, donor type, donor heavy atom, donor atom, acceptor molecule, acceptor atom, score
      L1  H     3    25       P1  2902  2.00
      P1  H  1888  1903       L1    14  1.00

>  <Gold.PLP.Chemscore.Internal.Correction>  (98) 
0.4699

>  <Gold.PLP.Constraint>  (98) 
-0.0000

>  <Gold.Protein.RotatedTorsions>  (98) 
[  681  677  676  673 ] final  145.07 input -179.99 | X-H torsion
[  702  698  697  694 ] final -158.90 input  179.99 | X-H torsion
[ 2577 2569 2568 2566 ] final   85.90 input   -0.13 | X-H torsion
[ 2891 2887 2886 2883 ] final  145.17 input  179.98 | X-H torsion
[ 3175 3171 3170 3167 ] final -123.48 input -179.99 | X-H torsion
[ 5278 5270 5269 5267 ] final  -73.02 input    0.55 | X-H torsion
[  641  637  636  633 ] final  -45.46 input  179.99 | X-H torsion
[ 1886 1878 1877 1875 ] final   -0.11 input    1.60 | X-H torsion
[  965  957  956  954 ] final  -71.92 input    0.45 | X-H torsion

>  <Gold.Protein.ActiveResidues>  (98) 
 LYS47   THR48   LEU49   GLY50   THR51   GLY52   SER53   PHE54   GLY55   ARG56  
 VAL57   MET58   LEU59   TYR69   ALA70   MET71   LYS72   ILE73   LEU74   GLU91  
 LEU95   VAL104  LYS105  MET118  VAL119  MET120  GLU121  TYR122  VAL123  PRO124 
 GLY125  GLY126  GLU127  MET128  PHE129  TYR164  ASP166  LEU167  LYS168  PRO169 
 GLU170  ASN171  LEU172  LEU173  ILE174  GLN181  VAL182  THR183  ASP184  PHE185 
 GLY186  PHE187  GLY200  THR201  ASN326  PHE327  TYR330  ARG18   ARG19   ASN20  
 ALA21   ILE22   HIS23  

>  <Gold.Protein.RotatedAtoms>  (98) 
    9.9536   19.0378    7.4027 H   0  0  0  0  0  0  0  0  0  0  0  0  # atno 641  bound_to 637 
   17.2353   13.6521    6.6154 H   0  0  0  0  0  0  0  0  0  0  0  0  # atno 681  bound_to 677 
   21.0952   11.5550   -1.3278 H   0  0  0  0  0  0  0  0  0  0  0  0  # atno 702  bound_to 698 
   -6.4356   16.2160   -1.6070 H   0  0  0  0  0  0  0  0  0  0  0  0  # atno 965  bound_to 957 
    2.2376   11.3138   10.3135 H   0  0  0  0  0  0  0  0  0  0  0  0  # atno 1886 bound_to 1878
    9.3599    2.3109   -2.7341 H   0  0  0  0  0  0  0  0  0  0  0  0  # atno 2577 bound_to 2569
    7.7535    6.9366    1.1002 H   0  0  0  0  0  0  0  0  0  0  0  0  # atno 2891 bound_to 2887
   18.8184    2.7235    0.3291 H   0  0  0  0  0  0  0  0  0  0  0  0  # atno 3175 bound_to 3171
   13.4970    9.8108   10.4834 H   0  0  0  0  0  0  0  0  0  0  0  0  # atno 5278 bound_to 5270
   16.1689   12.5436    6.2027 LP  0  0  0  0  0  0  0  0  0  0  0  0  # atno 5914 bound_to 677 
   15.8646   13.5847    7.4234 LP  0  0  0  0  0  0  0  0  0  0  0  0  # atno 5915 bound_to 677 
   19.6059   11.8118   -1.8312 LP  0  0  0  0  0  0  0  0  0  0  0  0  # atno 5920 bound_to 698 
   19.9465   11.7207   -0.2367 LP  0  0  0  0  0  0  0  0  0  0  0  0  # atno 5921 bound_to 698 
   10.2793    3.4181   -3.4152 LP  0  0  0  0  0  0  0  0  0  0  0  0  # atno 5950 bound_to 2569
   10.9360    2.2130   -2.5303 LP  0  0  0  0  0  0  0  0  0  0  0  0  # atno 5951 bound_to 2569
    8.2994    5.7371    0.2060 LP  0  0  0  0  0  0  0  0  0  0  0  0  # atno 5982 bound_to 2887
    7.2153    5.4674    1.3971 LP  0  0  0  0  0  0  0  0  0  0  0  0  # atno 5983 bound_to 2887
   17.9032    1.9319   -0.7061 LP  0  0  0  0  0  0  0  0  0  0  0  0  # atno 6000 bound_to 3171
   19.1804    2.8107   -1.2192 LP  0  0  0  0  0  0  0  0  0  0  0  0  # atno 6001 bound_to 3171
   14.3637   10.1231    9.1842 LP  0  0  0  0  0  0  0  0  0  0  0  0  # atno 6004 bound_to 5270
   12.7320   10.1216    9.1215 LP  0  0  0  0  0  0  0  0  0  0  0  0  # atno 6005 bound_to 5270
   11.4074   19.2822    8.0041 LP  0  0  0  0  0  0  0  0  0  0  0  0  # atno 6055 bound_to 637 
   10.0743   19.7691    8.8118 LP  0  0  0  0  0  0  0  0  0  0  0  0  # atno 6056 bound_to 637 
    0.8688   10.6842   10.8285 LP  0  0  0  0  0  0  0  0  0  0  0  0  # atno 6063 bound_to 1878
    1.1610   12.2844   10.9726 LP  0  0  0  0  0  0  0  0  0  0  0  0  # atno 6064 bound_to 1878
   -6.9887   17.1117   -0.4124 LP  0  0  0  0  0  0  0  0  0  0  0  0  # atno 6067 bound_to 957 
   -7.0414   15.4816   -0.3307 LP  0  0  0  0  0  0  0  0  0  0  0  0  # atno 6068 bound_to 957 

>  <STRIFE_LigEff_Score>  (98) 
3.1624421052631577

$$$$
unknown|pharmsElabsTestPreDocking|sdf|104|dock4
     RDKit          3D

 18 19  0  0  0  0  0  0  0  0999 V2000
   14.4531    9.6145    1.0530 C   0  0  0  0  0  0  0  0  0  0  0  0
   13.7696    8.3475    1.5390 C   0  0  0  0  0  0  0  0  0  0  0  0
   14.1629    7.1315    0.8358 N   0  0  0  0  0  0  0  0  0  0  0  0
   12.2775    8.4720    1.9743 C   0  0  0  0  0  0  0  0  0  0  0  0
   11.6807    7.3342    2.8174 C   0  0  0  0  0  0  0  0  0  0  0  0
   10.1416    7.4070    2.8372 C   0  0  0  0  0  0  0  0  0  0  0  0
    9.5758    8.8111    2.6095 C   0  0  0  0  0  0  0  0  0  0  0  0
    8.0913    8.9172    2.7708 C   0  0  0  0  0  0  0  0  0  0  0  0
    7.4739    8.9148    1.6836 O   0  0  0  0  0  0  0  0  0  0  0  0
    7.3705    9.0117    4.0215 N   0  0  0  0  0  0  0  0  0  0  0  0
    5.9340    9.2412    4.1312 C   0  0  0  0  0  0  0  0  0  0  0  0
    5.4481   10.1001    5.1358 C   0  0  0  0  0  0  0  0  0  0  0  0
    4.0745   10.3530    5.2619 C   0  0  0  0  0  0  0  0  0  0  0  0
    3.1631    9.7473    4.3961 C   0  0  0  0  0  0  0  0  0  0  0  0
    3.6189    8.8979    3.3965 C   0  0  0  0  0  0  0  0  0  0  0  0
    4.9812    8.6559    3.2522 C   0  0  0  0  0  0  0  0  0  0  0  0
   10.4208   10.0440    2.8691 C   0  0  0  0  0  0  0  0  0  0  0  0
   11.9291    9.8323    2.6164 C   0  0  0  0  0  0  0  0  0  0  0  0
  1  2  1  0
  2  3  1  0
  2  4  1  0
  4  5  1  0
  5  6  1  0
  6  7  1  0
  7  8  1  0
  8  9  2  0
  8 10  1  0
 10 11  1  0
 11 12  2  0
 12 13  1  0
 13 14  2  0
 14 15  1  0
 15 16  2  0
  7 17  1  0
 17 18  1  0
 18  4  1  0
 16 11  1  0
M  CHG  1   3   1
M  END
>  <EmbedRMS>  (99) 
0.24964892458419108

>  <Gold.Version>  (99) 
2020.3.0

>  <Gold.Id.Protein>  (99) 
unknown|1q8t_protein|pdb

>  <Gold.PLP.Fitness>  (99) 
57.5077

>  <Gold.PLP.PLP>  (99) 
-46.8122

>  <Gold.PLP.part.hbond>  (99) 
-3.0000

>  <Gold.PLP.part.metal>  (99) 
0.0000

>  <Gold.PLP.part.buried>  (99) 
-1.6246

>  <Gold.PLP.part.nonpolar>  (99) 
-43.0439

>  <Gold.PLP.part.repulsive>  (99) 
0.0683

>  <Gold.PLP.ligand.clash>  (99) 
0.0000

>  <Gold.PLP.ligand.torsion>  (99) 
0.9640

>  <Gold.PLP.Chemscore.Hbond>  (99) 
3.8960

>  <Gold.PLP.Chemscore.CHOScore>  (99) 
0.0000

>  <Gold.PLP.Chemscore.Metal>  (99) 
0.0000

>  <Gold.Chemscore.Hbonds>  (99) 
donor molecule, donor type, donor heavy atom, donor atom, acceptor molecule, acceptor atom, score
      L1  H     3    23       P1  2902  2.00
      L1  H     3    24       P1  2691  0.90
      P1  H  2887  2891       L1     9  1.00

>  <Gold.PLP.Chemscore.Internal.Correction>  (99) 
0.9354

>  <Gold.PLP.Constraint>  (99) 
-0.0000

>  <Gold.Protein.RotatedTorsions>  (99) 
[  681  677  676  673 ] final  130.00 input -179.99 | X-H torsion
[  702  698  697  694 ] final -145.27 input  179.99 | X-H torsion
[ 2577 2569 2568 2566 ] final -109.13 input   -0.13 | X-H torsion
[ 2891 2887 2886 2883 ] final  151.32 input  179.98 | X-H torsion
[ 3175 3171 3170 3167 ] final -146.33 input -179.99 | X-H torsion
[ 5278 5270 5269 5267 ] final  114.89 input    0.55 | X-H torsion
[  641  637  636  633 ] final  162.01 input  179.99 | X-H torsion
[ 1886 1878 1877 1875 ] final  177.45 input    1.60 | X-H torsion
[  965  957  956  954 ] final   -6.72 input    0.45 | X-H torsion

>  <Gold.Protein.ActiveResidues>  (99) 
 LYS47   THR48   LEU49   GLY50   THR51   GLY52   SER53   PHE54   GLY55   ARG56  
 VAL57   MET58   LEU59   TYR69   ALA70   MET71   LYS72   ILE73   LEU74   GLU91  
 LEU95   VAL104  LYS105  MET118  VAL119  MET120  GLU121  TYR122  VAL123  PRO124 
 GLY125  GLY126  GLU127  MET128  PHE129  TYR164  ASP166  LEU167  LYS168  PRO169 
 GLU170  ASN171  LEU172  LEU173  ILE174  GLN181  VAL182  THR183  ASP184  PHE185 
 GLY186  PHE187  GLY200  THR201  ASN326  PHE327  TYR330  ARG18   ARG19   ASN20  
 ALA21   ILE22   HIS23  

>  <Gold.Protein.RotatedAtoms>  (99) 
   11.2630   19.4997    8.4505 H   0  0  0  0  0  0  0  0  0  0  0  0  # atno 641  bound_to 637 
   17.2511   13.4906    6.4456 H   0  0  0  0  0  0  0  0  0  0  0  0  # atno 681  bound_to 677 
   21.1150   11.5474   -1.1162 H   0  0  0  0  0  0  0  0  0  0  0  0  # atno 702  bound_to 698 
   -6.6765   15.4353   -1.0940 H   0  0  0  0  0  0  0  0  0  0  0  0  # atno 965  bound_to 957 
    0.6341   11.5778   11.0654 H   0  0  0  0  0  0  0  0  0  0  0  0  # atno 1886 bound_to 1878
   11.0615    2.7772   -2.9332 H   0  0  0  0  0  0  0  0  0  0  0  0  # atno 2577 bound_to 2569
    7.6898    6.9158    1.1691 H   0  0  0  0  0  0  0  0  0  0  0  0  # atno 2891 bound_to 2887
   18.5327    2.5175    0.3720 H   0  0  0  0  0  0  0  0  0  0  0  0  # atno 3175 bound_to 3171
   13.6863   10.2384    8.7579 H   0  0  0  0  0  0  0  0  0  0  0  0  # atno 5278 bound_to 5270
   15.9652   12.5569    6.3421 LP  0  0  0  0  0  0  0  0  0  0  0  0  # atno 5914 bound_to 677 
   16.0518   13.7414    7.4629 LP  0  0  0  0  0  0  0  0  0  0  0  0  # atno 5915 bound_to 677 
   19.7854   11.7825   -1.9614 LP  0  0  0  0  0  0  0  0  0  0  0  0  # atno 5920 bound_to 698 
   19.7462   11.7580   -0.3291 LP  0  0  0  0  0  0  0  0  0  0  0  0  # atno 5921 bound_to 698 
    9.8355    1.9114   -2.4015 LP  0  0  0  0  0  0  0  0  0  0  0  0  # atno 5950 bound_to 2569
    9.5882    3.2287   -3.3343 LP  0  0  0  0  0  0  0  0  0  0  0  0  # atno 5951 bound_to 2569
    8.3304    5.8325    0.1930 LP  0  0  0  0  0  0  0  0  0  0  0  0  # atno 5982 bound_to 2887
    7.2514    5.3939    1.3376 LP  0  0  0  0  0  0  0  0  0  0  0  0  # atno 5983 bound_to 2887
   18.0419    1.9898   -1.0479 LP  0  0  0  0  0  0  0  0  0  0  0  0  # atno 6000 bound_to 3171
   19.3424    2.9695   -0.9225 LP  0  0  0  0  0  0  0  0  0  0  0  0  # atno 6001 bound_to 3171
   12.6443    9.9235    9.9206 LP  0  0  0  0  0  0  0  0  0  0  0  0  # atno 6004 bound_to 5270
   14.2522    9.8712   10.2007 LP  0  0  0  0  0  0  0  0  0  0  0  0  # atno 6005 bound_to 5270
    9.6766   19.6289    8.4936 LP  0  0  0  0  0  0  0  0  0  0  0  0  # atno 6055 bound_to 637 
   10.4261   18.9361    7.2188 LP  0  0  0  0  0  0  0  0  0  0  0  0  # atno 6056 bound_to 637 
    2.0361   12.1403   10.5622 LP  0  0  0  0  0  0  0  0  0  0  0  0  # atno 6063 bound_to 1878
    1.6817   10.5504   10.4473 LP  0  0  0  0  0  0  0  0  0  0  0  0  # atno 6064 bound_to 1878
   -6.5710   17.0060   -1.3324 LP  0  0  0  0  0  0  0  0  0  0  0  0  # atno 6067 bound_to 957 
   -7.2054   16.4095    0.0490 LP  0  0  0  0  0  0  0  0  0  0  0  0  # atno 6068 bound_to 957 

>  <STRIFE_LigEff_Score>  (99) 
3.194872222222222

$$$$
unknown|pharmsElabsTestPreDocking|sdf|105|dock4
     RDKit          3D

 17 18  0  0  0  0  0  0  0  0999 V2000
   14.1612    9.5089    1.1022 C   0  0  0  0  0  0  0  0  0  0  0  0
   13.5487    8.2959    1.8023 C   0  0  0  0  0  0  0  0  0  0  0  0
   13.3865    7.1749    0.8663 N   0  0  0  0  0  0  0  0  0  0  0  0
   12.2957    8.5153    2.6727 C   0  0  0  0  0  0  0  0  0  0  0  0
   11.3595    7.3179    2.9873 C   0  0  0  0  0  0  0  0  0  0  0  0
    9.9070    7.4921    2.5686 C   0  0  0  0  0  0  0  0  0  0  0  0
    9.3752    8.8717    2.9515 C   0  0  0  0  0  0  0  0  0  0  0  0
    7.9021    8.9652    2.6598 C   0  0  0  0  0  0  0  0  0  0  0  0
    7.4945    8.8908    1.4685 O   0  0  0  0  0  0  0  0  0  0  0  0
    6.9835    9.1629    3.7438 N   0  0  0  0  0  0  0  0  0  0  0  0
    5.5583    9.2507    3.6215 C   0  0  0  0  0  0  0  0  0  0  0  0
    4.7843    8.9299    2.5169 C   0  0  0  0  0  0  0  0  0  0  0  0
    3.4973    9.2005    2.9261 C   0  0  0  0  0  0  0  0  0  0  0  0
    3.5261    9.6505    4.1928 N   0  0  0  0  0  0  0  0  0  0  0  0
    4.7745    9.6852    4.6254 N   0  0  0  0  0  0  0  0  0  0  0  0
   10.1372    9.9348    2.1678 C   0  0  0  0  0  0  0  0  0  0  0  0
   11.6333    9.9131    2.4746 C   0  0  0  0  0  0  0  0  0  0  0  0
  1  2  1  0
  2  3  1  0
  2  4  1  0
  4  5  1  0
  5  6  1  0
  6  7  1  0
  7  8  1  0
  8  9  2  0
  8 10  1  0
 10 11  1  0
 11 12  1  0
 12 13  2  0
 13 14  1  0
 14 15  1  0
  7 16  1  0
 16 17  1  0
 17  4  1  0
 15 11  2  0
M  CHG  1   3   1
M  END
>  <EmbedRMS>  (100) 
0.20783527019262546

>  <Gold.Version>  (100) 
2020.3.0

>  <Gold.Id.Protein>  (100) 
unknown|1q8t_protein|pdb

>  <Gold.PLP.Fitness>  (100) 
43.9254

>  <Gold.PLP.PLP>  (100) 
-34.5195

>  <Gold.PLP.part.hbond>  (100) 
-2.9402

>  <Gold.PLP.part.metal>  (100) 
0.0000

>  <Gold.PLP.part.buried>  (100) 
-4.9477

>  <Gold.PLP.part.nonpolar>  (100) 
-26.3068

>  <Gold.PLP.part.repulsive>  (100) 
0.1686

>  <Gold.PLP.ligand.clash>  (100) 
0.0000

>  <Gold.PLP.ligand.torsion>  (100) 
1.0912

>  <Gold.PLP.Chemscore.Hbond>  (100) 
2.7360

>  <Gold.PLP.Chemscore.CHOScore>  (100) 
0.9968

>  <Gold.PLP.Chemscore.Metal>  (100) 
0.0000

>  <Gold.Chemscore.Hbonds>  (100) 
donor molecule, donor type, donor heavy atom, donor atom, acceptor molecule, acceptor atom, score
      L1  H     3    22       P1  2902  2.00
      L1  H     3    23       P1  2691  0.74
      L1  C    13    33       P1  1855  1.00

>  <Gold.PLP.Chemscore.Internal.Correction>  (100) 
0.3900

>  <Gold.PLP.Constraint>  (100) 
-0.0000

>  <Gold.Protein.RotatedTorsions>  (100) 
[  681  677  676  673 ] final -163.58 input -179.99 | X-H torsion
[  702  698  697  694 ] final -150.75 input  179.99 | X-H torsion
[ 2577 2569 2568 2566 ] final  -83.50 input   -0.13 | X-H torsion
[ 2891 2887 2886 2883 ] final -112.55 input  179.98 | X-H torsion
[ 3175 3171 3170 3167 ] final  -43.91 input -179.99 | X-H torsion
[ 5278 5270 5269 5267 ] final  -81.11 input    0.55 | X-H torsion
[  641  637  636  633 ] final  151.37 input  179.99 | X-H torsion
[ 1886 1878 1877 1875 ] final   36.82 input    1.60 | X-H torsion
[  965  957  956  954 ] final -146.29 input    0.45 | X-H torsion

>  <Gold.Protein.ActiveResidues>  (100) 
 LYS47   THR48   LEU49   GLY50   THR51   GLY52   SER53   PHE54   GLY55   ARG56  
 VAL57   MET58   LEU59   TYR69   ALA70   MET71   LYS72   ILE73   LEU74   GLU91  
 LEU95   VAL104  LYS105  MET118  VAL119  MET120  GLU121  TYR122  VAL123  PRO124 
 GLY125  GLY126  GLU127  MET128  PHE129  TYR164  ASP166  LEU167  LYS168  PRO169 
 GLU170  ASN171  LEU172  LEU173  ILE174  GLN181  VAL182  THR183  ASP184  PHE185 
 GLY186  PHE187  GLY200  THR201  ASN326  PHE327  TYR330  ARG18   ARG19   ASN20  
 ALA21   ILE22   HIS23  

>  <Gold.Protein.RotatedAtoms>  (100) 
   11.1734   19.5672    8.5730 H   0  0  0  0  0  0  0  0  0  0  0  0  # atno 641  bound_to 637 
   16.8035   13.9561    7.1843 H   0  0  0  0  0  0  0  0  0  0  0  0  # atno 681  bound_to 677 
   21.1130   11.5494   -1.2018 H   0  0  0  0  0  0  0  0  0  0  0  0  # atno 702  bound_to 698 
   -6.6780   17.1153   -1.0556 H   0  0  0  0  0  0  0  0  0  0  0  0  # atno 965  bound_to 957 
    2.1723   11.8638   10.4361 H   0  0  0  0  0  0  0  0  0  0  0  0  # atno 1886 bound_to 1878
   10.9158    3.0758   -3.1512 H   0  0  0  0  0  0  0  0  0  0  0  0  # atno 2577 bound_to 2569
    7.1656    5.7338    1.4930 H   0  0  0  0  0  0  0  0  0  0  0  0  # atno 2891 bound_to 2887
   19.3644    3.0010   -0.6399 H   0  0  0  0  0  0  0  0  0  0  0  0  # atno 3175 bound_to 3171
   13.6233    9.8131   10.4796 H   0  0  0  0  0  0  0  0  0  0  0  0  # atno 5278 bound_to 5270
   16.9105   12.8482    6.0454 LP  0  0  0  0  0  0  0  0  0  0  0  0  # atno 5914 bound_to 677 
   15.5775   12.9601    6.9821 LP  0  0  0  0  0  0  0  0  0  0  0  0  # atno 5915 bound_to 677 
   19.7096   11.7951   -1.9143 LP  0  0  0  0  0  0  0  0  0  0  0  0  # atno 5920 bound_to 698 
   19.8241   11.7433   -0.2861 LP  0  0  0  0  0  0  0  0  0  0  0  0  # atno 5921 bound_to 698 
   10.2486    1.8751   -2.3460 LP  0  0  0  0  0  0  0  0  0  0  0  0  # atno 5950 bound_to 2569
    9.3285    2.9507   -3.1603 LP  0  0  0  0  0  0  0  0  0  0  0  0  # atno 5951 bound_to 2569
    7.9564    6.9836    0.9020 LP  0  0  0  0  0  0  0  0  0  0  0  0  # atno 5982 bound_to 2887
    8.1770    5.4867    0.2878 LP  0  0  0  0  0  0  0  0  0  0  0  0  # atno 5983 bound_to 2887
   18.2953    2.3608    0.3514 LP  0  0  0  0  0  0  0  0  0  0  0  0  # atno 6000 bound_to 3171
   18.2136    2.0897   -1.2569 LP  0  0  0  0  0  0  0  0  0  0  0  0  # atno 6001 bound_to 3171
   14.2935   10.1494    9.0745 LP  0  0  0  0  0  0  0  0  0  0  0  0  # atno 6004 bound_to 5270
   12.6694   10.0929    9.2352 LP  0  0  0  0  0  0  0  0  0  0  0  0  # atno 6005 bound_to 5270
    9.5965   19.5618    8.3534 LP  0  0  0  0  0  0  0  0  0  0  0  0  # atno 6055 bound_to 637 
   10.6005   18.9321    7.2301 LP  0  0  0  0  0  0  0  0  0  0  0  0  # atno 6056 bound_to 637 
    1.3737   10.4931   10.5733 LP  0  0  0  0  0  0  0  0  0  0  0  0  # atno 6063 bound_to 1878
    0.7248   11.8965   11.0987 LP  0  0  0  0  0  0  0  0  0  0  0  0  # atno 6064 bound_to 1878
   -7.2051   16.0890    0.0417 LP  0  0  0  0  0  0  0  0  0  0  0  0  # atno 6067 bound_to 957 
   -6.5697   15.5573   -1.3655 LP  0  0  0  0  0  0  0  0  0  0  0  0  # atno 6068 bound_to 957 

>  <STRIFE_LigEff_Score>  (100) 
2.5838470588235296

$$$$
unknown|pharmsElabsTestPreDocking|sdf|106|dock5
     RDKit          3D

 18 19  0  0  0  0  0  0  0  0999 V2000
   14.7798    8.0085    3.2910 C   0  0  0  0  0  0  0  0  0  0  0  0
   13.7851    8.2115    2.1355 C   0  0  0  0  0  0  0  0  0  0  0  0
   13.9897    7.1857    1.1085 N   0  0  0  0  0  0  0  0  0  0  0  0
   12.2740    8.3704    2.5358 C   0  0  0  0  0  0  0  0  0  0  0  0
   11.3068    7.6056    1.6335 C   0  0  0  0  0  0  0  0  0  0  0  0
    9.8404    7.7018    2.0278 C   0  0  0  0  0  0  0  0  0  0  0  0
    9.4320    9.0887    2.4656 C   0  0  0  0  0  0  0  0  0  0  0  0
    7.9438    9.2826    2.5733 C   0  0  0  0  0  0  0  0  0  0  0  0
    7.4345    9.8769    1.5929 O   0  0  0  0  0  0  0  0  0  0  0  0
    7.0964    8.8538    3.6634 N   0  0  0  0  0  0  0  0  0  0  0  0
    5.6839    9.1920    3.7153 C   0  0  0  0  0  0  0  0  0  0  0  0
    5.0703    9.5533    4.9241 C   0  0  0  0  0  0  0  0  0  0  0  0
    3.7469    9.8772    4.9386 N   0  0  0  0  0  0  0  0  0  0  0  0
    2.9990    9.8591    3.8040 C   0  0  0  0  0  0  0  0  0  0  0  0
    3.5987    9.5009    2.5989 C   0  0  0  0  0  0  0  0  0  0  0  0
    4.9182    9.1791    2.5843 N   0  0  0  0  0  0  0  0  0  0  0  0
   10.3200    9.7918    3.4673 C   0  0  0  0  0  0  0  0  0  0  0  0
   11.7995    9.7438    3.0503 C   0  0  0  0  0  0  0  0  0  0  0  0
  1  2  1  0
  2  3  1  0
  2  4  1  0
  4  5  1  0
  5  6  1  0
  6  7  1  0
  7  8  1  0
  8  9  2  0
  8 10  1  0
 10 11  1  0
 11 12  2  0
 12 13  1  0
 13 14  2  0
 14 15  1  0
 15 16  2  0
  7 17  1  0
 17 18  1  0
 18  4  1  0
 16 11  1  0
M  CHG  1   3   1
M  END
>  <EmbedRMS>  (101) 
0.26001469916217457

>  <Gold.Version>  (101) 
2020.3.0

>  <Gold.Id.Protein>  (101) 
unknown|1q8t_protein|pdb

>  <Gold.PLP.Fitness>  (101) 
48.6826

>  <Gold.PLP.PLP>  (101) 
-38.1227

>  <Gold.PLP.part.hbond>  (101) 
-2.0000

>  <Gold.PLP.part.metal>  (101) 
0.0000

>  <Gold.PLP.part.buried>  (101) 
-3.2149

>  <Gold.PLP.part.nonpolar>  (101) 
-32.8845

>  <Gold.PLP.part.repulsive>  (101) 
0.1547

>  <Gold.PLP.ligand.clash>  (101) 
0.0000

>  <Gold.PLP.ligand.torsion>  (101) 
1.5092

>  <Gold.PLP.Chemscore.Hbond>  (101) 
3.0000

>  <Gold.PLP.Chemscore.CHOScore>  (101) 
1.2530

>  <Gold.PLP.Chemscore.Metal>  (101) 
0.0000

>  <Gold.Chemscore.Hbonds>  (101) 
donor molecule, donor type, donor heavy atom, donor atom, acceptor molecule, acceptor atom, score
      L1  H     3    23       P1  2902  2.00
      L1  H     3    24       P1  2691  1.00
      L1  C    14    34       P1  1855  0.79
      L1  C    15    35       P1  1855  0.46

>  <Gold.PLP.Chemscore.Internal.Correction>  (101) 
0.8195

>  <Gold.PLP.Constraint>  (101) 
-0.0000

>  <Gold.Protein.RotatedTorsions>  (101) 
[  681  677  676  673 ] final   -2.98 input -179.99 | X-H torsion
[  702  698  697  694 ] final  157.33 input  179.99 | X-H torsion
[ 2577 2569 2568 2566 ] final  -95.88 input   -0.13 | X-H torsion
[ 2891 2887 2886 2883 ] final  130.51 input  179.98 | X-H torsion
[ 3175 3171 3170 3167 ] final -126.47 input -179.99 | X-H torsion
[ 5278 5270 5269 5267 ] final  -26.59 input    0.55 | X-H torsion
[  641  637  636  633 ] final -139.15 input  179.99 | X-H torsion
[ 1886 1878 1877 1875 ] final  170.82 input    1.60 | X-H torsion
[  965  957  956  954 ] final -160.72 input    0.45 | X-H torsion

>  <Gold.Protein.ActiveResidues>  (101) 
 LYS47   THR48   LEU49   GLY50   THR51   GLY52   SER53   PHE54   GLY55   ARG56  
 VAL57   MET58   LEU59   TYR69   ALA70   MET71   LYS72   ILE73   LEU74   GLU91  
 LEU95   VAL104  LYS105  MET118  VAL119  MET120  GLU121  TYR122  VAL123  PRO124 
 GLY125  GLY126  GLU127  MET128  PHE129  TYR164  ASP166  LEU167  LYS168  PRO169 
 GLU170  ASN171  LEU172  LEU173  ILE174  GLN181  VAL182  THR183  ASP184  PHE185 
 GLY186  PHE187  GLY200  THR201  ASN326  PHE327  TYR330  ARG18   ARG19   ASN20  
 ALA21   ILE22   HIS23  

>  <Gold.Protein.RotatedAtoms>  (101) 
   11.2313   19.1013    7.6669 H   0  0  0  0  0  0  0  0  0  0  0  0  # atno 641  bound_to 637 
   15.8397   12.6508    6.4873 H   0  0  0  0  0  0  0  0  0  0  0  0  # atno 681  bound_to 677 
   20.7262   11.6310   -1.8796 H   0  0  0  0  0  0  0  0  0  0  0  0  # atno 702  bound_to 698 
   -6.7688   17.1612   -0.8551 H   0  0  0  0  0  0  0  0  0  0  0  0  # atno 965  bound_to 957 
    0.6619   11.6775   11.0702 H   0  0  0  0  0  0  0  0  0  0  0  0  # atno 1886 bound_to 1878
   11.0068    2.9390   -3.0496 H   0  0  0  0  0  0  0  0  0  0  0  0  # atno 2577 bound_to 2569
    7.9038    6.9457    0.9283 H   0  0  0  0  0  0  0  0  0  0  0  0  # atno 2891 bound_to 2887
   18.7816    2.6980    0.3426 H   0  0  0  0  0  0  0  0  0  0  0  0  # atno 3175 bound_to 3171
   12.8585    9.8769   10.1883 H   0  0  0  0  0  0  0  0  0  0  0  0  # atno 5278 bound_to 5270
   16.2349   13.8504    7.4574 LP  0  0  0  0  0  0  0  0  0  0  0  0  # atno 5914 bound_to 677 
   17.2675   13.3318    6.3036 LP  0  0  0  0  0  0  0  0  0  0  0  0  # atno 5915 bound_to 677 
   19.3038   11.8532   -1.1979 LP  0  0  0  0  0  0  0  0  0  0  0  0  # atno 5920 bound_to 698 
   20.6368   11.5993   -0.2895 LP  0  0  0  0  0  0  0  0  0  0  0  0  # atno 5921 bound_to 698 
   10.0457    1.8734   -2.3597 LP  0  0  0  0  0  0  0  0  0  0  0  0  # atno 5950 bound_to 2569
    9.4356    3.0963   -3.2536 LP  0  0  0  0  0  0  0  0  0  0  0  0  # atno 5951 bound_to 2569
    8.2013    5.5267    0.2692 LP  0  0  0  0  0  0  0  0  0  0  0  0  # atno 5982 bound_to 2887
    7.1551    5.6683    1.5149 LP  0  0  0  0  0  0  0  0  0  0  0  0  # atno 5983 bound_to 2887
   17.9151    1.9345   -0.7537 LP  0  0  0  0  0  0  0  0  0  0  0  0  # atno 6000 bound_to 3171
   19.2072    2.8349   -1.1857 LP  0  0  0  0  0  0  0  0  0  0  0  0  # atno 6001 bound_to 3171
   14.4241    9.9463    9.9037 LP  0  0  0  0  0  0  0  0  0  0  0  0  # atno 6004 bound_to 5270
   13.3434   10.2288    8.7125 LP  0  0  0  0  0  0  0  0  0  0  0  0  # atno 6005 bound_to 5270
   10.4940   19.7900    8.8986 LP  0  0  0  0  0  0  0  0  0  0  0  0  # atno 6055 bound_to 637 
    9.6421   19.1945    7.6391 LP  0  0  0  0  0  0  0  0  0  0  0  0  # atno 6056 bound_to 637 
    2.1043   12.0666   10.5196 LP  0  0  0  0  0  0  0  0  0  0  0  0  # atno 6063 bound_to 1878
    1.5843   10.5191   10.4849 LP  0  0  0  0  0  0  0  0  0  0  0  0  # atno 6064 bound_to 1878
   -7.1762   15.8640   -0.0265 LP  0  0  0  0  0  0  0  0  0  0  0  0  # atno 6067 bound_to 957 
   -6.5030   15.7338   -1.5085 LP  0  0  0  0  0  0  0  0  0  0  0  0  # atno 6068 bound_to 957 

>  <STRIFE_LigEff_Score>  (101) 
2.704588888888889

$$$$
unknown|pharmsElabsTestPreDocking|sdf|107|dock2
     RDKit          3D

 16 16  0  0  0  0  0  0  0  0999 V2000
   13.5413    7.1387    3.8196 C   0  0  0  0  0  0  0  0  0  0  0  0
   13.1660    8.0148    2.6107 C   0  0  0  0  0  0  0  0  0  0  0  0
   13.3345    7.2338    1.3775 N   0  0  0  0  0  0  0  0  0  0  0  0
   11.7138    8.5758    2.7711 C   0  0  0  0  0  0  0  0  0  0  0  0
   10.7249    7.3980    2.8411 C   0  0  0  0  0  0  0  0  0  0  0  0
    9.2628    7.8275    2.8895 C   0  0  0  0  0  0  0  0  0  0  0  0
    9.0360    9.2061    3.4899 C   0  0  0  0  0  0  0  0  0  0  0  0
    7.5940    9.5047    3.7820 C   0  0  0  0  0  0  0  0  0  0  0  0
    6.8980    9.8054    2.7824 O   0  0  0  0  0  0  0  0  0  0  0  0
    6.9847    9.4842    5.0864 N   0  0  0  0  0  0  0  0  0  0  0  0
    5.7070   10.0994    5.3681 C   0  0  0  0  0  0  0  0  0  0  0  0
    4.6218    9.6242    4.7637 N   0  0  0  0  0  0  0  0  0  0  0  0
    4.6657    8.9031    3.5070 N   0  0  0  0  0  0  0  0  0  0  0  0
    3.4997    8.7613    2.7470 N   0  0  0  0  0  0  0  0  0  0  0  0
   10.0889    9.8648    4.3636 C   0  0  0  0  0  0  0  0  0  0  0  0
   11.5419    9.4531    4.0369 C   0  0  0  0  0  0  0  0  0  0  0  0
  1  2  1  0
  2  3  1  0
  2  4  1  0
  4  5  1  0
  5  6  1  0
  6  7  1  0
  7  8  1  0
  8  9  2  0
  8 10  1  0
 10 11  1  0
 11 12  2  0
 12 13  1  0
 13 14  1  0
  7 15  1  0
 15 16  1  0
 16  4  1  0
M  CHG  1   3   1
M  END
>  <EmbedRMS>  (102) 
0.19412633373752486

>  <Gold.Version>  (102) 
2020.3.0

>  <Gold.Id.Protein>  (102) 
unknown|1q8t_protein|pdb

>  <Gold.PLP.Fitness>  (102) 
39.7971

>  <Gold.PLP.PLP>  (102) 
-31.6790

>  <Gold.PLP.part.hbond>  (102) 
-2.0000

>  <Gold.PLP.part.metal>  (102) 
0.0000

>  <Gold.PLP.part.buried>  (102) 
-8.3488

>  <Gold.PLP.part.nonpolar>  (102) 
-21.3451

>  <Gold.PLP.part.repulsive>  (102) 
0.0948

>  <Gold.PLP.ligand.clash>  (102) 
0.0000

>  <Gold.PLP.ligand.torsion>  (102) 
0.7071

>  <Gold.PLP.Chemscore.Hbond>  (102) 
2.9280

>  <Gold.PLP.Chemscore.CHOScore>  (102) 
0.0000

>  <Gold.PLP.Chemscore.Metal>  (102) 
0.0000

>  <Gold.Chemscore.Hbonds>  (102) 
donor molecule, donor type, donor heavy atom, donor atom, acceptor molecule, acceptor atom, score
      L1  H     3    21       P1  2902  1.95
      L1  H     3    23       P1  2691  0.98

>  <Gold.PLP.Chemscore.Internal.Correction>  (102) 
0.7484

>  <Gold.PLP.Constraint>  (102) 
-0.0000

>  <Gold.Protein.RotatedTorsions>  (102) 
[  681  677  676  673 ] final -175.72 input -179.99 | X-H torsion
[  702  698  697  694 ] final   35.14 input  179.99 | X-H torsion
[ 2577 2569 2568 2566 ] final   81.02 input   -0.13 | X-H torsion
[ 2891 2887 2886 2883 ] final  159.69 input  179.98 | X-H torsion
[ 3175 3171 3170 3167 ] final  -51.88 input -179.99 | X-H torsion
[ 5278 5270 5269 5267 ] final  145.64 input    0.55 | X-H torsion
[  641  637  636  633 ] final  -20.19 input  179.99 | X-H torsion
[ 1886 1878 1877 1875 ] final  -90.38 input    1.60 | X-H torsion
[  965  957  956  954 ] final  -80.98 input    0.45 | X-H torsion

>  <Gold.Protein.ActiveResidues>  (102) 
 LYS47   THR48   LEU49   GLY50   THR51   GLY52   SER53   PHE54   GLY55   ARG56  
 VAL57   MET58   LEU59   TYR69   ALA70   MET71   LYS72   ILE73   LEU74   GLU91  
 LEU95   VAL104  LYS105  MET118  VAL119  MET120  GLU121  TYR122  VAL123  PRO124 
 GLY125  GLY126  GLU127  MET128  PHE129  TYR164  ASP166  LEU167  LYS168  PRO169 
 GLU170  ASN171  LEU172  LEU173  ILE174  GLN181  VAL182  THR183  ASP184  PHE185 
 GLY186  PHE187  GLY200  THR201  ASN326  PHE327  TYR330  ARG18   ARG19   ASN20  
 ALA21   ILE22   HIS23  

>  <Gold.Protein.RotatedAtoms>  (102) 
    9.6909   19.1814    7.6552 H   0  0  0  0  0  0  0  0  0  0  0  0  # atno 641  bound_to 637 
   16.9489   13.9280    7.0664 H   0  0  0  0  0  0  0  0  0  0  0  0  # atno 681  bound_to 677 
   19.3507   11.8610   -1.1603 H   0  0  0  0  0  0  0  0  0  0  0  0  # atno 702  bound_to 698 
   -6.4357   16.3575   -1.6039 H   0  0  0  0  0  0  0  0  0  0  0  0  # atno 965  bound_to 957 
    1.2679   10.5503   10.6107 H   0  0  0  0  0  0  0  0  0  0  0  0  # atno 1886 bound_to 1878
    9.3323    2.3682   -2.7759 H   0  0  0  0  0  0  0  0  0  0  0  0  # atno 2577 bound_to 2569
    7.6042    6.8716    1.2576 H   0  0  0  0  0  0  0  0  0  0  0  0  # atno 2891 bound_to 2887
   19.3637    3.0167   -0.5163 H   0  0  0  0  0  0  0  0  0  0  0  0  # atno 3175 bound_to 3171
   14.1155   10.1938    8.9569 H   0  0  0  0  0  0  0  0  0  0  0  0  # atno 5278 bound_to 5270
   16.7480   12.7336    6.0324 LP  0  0  0  0  0  0  0  0  0  0  0  0  # atno 5914 bound_to 677 
   15.5870   13.1044    7.1192 LP  0  0  0  0  0  0  0  0  0  0  0  0  # atno 5915 bound_to 677 
   20.6684   11.5941   -0.3060 LP  0  0  0  0  0  0  0  0  0  0  0  0  # atno 5920 bound_to 698 
   20.7191   11.6166   -1.9381 LP  0  0  0  0  0  0  0  0  0  0  0  0  # atno 5921 bound_to 698 
   10.3584    3.4109   -3.4044 LP  0  0  0  0  0  0  0  0  0  0  0  0  # atno 5950 bound_to 2569
   10.8860    2.1599   -2.4970 LP  0  0  0  0  0  0  0  0  0  0  0  0  # atno 5951 bound_to 2569
    8.3619    5.9664    0.1885 LP  0  0  0  0  0  0  0  0  0  0  0  0  # atno 5982 bound_to 2887
    7.3099    5.3064    1.2489 LP  0  0  0  0  0  0  0  0  0  0  0  0  # atno 5983 bound_to 2887
   18.2042    2.2858    0.2942 LP  0  0  0  0  0  0  0  0  0  0  0  0  # atno 6000 bound_to 3171
   18.3055    2.1482   -1.3298 LP  0  0  0  0  0  0  0  0  0  0  0  0  # atno 6001 bound_to 3171
   12.6043   10.0425    9.4367 LP  0  0  0  0  0  0  0  0  0  0  0  0  # atno 6004 bound_to 5270
   13.8407    9.7992   10.4753 LP  0  0  0  0  0  0  0  0  0  0  0  0  # atno 6005 bound_to 5270
   11.2814   19.1093    7.6516 LP  0  0  0  0  0  0  0  0  0  0  0  0  # atno 6055 bound_to 637 
   10.4769   19.7909    8.8984 LP  0  0  0  0  0  0  0  0  0  0  0  0  # atno 6056 bound_to 637 
    0.7916   11.9934   11.0858 LP  0  0  0  0  0  0  0  0  0  0  0  0  # atno 6063 bound_to 1878
    2.2590   11.7789   10.4023 LP  0  0  0  0  0  0  0  0  0  0  0  0  # atno 6064 bound_to 1878
   -7.0421   17.0346   -0.2966 LP  0  0  0  0  0  0  0  0  0  0  0  0  # atno 6067 bound_to 957 
   -6.9879   15.4097   -0.4498 LP  0  0  0  0  0  0  0  0  0  0  0  0  # atno 6068 bound_to 957 

>  <STRIFE_LigEff_Score>  (102) 
2.48731875

$$$$
unknown|pharmsElabsTestPreDocking|sdf|108|dock3
     RDKit          3D

 17 18  0  0  0  0  0  0  0  0999 V2000
   14.5988    7.9486    2.6670 C   0  0  0  0  0  0  0  0  0  0  0  0
   13.2203    7.9391    2.0081 C   0  0  0  0  0  0  0  0  0  0  0  0
   13.1100    8.9375    0.9426 N   0  0  0  0  0  0  0  0  0  0  0  0
   11.9683    7.9035    2.9185 C   0  0  0  0  0  0  0  0  0  0  0  0
   10.7936    7.1160    2.3201 C   0  0  0  0  0  0  0  0  0  0  0  0
    9.4210    7.4011    2.9059 C   0  0  0  0  0  0  0  0  0  0  0  0
    9.1978    8.8674    3.1770 C   0  0  0  0  0  0  0  0  0  0  0  0
    7.7641    9.2288    3.4284 C   0  0  0  0  0  0  0  0  0  0  0  0
    7.5947    9.9395    4.4446 O   0  0  0  0  0  0  0  0  0  0  0  0
    6.6271    8.8373    2.6290 N   0  0  0  0  0  0  0  0  0  0  0  0
    5.2625    9.1379    3.0187 C   0  0  0  0  0  0  0  0  0  0  0  0
    4.7957    9.5259    4.2737 C   0  0  0  0  0  0  0  0  0  0  0  0
    3.4341    9.6787    4.1470 C   0  0  0  0  0  0  0  0  0  0  0  0
    3.0516    9.4016    2.8879 N   0  0  0  0  0  0  0  0  0  0  0  0
    4.1570    9.0702    2.1925 C   0  0  0  0  0  0  0  0  0  0  0  0
   10.2446    9.5702    3.9927 C   0  0  0  0  0  0  0  0  0  0  0  0
   11.6528    9.3257    3.4543 C   0  0  0  0  0  0  0  0  0  0  0  0
  1  2  1  0
  2  3  1  0
  2  4  1  0
  4  5  1  0
  5  6  1  0
  6  7  1  0
  7  8  1  0
  8  9  2  0
  8 10  1  0
 10 11  1  0
 11 12  1  0
 12 13  2  0
 13 14  1  0
 14 15  1  0
  7 16  1  0
 16 17  1  0
 17  4  1  0
 15 11  2  0
M  CHG  1   3   1
M  END
>  <EmbedRMS>  (103) 
0.3005329260886256

>  <Gold.Version>  (103) 
2020.3.0

>  <Gold.Id.Protein>  (103) 
unknown|1q8t_protein|pdb

>  <Gold.PLP.Fitness>  (103) 
49.3679

>  <Gold.PLP.PLP>  (103) 
-41.1547

>  <Gold.PLP.part.hbond>  (103) 
-2.0000

>  <Gold.PLP.part.metal>  (103) 
0.0000

>  <Gold.PLP.part.buried>  (103) 
-4.6056

>  <Gold.PLP.part.nonpolar>  (103) 
-34.4570

>  <Gold.PLP.part.repulsive>  (103) 
0.1341

>  <Gold.PLP.ligand.clash>  (103) 
0.0000

>  <Gold.PLP.ligand.torsion>  (103) 
0.7078

>  <Gold.PLP.Chemscore.Hbond>  (103) 
3.0000

>  <Gold.PLP.Chemscore.CHOScore>  (103) 
0.0000

>  <Gold.PLP.Chemscore.Metal>  (103) 
0.0000

>  <Gold.Chemscore.Hbonds>  (103) 
donor molecule, donor type, donor heavy atom, donor atom, acceptor molecule, acceptor atom, score
      L1  H     3    23       P1  2902  2.00
      L1  H    14    34       P1  1855  1.00

>  <Gold.PLP.Chemscore.Internal.Correction>  (103) 
0.6289

>  <Gold.PLP.Constraint>  (103) 
-0.0000

>  <Gold.Protein.RotatedTorsions>  (103) 
[  681  677  676  673 ] final  -80.84 input -179.99 | X-H torsion
[  702  698  697  694 ] final   65.42 input  179.99 | X-H torsion
[ 2577 2569 2568 2566 ] final  145.26 input   -0.13 | X-H torsion
[ 2891 2887 2886 2883 ] final   31.03 input  179.98 | X-H torsion
[ 3175 3171 3170 3167 ] final   60.81 input -179.99 | X-H torsion
[ 5278 5270 5269 5267 ] final  -39.65 input    0.55 | X-H torsion
[  641  637  636  633 ] final  -55.37 input  179.99 | X-H torsion
[ 1886 1878 1877 1875 ] final  -31.09 input    1.60 | X-H torsion
[  965  957  956  954 ] final   75.73 input    0.45 | X-H torsion

>  <Gold.Protein.ActiveResidues>  (103) 
 LYS47   THR48   LEU49   GLY50   THR51   GLY52   SER53   PHE54   GLY55   ARG56  
 VAL57   MET58   LEU59   TYR69   ALA70   MET71   LYS72   ILE73   LEU74   GLU91  
 LEU95   VAL104  LYS105  MET118  VAL119  MET120  GLU121  TYR122  VAL123  PRO124 
 GLY125  GLY126  GLU127  MET128  PHE129  TYR164  ASP166  LEU167  LYS168  PRO169 
 GLU170  ASN171  LEU172  LEU173  ILE174  GLN181  VAL182  THR183  ASP184  PHE185 
 GLY186  PHE187  GLY200  THR201  ASN326  PHE327  TYR330  ARG18   ARG19   ASN20  
 ALA21   ILE22   HIS23  

>  <Gold.Protein.RotatedAtoms>  (103) 
   10.0871   18.9965    7.3364 H   0  0  0  0  0  0  0  0  0  0  0  0  # atno 641  bound_to 637 
   15.7541   13.4210    7.3040 H   0  0  0  0  0  0  0  0  0  0  0  0  # atno 681  bound_to 677 
   19.4850   11.8458   -1.6084 H   0  0  0  0  0  0  0  0  0  0  0  0  # atno 702  bound_to 698 
   -7.1333   15.8351   -0.0819 H   0  0  0  0  0  0  0  0  0  0  0  0  # atno 965  bound_to 957 
    2.0402   10.8783   10.3262 H   0  0  0  0  0  0  0  0  0  0  0  0  # atno 1886 bound_to 1878
   10.0710    1.9014   -2.3976 H   0  0  0  0  0  0  0  0  0  0  0  0  # atno 2577 bound_to 2569
    8.2885    5.8422    0.2184 H   0  0  0  0  0  0  0  0  0  0  0  0  # atno 2891 bound_to 2887
   18.4175    2.2083   -1.3378 H   0  0  0  0  0  0  0  0  0  0  0  0  # atno 3175 bound_to 3171
   13.0100    9.8457   10.3212 H   0  0  0  0  0  0  0  0  0  0  0  0  # atno 5278 bound_to 5270
   17.2160   13.7955    6.7953 LP  0  0  0  0  0  0  0  0  0  0  0  0  # atno 5914 bound_to 677 
   16.3766   12.5760    6.1062 LP  0  0  0  0  0  0  0  0  0  0  0  0  # atno 5915 bound_to 677 
   20.1961   11.6756   -0.1932 LP  0  0  0  0  0  0  0  0  0  0  0  0  # atno 5920 bound_to 698 
   21.0501   11.5510   -1.5795 LP  0  0  0  0  0  0  0  0  0  0  0  0  # atno 5921 bound_to 698 
    9.4242    3.0837   -3.2456 LP  0  0  0  0  0  0  0  0  0  0  0  0  # atno 5950 bound_to 2569
   11.0425    2.9786   -3.0541 LP  0  0  0  0  0  0  0  0  0  0  0  0  # atno 5951 bound_to 2569
    7.2496    5.3972    1.3406 LP  0  0  0  0  0  0  0  0  0  0  0  0  # atno 5982 bound_to 2887
    7.7021    6.9591    1.1906 LP  0  0  0  0  0  0  0  0  0  0  0  0  # atno 5983 bound_to 2887
   19.3776    3.0642   -0.3990 LP  0  0  0  0  0  0  0  0  0  0  0  0  # atno 6000 bound_to 3171
   18.1278    2.2206    0.2279 LP  0  0  0  0  0  0  0  0  0  0  0  0  # atno 6001 bound_to 3171
   14.4688    9.9970    9.7001 LP  0  0  0  0  0  0  0  0  0  0  0  0  # atno 6004 bound_to 5270
   13.1393   10.2109    8.7763 LP  0  0  0  0  0  0  0  0  0  0  0  0  # atno 6005 bound_to 5270
   11.4080   19.3563    8.1492 LP  0  0  0  0  0  0  0  0  0  0  0  0  # atno 6055 bound_to 637 
    9.9331   19.7386    8.7366 LP  0  0  0  0  0  0  0  0  0  0  0  0  # atno 6056 bound_to 637 
    0.6155   11.0808   11.0078 LP  0  0  0  0  0  0  0  0  0  0  0  0  # atno 6063 bound_to 1878
    1.6221   12.3462   10.7798 LP  0  0  0  0  0  0  0  0  0  0  0  0  # atno 6064 bound_to 1878
   -6.4894   15.7830   -1.5372 LP  0  0  0  0  0  0  0  0  0  0  0  0  # atno 6067 bound_to 957 
   -6.8058   17.2115   -0.8121 LP  0  0  0  0  0  0  0  0  0  0  0  0  # atno 6068 bound_to 957 

>  <STRIFE_LigEff_Score>  (103) 
2.9039941176470587

$$$$
unknown|pharmsElabsTestPreDocking|sdf|109|dock4
     RDKit          3D

 19 20  0  0  0  0  0  0  0  0999 V2000
   15.4452    6.7808    3.0467 C   0  0  0  0  0  0  0  0  0  0  0  0
   14.3664    7.4243    2.1590 C   0  0  0  0  0  0  0  0  0  0  0  0
   14.2169    6.6624    0.9155 N   0  0  0  0  0  0  0  0  0  0  0  0
   12.9879    7.7297    2.8479 C   0  0  0  0  0  0  0  0  0  0  0  0
   11.7725    7.3872    1.9877 C   0  0  0  0  0  0  0  0  0  0  0  0
   10.4236    7.6286    2.6482 C   0  0  0  0  0  0  0  0  0  0  0  0
   10.3729    8.9129    3.4409 C   0  0  0  0  0  0  0  0  0  0  0  0
    8.9875    9.3162    3.8584 C   0  0  0  0  0  0  0  0  0  0  0  0
    8.0821    8.9934    3.0508 O   0  0  0  0  0  0  0  0  0  0  0  0
    8.6263   10.0200    5.0600 N   0  0  0  0  0  0  0  0  0  0  0  0
    7.2147   10.4000    5.2497 C   0  0  0  0  0  0  0  0  0  0  0  0
    6.2752    9.1971    5.2749 C   0  0  0  0  0  0  0  0  0  0  0  0
    5.2135    9.3275    4.2325 C   0  0  0  0  0  0  0  0  0  0  0  0
    5.4714    9.2595    2.9109 N   0  0  0  0  0  0  0  0  0  0  0  0
    4.2581    9.3727    2.3372 C   0  0  0  0  0  0  0  0  0  0  0  0
    3.2961    9.4963    3.3150 C   0  0  0  0  0  0  0  0  0  0  0  0
    3.9025    9.4614    4.5108 N   0  0  0  0  0  0  0  0  0  0  0  0
   11.5106    9.1830    4.3994 C   0  0  0  0  0  0  0  0  0  0  0  0
   12.8795    8.9916    3.7264 C   0  0  0  0  0  0  0  0  0  0  0  0
  1  2  1  0
  2  3  1  0
  2  4  1  0
  4  5  1  0
  5  6  1  0
  6  7  1  0
  7  8  1  0
  8  9  2  0
  8 10  1  0
 10 11  1  0
 11 12  1  0
 12 13  1  0
 13 14  2  0
 14 15  1  0
 15 16  2  0
 16 17  1  0
  7 18  1  0
 18 19  1  0
 19  4  1  0
 17 13  1  0
M  CHG  1   3   1
M  END
>  <EmbedRMS>  (104) 
0.2541626628134513

>  <Gold.Version>  (104) 
2020.3.0

>  <Gold.Id.Protein>  (104) 
unknown|1q8t_protein|pdb

>  <Gold.PLP.Fitness>  (104) 
52.2757

>  <Gold.PLP.PLP>  (104) 
-42.7851

>  <Gold.PLP.part.hbond>  (104) 
-2.0000

>  <Gold.PLP.part.metal>  (104) 
0.0000

>  <Gold.PLP.part.buried>  (104) 
-6.7509

>  <Gold.PLP.part.nonpolar>  (104) 
-34.7711

>  <Gold.PLP.part.repulsive>  (104) 
0.2214

>  <Gold.PLP.ligand.clash>  (104) 
0.0000

>  <Gold.PLP.ligand.torsion>  (104) 
1.7099

>  <Gold.PLP.Chemscore.Hbond>  (104) 
3.0000

>  <Gold.PLP.Chemscore.CHOScore>  (104) 
1.0000

>  <Gold.PLP.Chemscore.Metal>  (104) 
0.0000

>  <Gold.Chemscore.Hbonds>  (104) 
donor molecule, donor type, donor heavy atom, donor atom, acceptor molecule, acceptor atom, score
      L1  H     3    24       P1  2902  2.00
      L1  H     3    25       P1  2691  1.00
      L1  C    16    39       P1  1855  1.00

>  <Gold.PLP.Chemscore.Internal.Correction>  (104) 
0.9104

>  <Gold.PLP.Constraint>  (104) 
-0.0000

>  <Gold.Protein.RotatedTorsions>  (104) 
[  681  677  676  673 ] final  -97.67 input -179.99 | X-H torsion
[  702  698  697  694 ] final  123.51 input  179.99 | X-H torsion
[ 2577 2569 2568 2566 ] final  135.28 input   -0.13 | X-H torsion
[ 2891 2887 2886 2883 ] final  162.02 input  179.98 | X-H torsion
[ 3175 3171 3170 3167 ] final -142.09 input -179.99 | X-H torsion
[ 5278 5270 5269 5267 ] final -147.82 input    0.55 | X-H torsion
[  641  637  636  633 ] final    0.35 input  179.99 | X-H torsion
[ 1886 1878 1877 1875 ] final  155.47 input    1.60 | X-H torsion
[  965  957  956  954 ] final  178.43 input    0.45 | X-H torsion

>  <Gold.Protein.ActiveResidues>  (104) 
 LYS47   THR48   LEU49   GLY50   THR51   GLY52   SER53   PHE54   GLY55   ARG56  
 VAL57   MET58   LEU59   TYR69   ALA70   MET71   LYS72   ILE73   LEU74   GLU91  
 LEU95   VAL104  LYS105  MET118  VAL119  MET120  GLU121  TYR122  VAL123  PRO124 
 GLY125  GLY126  GLU127  MET128  PHE129  TYR164  ASP166  LEU167  LYS168  PRO169 
 GLU170  ASN171  LEU172  LEU173  ILE174  GLN181  VAL182  THR183  ASP184  PHE185 
 GLY186  PHE187  GLY200  THR201  ASN326  PHE327  TYR330  ARG18   ARG19   ASN20  
 ALA21   ILE22   HIS23  

>  <Gold.Protein.RotatedAtoms>  (104) 
    9.5856   19.3231    7.9213 H   0  0  0  0  0  0  0  0  0  0  0  0  # atno 641  bound_to 637 
   15.9164   13.6084    7.3892 H   0  0  0  0  0  0  0  0  0  0  0  0  # atno 681  bound_to 677 
   20.2355   11.7209   -2.0311 H   0  0  0  0  0  0  0  0  0  0  0  0  # atno 702  bound_to 698 
   -6.9026   17.1282   -0.5618 H   0  0  0  0  0  0  0  0  0  0  0  0  # atno 965  bound_to 957 
    0.7649   11.8933   11.0616 H   0  0  0  0  0  0  0  0  0  0  0  0  # atno 1886 bound_to 1878
    9.9187    1.9225   -2.4234 H   0  0  0  0  0  0  0  0  0  0  0  0  # atno 2577 bound_to 2569
    7.5809    6.8563    1.2810 H   0  0  0  0  0  0  0  0  0  0  0  0  # atno 2891 bound_to 2887
   18.5858    2.5572    0.3747 H   0  0  0  0  0  0  0  0  0  0  0  0  # atno 3175 bound_to 3171
   14.3855    9.9701    9.8753 H   0  0  0  0  0  0  0  0  0  0  0  0  # atno 5278 bound_to 5270
   17.2916   13.6320    6.5863 LP  0  0  0  0  0  0  0  0  0  0  0  0  # atno 5914 bound_to 677 
   16.1301   12.5423    6.2255 LP  0  0  0  0  0  0  0  0  0  0  0  0  # atno 5915 bound_to 677 
   19.4244   11.8215   -0.6639 LP  0  0  0  0  0  0  0  0  0  0  0  0  # atno 5920 bound_to 698 
   21.0323   11.5365   -0.6642 LP  0  0  0  0  0  0  0  0  0  0  0  0  # atno 5921 bound_to 698 
    9.5335    3.1878   -3.3099 LP  0  0  0  0  0  0  0  0  0  0  0  0  # atno 5950 bound_to 2569
   11.0934    2.8523   -2.9626 LP  0  0  0  0  0  0  0  0  0  0  0  0  # atno 5951 bound_to 2569
    8.3684    6.0041    0.1900 LP  0  0  0  0  0  0  0  0  0  0  0  0  # atno 5982 bound_to 2887
    7.3280    5.2849    1.2229 LP  0  0  0  0  0  0  0  0  0  0  0  0  # atno 5983 bound_to 2887
   18.0083    1.9726   -0.9893 LP  0  0  0  0  0  0  0  0  0  0  0  0  # atno 6000 bound_to 3171
   19.3201    2.9450   -0.9840 LP  0  0  0  0  0  0  0  0  0  0  0  0  # atno 6001 bound_to 3171
   13.3236   10.2276    8.7166 LP  0  0  0  0  0  0  0  0  0  0  0  0  # atno 6004 bound_to 5270
   12.8372    9.8495   10.2289 LP  0  0  0  0  0  0  0  0  0  0  0  0  # atno 6005 bound_to 5270
   11.0623   19.0030    7.4196 LP  0  0  0  0  0  0  0  0  0  0  0  0  # atno 6055 bound_to 637 
   10.8069   19.7478    8.8502 LP  0  0  0  0  0  0  0  0  0  0  0  0  # atno 6056 bound_to 637 
    2.2268   11.8650   10.4312 LP  0  0  0  0  0  0  0  0  0  0  0  0  # atno 6063 bound_to 1878
    1.3533   10.4935   10.5824 LP  0  0  0  0  0  0  0  0  0  0  0  0  # atno 6064 bound_to 1878
   -7.0956   15.5875   -0.2094 LP  0  0  0  0  0  0  0  0  0  0  0  0  # atno 6067 bound_to 957 
   -6.4427   16.0451   -1.6345 LP  0  0  0  0  0  0  0  0  0  0  0  0  # atno 6068 bound_to 957 

>  <STRIFE_LigEff_Score>  (104) 
2.7513526315789476

$$$$
unknown|pharmsElabsTestPreDocking|sdf|110|dock1
     RDKit          3D

 18 19  0  0  0  0  0  0  0  0999 V2000
    4.9426    9.8057    5.5785 C   0  0  0  0  0  0  0  0  0  0  0  0
    4.6754    9.5404    4.1299 C   0  0  0  0  0  0  0  0  0  0  0  0
    3.4538    9.6789    3.5806 N   0  0  0  0  0  0  0  0  0  0  0  0
    3.5887    9.4754    2.2567 C   0  0  0  0  0  0  0  0  0  0  0  0
    4.9085    9.1955    1.9438 C   0  0  0  0  0  0  0  0  0  0  0  0
    5.6016    9.2165    3.1407 C   0  0  0  0  0  0  0  0  0  0  0  0
    7.0289    9.0263    3.2901 N   0  0  0  0  0  0  0  0  0  0  0  0
    7.9459    9.2791    2.2073 C   0  0  0  0  0  0  0  0  0  0  0  0
    7.5277    9.8459    1.1687 O   0  0  0  0  0  0  0  0  0  0  0  0
    9.4162    8.9690    2.2072 C   0  0  0  0  0  0  0  0  0  0  0  0
    9.7663    7.4867    2.3646 C   0  0  0  0  0  0  0  0  0  0  0  0
   11.2731    7.2033    2.5410 C   0  0  0  0  0  0  0  0  0  0  0  0
   12.1261    8.3200    1.9180 C   0  0  0  0  0  0  0  0  0  0  0  0
   13.6406    8.0320    1.6773 C   0  0  0  0  0  0  0  0  0  0  0  0
   14.5407    9.2326    1.4392 C   0  0  0  0  0  0  0  0  0  0  0  0
   13.9827    6.8468    0.8981 N   0  0  0  0  0  0  0  0  0  0  0  0
   11.8567    9.6488    2.6533 C   0  0  0  0  0  0  0  0  0  0  0  0
   10.3656   10.0442    2.7105 C   0  0  0  0  0  0  0  0  0  0  0  0
  1  2  1  0
  2  3  1  0
  3  4  1  0
  4  5  2  0
  5  6  1  0
  6  7  1  0
  7  8  1  0
  8  9  2  0
  8 10  1  0
 10 11  1  0
 11 12  1  0
 12 13  1  0
 13 14  1  0
 14 15  1  0
 14 16  1  0
 13 17  1  0
 17 18  1  0
  6  2  2  0
 18 10  1  0
M  CHG  1  16   1
M  END
>  <EmbedRMS>  (105) 
0.24995529680257836

>  <Gold.Version>  (105) 
2020.3.0

>  <Gold.Id.Protein>  (105) 
unknown|1q8t_protein|pdb

>  <Gold.PLP.Fitness>  (105) 
52.6908

>  <Gold.PLP.PLP>  (105) 
-41.1978

>  <Gold.PLP.part.hbond>  (105) 
-2.0000

>  <Gold.PLP.part.metal>  (105) 
0.0000

>  <Gold.PLP.part.buried>  (105) 
-2.9768

>  <Gold.PLP.part.nonpolar>  (105) 
-37.1281

>  <Gold.PLP.part.repulsive>  (105) 
0.1714

>  <Gold.PLP.ligand.clash>  (105) 
0.0000

>  <Gold.PLP.ligand.torsion>  (105) 
0.7564

>  <Gold.PLP.Chemscore.Hbond>  (105) 
2.9440

>  <Gold.PLP.Chemscore.CHOScore>  (105) 
1.0000

>  <Gold.PLP.Chemscore.Metal>  (105) 
0.0000

>  <Gold.Chemscore.Hbonds>  (105) 
donor molecule, donor type, donor heavy atom, donor atom, acceptor molecule, acceptor atom, score
      L1  H    16    36       P1  2691  0.94
      L1  H    16    38       P1  2902  2.00
      L1  C     4    23       P1  1855  1.00

>  <Gold.PLP.Chemscore.Internal.Correction>  (105) 
1.1737

>  <Gold.PLP.Constraint>  (105) 
-0.0000

>  <Gold.Protein.RotatedTorsions>  (105) 
[  681  677  676  673 ] final   45.83 input -179.99 | X-H torsion
[  702  698  697  694 ] final -116.67 input  179.99 | X-H torsion
[ 2577 2569 2568 2566 ] final   50.91 input   -0.13 | X-H torsion
[ 2891 2887 2886 2883 ] final   63.30 input  179.98 | X-H torsion
[ 3175 3171 3170 3167 ] final  149.83 input -179.99 | X-H torsion
[ 5278 5270 5269 5267 ] final  -24.41 input    0.55 | X-H torsion
[  641  637  636  633 ] final  -98.04 input  179.99 | X-H torsion
[ 1886 1878 1877 1875 ] final -146.08 input    1.60 | X-H torsion
[  965  957  956  954 ] final    4.50 input    0.45 | X-H torsion

>  <Gold.Protein.ActiveResidues>  (105) 
 LYS47   THR48   LEU49   GLY50   THR51   GLY52   SER53   PHE54   GLY55   ARG56  
 VAL57   MET58   LEU59   TYR69   ALA70   MET71   LYS72   ILE73   LEU74   GLU91  
 LEU95   VAL104  LYS105  MET118  VAL119  MET120  GLU121  TYR122  VAL123  PRO124 
 GLY125  GLY126  GLU127  MET128  PHE129  TYR164  ASP166  LEU167  LYS168  PRO169 
 GLU170  ASN171  LEU172  LEU173  ILE174  GLN181  VAL182  THR183  ASP184  PHE185 
 GLY186  PHE187  GLY200  THR201  ASN326  PHE327  TYR330  ARG18   ARG19   ASN20  
 ALA21   ILE22   HIS23  

>  <Gold.Protein.RotatedAtoms>  (105) 
   10.7362   18.9474    7.3113 H   0  0  0  0  0  0  0  0  0  0  0  0  # atno 641  bound_to 637 
   16.4684   12.6495    6.0965 H   0  0  0  0  0  0  0  0  0  0  0  0  # atno 681  bound_to 677 
   20.9970   11.5601   -0.6897 H   0  0  0  0  0  0  0  0  0  0  0  0  # atno 702  bound_to 698 
   -6.7467   15.3876   -0.9408 H   0  0  0  0  0  0  0  0  0  0  0  0  # atno 965  bound_to 957 
    0.6748   11.0301   10.9541 H   0  0  0  0  0  0  0  0  0  0  0  0  # atno 1886 bound_to 1878
    9.3013    2.7484   -3.0422 H   0  0  0  0  0  0  0  0  0  0  0  0  # atno 2577 bound_to 2569
    8.3375    6.3339    0.2794 H   0  0  0  0  0  0  0  0  0  0  0  0  # atno 2891 bound_to 2887
   17.9547    2.0163   -0.1863 H   0  0  0  0  0  0  0  0  0  0  0  0  # atno 3175 bound_to 3171
   12.8365    9.8829   10.1630 H   0  0  0  0  0  0  0  0  0  0  0  0  # atno 5278 bound_to 5270
   15.6737   13.3351    7.2942 LP  0  0  0  0  0  0  0  0  0  0  0  0  # atno 5914 bound_to 677 
   17.1670   13.8484    6.8781 LP  0  0  0  0  0  0  0  0  0  0  0  0  # atno 5915 bound_to 677 
   20.2297   11.7060   -2.0780 LP  0  0  0  0  0  0  0  0  0  0  0  0  # atno 5920 bound_to 698 
   19.4259   11.8212   -0.6612 LP  0  0  0  0  0  0  0  0  0  0  0  0  # atno 5921 bound_to 698 
   10.7973    3.2485   -3.2594 LP  0  0  0  0  0  0  0  0  0  0  0  0  # atno 5950 bound_to 2569
   10.4798    1.9219   -2.3616 LP  0  0  0  0  0  0  0  0  0  0  0  0  # atno 5951 bound_to 2569
    7.5217    5.1512    0.9665 LP  0  0  0  0  0  0  0  0  0  0  0  0  # atno 5982 bound_to 2887
    7.3784    6.6877    1.5006 LP  0  0  0  0  0  0  0  0  0  0  0  0  # atno 5983 bound_to 2887
   18.8006    2.4997   -1.4457 LP  0  0  0  0  0  0  0  0  0  0  0  0  # atno 6000 bound_to 3171
   19.1920    2.9871    0.0628 LP  0  0  0  0  0  0  0  0  0  0  0  0  # atno 6001 bound_to 3171
   14.4120    9.9381    9.9365 LP  0  0  0  0  0  0  0  0  0  0  0  0  # atno 6004 bound_to 5270
   13.3787   10.2307    8.7064 LP  0  0  0  0  0  0  0  0  0  0  0  0  # atno 6005 bound_to 5270
   11.1068   19.6499    8.6912 LP  0  0  0  0  0  0  0  0  0  0  0  0  # atno 6055 bound_to 637 
    9.5506   19.4967    8.2209 LP  0  0  0  0  0  0  0  0  0  0  0  0  # atno 6056 bound_to 637 
    1.5475   12.3545   10.8141 LP  0  0  0  0  0  0  0  0  0  0  0  0  # atno 6063 bound_to 1878
    2.1274   10.9127   10.3126 LP  0  0  0  0  0  0  0  0  0  0  0  0  # atno 6064 bound_to 1878
   -6.5172   16.8775   -1.4532 LP  0  0  0  0  0  0  0  0  0  0  0  0  # atno 6067 bound_to 957 
   -7.1852   16.5883    0.0085 LP  0  0  0  0  0  0  0  0  0  0  0  0  # atno 6068 bound_to 957 

>  <STRIFE_LigEff_Score>  (105) 
2.9272666666666667

$$$$
unknown|pharmsElabsTestPreDocking|sdf|111|dock3
     RDKit          3D

 13 13  0  0  0  0  0  0  0  0999 V2000
    4.9797    8.9015    2.7570 C   0  0  0  0  0  0  0  0  0  0  0  0
    6.3776    8.8748    2.3201 N   0  0  0  0  0  0  0  0  0  0  0  0
    7.4288    9.0530    3.2805 C   0  0  0  0  0  0  0  0  0  0  0  0
    7.1290    9.3119    4.4724 O   0  0  0  0  0  0  0  0  0  0  0  0
    8.8966    8.9317    2.9969 C   0  0  0  0  0  0  0  0  0  0  0  0
    9.4394    7.5004    3.0160 C   0  0  0  0  0  0  0  0  0  0  0  0
   10.9755    7.4002    2.9139 C   0  0  0  0  0  0  0  0  0  0  0  0
   11.5674    8.6347    2.2155 C   0  0  0  0  0  0  0  0  0  0  0  0
   13.0364    8.5446    1.6988 C   0  0  0  0  0  0  0  0  0  0  0  0
   13.6675    9.8297    1.1904 C   0  0  0  0  0  0  0  0  0  0  0  0
   13.4163    7.3433    0.9630 N   0  0  0  0  0  0  0  0  0  0  0  0
   11.2819    9.8932    3.0599 C   0  0  0  0  0  0  0  0  0  0  0  0
    9.7889   10.0974    3.3940 C   0  0  0  0  0  0  0  0  0  0  0  0
  1  2  1  0
  2  3  1  0
  3  4  2  0
  3  5  1  0
  5  6  1  0
  6  7  1  0
  7  8  1  0
  8  9  1  0
  9 10  1  0
  9 11  1  0
  8 12  1  0
 12 13  1  0
 13  5  1  0
M  CHG  1  11   1
M  END
>  <EmbedRMS>  (106) 
0.29639754771625826

>  <Gold.Version>  (106) 
2020.3.0

>  <Gold.Id.Protein>  (106) 
unknown|1q8t_protein|pdb

>  <Gold.PLP.Fitness>  (106) 
34.0485

>  <Gold.PLP.PLP>  (106) 
-25.5199

>  <Gold.PLP.part.hbond>  (106) 
-2.0004

>  <Gold.PLP.part.metal>  (106) 
0.0000

>  <Gold.PLP.part.buried>  (106) 
-2.9818

>  <Gold.PLP.part.nonpolar>  (106) 
-20.2383

>  <Gold.PLP.part.repulsive>  (106) 
0.0485

>  <Gold.PLP.ligand.clash>  (106) 
0.0000

>  <Gold.PLP.ligand.torsion>  (106) 
0.5222

>  <Gold.PLP.Chemscore.Hbond>  (106) 
2.8480

>  <Gold.PLP.Chemscore.CHOScore>  (106) 
0.0000

>  <Gold.PLP.Chemscore.Metal>  (106) 
0.0000

>  <Gold.Chemscore.Hbonds>  (106) 
donor molecule, donor type, donor heavy atom, donor atom, acceptor molecule, acceptor atom, score
      L1  H    11    29       P1  2691  0.85
      L1  H    11    30       P1  2902  2.00

>  <Gold.PLP.Chemscore.Internal.Correction>  (106) 
1.0290

>  <Gold.PLP.Constraint>  (106) 
-0.0000

>  <Gold.Protein.RotatedTorsions>  (106) 
[  681  677  676  673 ] final  124.83 input -179.99 | X-H torsion
[  702  698  697  694 ] final   21.97 input  179.99 | X-H torsion
[ 2577 2569 2568 2566 ] final -150.83 input   -0.13 | X-H torsion
[ 2891 2887 2886 2883 ] final -117.88 input  179.98 | X-H torsion
[ 3175 3171 3170 3167 ] final  -39.83 input -179.99 | X-H torsion
[ 5278 5270 5269 5267 ] final   -5.07 input    0.55 | X-H torsion
[  641  637  636  633 ] final    4.79 input  179.99 | X-H torsion
[ 1886 1878 1877 1875 ] final   42.79 input    1.60 | X-H torsion
[  965  957  956  954 ] final   53.76 input    0.45 | X-H torsion

>  <Gold.Protein.ActiveResidues>  (106) 
 LYS47   THR48   LEU49   GLY50   THR51   GLY52   SER53   PHE54   GLY55   ARG56  
 VAL57   MET58   LEU59   TYR69   ALA70   MET71   LYS72   ILE73   LEU74   GLU91  
 LEU95   VAL104  LYS105  MET118  VAL119  MET120  GLU121  TYR122  VAL123  PRO124 
 GLY125  GLY126  GLU127  MET128  PHE129  TYR164  ASP166  LEU167  LYS168  PRO169 
 GLU170  ASN171  LEU172  LEU173  ILE174  GLN181  VAL182  THR183  ASP184  PHE185 
 GLY186  PHE187  GLY200  THR201  ASN326  PHE327  TYR330  ARG18   ARG19   ASN20  
 ALA21   ILE22   HIS23  

>  <Gold.Protein.RotatedAtoms>  (106) 
    9.5774   19.3548    7.9824 H   0  0  0  0  0  0  0  0  0  0  0  0  # atno 641  bound_to 637 
   17.2435   13.4312    6.3914 H   0  0  0  0  0  0  0  0  0  0  0  0  # atno 681  bound_to 677 
   19.3675   11.8541   -0.9556 H   0  0  0  0  0  0  0  0  0  0  0  0  # atno 702  bound_to 698 
   -7.0446   15.5735   -0.2823 H   0  0  0  0  0  0  0  0  0  0  0  0  # atno 965  bound_to 957 
    2.1312   11.9415   10.4674 H   0  0  0  0  0  0  0  0  0  0  0  0  # atno 1886 bound_to 1878
   10.9279    2.2608   -2.5844 H   0  0  0  0  0  0  0  0  0  0  0  0  # atno 2577 bound_to 2569
    7.1569    5.8116    1.5217 H   0  0  0  0  0  0  0  0  0  0  0  0  # atno 2891 bound_to 2887
   19.3594    2.9891   -0.7024 H   0  0  0  0  0  0  0  0  0  0  0  0  # atno 3175 bound_to 3171
   12.6879    9.9441    9.9086 H   0  0  0  0  0  0  0  0  0  0  0  0  # atno 5278 bound_to 5270
   15.9022   12.5727    6.3969 LP  0  0  0  0  0  0  0  0  0  0  0  0  # atno 5914 bound_to 677 
   16.1228   13.7880    7.4651 LP  0  0  0  0  0  0  0  0  0  0  0  0  # atno 5915 bound_to 677 
   20.8432   11.5655   -0.4299 LP  0  0  0  0  0  0  0  0  0  0  0  0  # atno 5920 bound_to 698 
   20.5266   11.6525   -2.0295 LP  0  0  0  0  0  0  0  0  0  0  0  0  # atno 5921 bound_to 698 
    9.3387    2.2640   -2.6827 LP  0  0  0  0  0  0  0  0  0  0  0  0  # atno 5950 bound_to 2569
   10.2257    3.4198   -3.4203 LP  0  0  0  0  0  0  0  0  0  0  0  0  # atno 5951 bound_to 2569
    8.0107    6.9674    0.8351 LP  0  0  0  0  0  0  0  0  0  0  0  0  # atno 5982 bound_to 2887
    8.1318    5.4211    0.3244 LP  0  0  0  0  0  0  0  0  0  0  0  0  # atno 5983 bound_to 2887
   18.3446    2.4003    0.3742 LP  0  0  0  0  0  0  0  0  0  0  0  0  # atno 6000 bound_to 3171
   18.1696    2.0627   -1.2139 LP  0  0  0  0  0  0  0  0  0  0  0  0  # atno 6001 bound_to 3171
   14.2518    9.8711   10.2012 LP  0  0  0  0  0  0  0  0  0  0  0  0  # atno 6004 bound_to 5270
   13.6953   10.2333    8.7093 LP  0  0  0  0  0  0  0  0  0  0  0  0  # atno 6005 bound_to 5270
   11.0039   18.9857    7.3793 LP  0  0  0  0  0  0  0  0  0  0  0  0  # atno 6055 bound_to 637 
   10.8739   19.7318    8.8261 LP  0  0  0  0  0  0  0  0  0  0  0  0  # atno 6056 bound_to 637 
    1.4638   10.4974   10.5343 LP  0  0  0  0  0  0  0  0  0  0  0  0  # atno 6063 bound_to 1878
    0.6780   11.8104   11.1047 LP  0  0  0  0  0  0  0  0  0  0  0  0  # atno 6064 bound_to 1878
   -6.4358   16.1206   -1.6480 LP  0  0  0  0  0  0  0  0  0  0  0  0  # atno 6067 bound_to 957 
   -6.9529   17.1494   -0.4902 LP  0  0  0  0  0  0  0  0  0  0  0  0  # atno 6068 bound_to 957 

>  <STRIFE_LigEff_Score>  (106) 
2.6191153846153843

$$$$
unknown|pharmsElabsTestPreDocking|sdf|112|dock4
     RDKit          3D

 16 16  0  0  0  0  0  0  0  0999 V2000
    4.6499    9.7053    2.7281 C   0  0  0  0  0  0  0  0  0  0  0  0
    5.4429    9.9503    3.9874 C   0  0  0  0  0  0  0  0  0  0  0  0
    4.6420    9.9071    5.2950 C   0  0  0  0  0  0  0  0  0  0  0  0
    3.6005    8.8920    5.1378 N   0  0  0  0  0  0  0  0  0  0  0  0
    6.7966    9.4143    3.9696 N   0  0  0  0  0  0  0  0  0  0  0  0
    7.7457    9.4134    2.9041 C   0  0  0  0  0  0  0  0  0  0  0  0
    7.5322   10.1033    1.8720 O   0  0  0  0  0  0  0  0  0  0  0  0
    9.0995    8.7878    3.1380 C   0  0  0  0  0  0  0  0  0  0  0  0
    9.4493    7.8107    2.0174 C   0  0  0  0  0  0  0  0  0  0  0  0
   10.7507    7.0709    2.3003 C   0  0  0  0  0  0  0  0  0  0  0  0
   11.9249    7.9460    2.8156 C   0  0  0  0  0  0  0  0  0  0  0  0
   13.2554    7.9803    2.0365 C   0  0  0  0  0  0  0  0  0  0  0  0
   14.5559    8.0618    2.8356 C   0  0  0  0  0  0  0  0  0  0  0  0
   13.2416    8.9735    0.9535 N   0  0  0  0  0  0  0  0  0  0  0  0
   11.5608    9.2998    3.4965 C   0  0  0  0  0  0  0  0  0  0  0  0
   10.1746    9.8713    3.2044 C   0  0  0  0  0  0  0  0  0  0  0  0
  1  2  1  0
  2  3  1  0
  3  4  1  0
  2  5  1  0
  5  6  1  0
  6  7  2  0
  6  8  1  0
  8  9  1  0
  9 10  1  0
 10 11  1  0
 11 12  1  0
 12 13  1  0
 12 14  1  0
 11 15  1  0
 15 16  1  0
 16  8  1  0
M  CHG  2   4   1  14   1
M  END
>  <EmbedRMS>  (107) 
0.3005344476337905

>  <Gold.Version>  (107) 
2020.3.0

>  <Gold.Id.Protein>  (107) 
unknown|1q8t_protein|pdb

>  <Gold.PLP.Fitness>  (107) 
40.8303

>  <Gold.PLP.PLP>  (107) 
-33.2386

>  <Gold.PLP.part.hbond>  (107) 
-2.0000

>  <Gold.PLP.part.metal>  (107) 
0.0000

>  <Gold.PLP.part.buried>  (107) 
-2.5491

>  <Gold.PLP.part.nonpolar>  (107) 
-28.3535

>  <Gold.PLP.part.repulsive>  (107) 
0.0966

>  <Gold.PLP.ligand.clash>  (107) 
0.0000

>  <Gold.PLP.ligand.torsion>  (107) 
1.1551

>  <Gold.PLP.Chemscore.Hbond>  (107) 
2.9920

>  <Gold.PLP.Chemscore.CHOScore>  (107) 
0.0000

>  <Gold.PLP.Chemscore.Metal>  (107) 
0.0000

>  <Gold.Chemscore.Hbonds>  (107) 
donor molecule, donor type, donor heavy atom, donor atom, acceptor molecule, acceptor atom, score
      L1  H     4    23       P1  1891  0.99
      L1  H    14    37       P1  2902  2.00

>  <Gold.PLP.Chemscore.Internal.Correction>  (107) 
0.9260

>  <Gold.PLP.Constraint>  (107) 
-0.0000

>  <Gold.Protein.RotatedTorsions>  (107) 
[  681  677  676  673 ] final   -3.28 input -179.99 | X-H torsion
[  702  698  697  694 ] final   81.73 input  179.99 | X-H torsion
[ 2577 2569 2568 2566 ] final -115.39 input   -0.13 | X-H torsion
[ 2891 2887 2886 2883 ] final -170.70 input  179.98 | X-H torsion
[ 3175 3171 3170 3167 ] final -163.99 input -179.99 | X-H torsion
[ 5278 5270 5269 5267 ] final  115.40 input    0.55 | X-H torsion
[  641  637  636  633 ] final -156.46 input  179.99 | X-H torsion
[ 1886 1878 1877 1875 ] final -159.12 input    1.60 | X-H torsion
[  965  957  956  954 ] final -118.21 input    0.45 | X-H torsion

>  <Gold.Protein.ActiveResidues>  (107) 
 LYS47   THR48   LEU49   GLY50   THR51   GLY52   SER53   PHE54   GLY55   ARG56  
 VAL57   MET58   LEU59   TYR69   ALA70   MET71   LYS72   ILE73   LEU74   GLU91  
 LEU95   VAL104  LYS105  MET118  VAL119  MET120  GLU121  TYR122  VAL123  PRO124 
 GLY125  GLY126  GLU127  MET128  PHE129  TYR164  ASP166  LEU167  LYS168  PRO169 
 GLU170  ASN171  LEU172  LEU173  ILE174  GLN181  VAL182  THR183  ASP184  PHE185 
 GLY186  PHE187  GLY200  THR201  ASN326  PHE327  TYR330  ARG18   ARG19   ASN20  
 ALA21   ILE22   HIS23  

>  <Gold.Protein.RotatedAtoms>  (107) 
   11.3357   19.2097    7.8905 H   0  0  0  0  0  0  0  0  0  0  0  0  # atno 641  bound_to 637 
   15.8367   12.6523    6.4907 H   0  0  0  0  0  0  0  0  0  0  0  0  # atno 681  bound_to 677 
   19.6468   11.8209   -1.8031 H   0  0  0  0  0  0  0  0  0  0  0  0  # atno 702  bound_to 698 
   -6.5290   16.8783   -1.3879 H   0  0  0  0  0  0  0  0  0  0  0  0  # atno 965  bound_to 957 
    0.6226   11.2188   11.0093 H   0  0  0  0  0  0  0  0  0  0  0  0  # atno 1886 bound_to 1878
   11.0710    2.6976   -2.8772 H   0  0  0  0  0  0  0  0  0  0  0  0  # atno 2577 bound_to 2569
    7.3379    6.5874    1.4980 H   0  0  0  0  0  0  0  0  0  0  0  0  # atno 2891 bound_to 2887
   18.3216    2.3529    0.3093 H   0  0  0  0  0  0  0  0  0  0  0  0  # atno 3175 bound_to 3171
   13.6942   10.2381    8.7593 H   0  0  0  0  0  0  0  0  0  0  0  0  # atno 5278 bound_to 5270
   16.2393   13.8526    7.4569 LP  0  0  0  0  0  0  0  0  0  0  0  0  # atno 5914 bound_to 677 
   17.2662   13.3280    6.3006 LP  0  0  0  0  0  0  0  0  0  0  0  0  # atno 5915 bound_to 677 
   19.9369   11.7225   -0.2399 LP  0  0  0  0  0  0  0  0  0  0  0  0  # atno 5920 bound_to 698 
   21.1392   11.5303   -1.3281 LP  0  0  0  0  0  0  0  0  0  0  0  0  # atno 5921 bound_to 698 
    9.7419    1.9431   -2.4304 LP  0  0  0  0  0  0  0  0  0  0  0  0  # atno 5950 bound_to 2569
    9.6718    3.2808   -3.3644 LP  0  0  0  0  0  0  0  0  0  0  0  0  # atno 5951 bound_to 2569
    8.3687    6.4365    0.2933 LP  0  0  0  0  0  0  0  0  0  0  0  0  # atno 5982 bound_to 2887
    7.5835    5.1355    0.8911 LP  0  0  0  0  0  0  0  0  0  0  0  0  # atno 5983 bound_to 2887
   18.2144    2.0901   -1.2576 LP  0  0  0  0  0  0  0  0  0  0  0  0  # atno 6000 bound_to 3171
   19.3921    3.0424   -0.6469 LP  0  0  0  0  0  0  0  0  0  0  0  0  # atno 6001 bound_to 3171
   12.6415    9.9254    9.9129 LP  0  0  0  0  0  0  0  0  0  0  0  0  # atno 6004 bound_to 5270
   14.2468    9.8696   10.2069 LP  0  0  0  0  0  0  0  0  0  0  0  0  # atno 6005 bound_to 5270
   10.2127   19.7863    8.8606 LP  0  0  0  0  0  0  0  0  0  0  0  0  # atno 6055 bound_to 637 
    9.8134   19.0840    7.4415 LP  0  0  0  0  0  0  0  0  0  0  0  0  # atno 6056 bound_to 637 
    1.7384   12.3183   10.7238 LP  0  0  0  0  0  0  0  0  0  0  0  0  # atno 6063 bound_to 1878
    1.9916   10.7502   10.3448 LP  0  0  0  0  0  0  0  0  0  0  0  0  # atno 6064 bound_to 1878
   -7.1914   16.5458    0.0212 LP  0  0  0  0  0  0  0  0  0  0  0  0  # atno 6067 bound_to 957 
   -6.7403   15.3499   -0.9951 LP  0  0  0  0  0  0  0  0  0  0  0  0  # atno 6068 bound_to 957 

>  <STRIFE_LigEff_Score>  (107) 
2.55189375

$$$$
unknown|pharmsElabsTestPreDocking|sdf|113|dock10
     RDKit          3D

 17 17  0  0  0  0  0  0  0  0999 V2000
   14.6267    9.5137    1.0475 C   0  0  0  0  0  0  0  0  0  0  0  0
   13.8703    8.2782    1.5054 C   0  0  0  0  0  0  0  0  0  0  0  0
   14.1577    7.0676    0.7433 N   0  0  0  0  0  0  0  0  0  0  0  0
   12.4032    8.4871    1.9941 C   0  0  0  0  0  0  0  0  0  0  0  0
   11.6848    7.2906    2.6375 C   0  0  0  0  0  0  0  0  0  0  0  0
   10.1620    7.5283    2.7113 C   0  0  0  0  0  0  0  0  0  0  0  0
    9.7518    9.0035    2.7384 C   0  0  0  0  0  0  0  0  0  0  0  0
    8.2912    9.2512    2.9870 C   0  0  0  0  0  0  0  0  0  0  0  0
    7.7418   10.0583    2.1973 O   0  0  0  0  0  0  0  0  0  0  0  0
    7.5021    8.6793    4.0390 N   0  0  0  0  0  0  0  0  0  0  0  0
    6.1712    9.1247    4.1839 N   0  0  0  0  0  0  0  0  0  0  0  0
    5.2653    8.9473    3.2733 C   0  0  0  0  0  0  0  0  0  0  0  0
    3.9164    9.4119    3.4692 N   0  0  0  0  0  0  0  0  0  0  0  0
    3.5140   10.0987    4.6948 C   0  0  0  0  0  0  0  0  0  0  0  0
    2.9572    9.2007    2.4652 N   0  0  0  0  0  0  0  0  0  0  0  0
   10.7387   10.0697    3.1874 C   0  0  0  0  0  0  0  0  0  0  0  0
   12.2142    9.7388    2.8752 C   0  0  0  0  0  0  0  0  0  0  0  0
  1  2  1  0
  2  3  1  0
  2  4  1  0
  4  5  1  0
  5  6  1  0
  6  7  1  0
  7  8  1  0
  8  9  2  0
  8 10  1  0
 10 11  1  0
 11 12  2  0
 12 13  1  0
 13 14  1  0
 13 15  1  0
  7 16  1  0
 16 17  1  0
 17  4  1  0
M  CHG  1   3   1
M  END
>  <EmbedRMS>  (108) 
0.2570984896337683

>  <Gold.Version>  (108) 
2020.3.0

>  <Gold.Id.Protein>  (108) 
unknown|1q8t_protein|pdb

>  <Gold.PLP.Fitness>  (108) 
46.8410

>  <Gold.PLP.PLP>  (108) 
-36.4317

>  <Gold.PLP.part.hbond>  (108) 
-3.0000

>  <Gold.PLP.part.metal>  (108) 
0.0000

>  <Gold.PLP.part.buried>  (108) 
-5.0631

>  <Gold.PLP.part.nonpolar>  (108) 
-29.0333

>  <Gold.PLP.part.repulsive>  (108) 
0.0758

>  <Gold.PLP.ligand.clash>  (108) 
0.0000

>  <Gold.PLP.ligand.torsion>  (108) 
0.8016

>  <Gold.PLP.Chemscore.Hbond>  (108) 
3.6720

>  <Gold.PLP.Chemscore.CHOScore>  (108) 
0.0000

>  <Gold.PLP.Chemscore.Metal>  (108) 
0.0000

>  <Gold.Chemscore.Hbonds>  (108) 
donor molecule, donor type, donor heavy atom, donor atom, acceptor molecule, acceptor atom, score
      L1  H     3    22       P1  2691  1.00
      L1  H     3    24       P1  2902  2.00
      L1  H    15    37       P1  1855  0.67

>  <Gold.PLP.Chemscore.Internal.Correction>  (108) 
0.9965

>  <Gold.PLP.Constraint>  (108) 
-0.0000

>  <Gold.Protein.RotatedTorsions>  (108) 
[  681  677  676  673 ] final -176.17 input -179.99 | X-H torsion
[  702  698  697  694 ] final   67.01 input  179.99 | X-H torsion
[ 2577 2569 2568 2566 ] final   41.43 input   -0.13 | X-H torsion
[ 2891 2887 2886 2883 ] final  122.38 input  179.98 | X-H torsion
[ 3175 3171 3170 3167 ] final -175.02 input -179.99 | X-H torsion
[ 5278 5270 5269 5267 ] final   58.59 input    0.55 | X-H torsion
[  641  637  636  633 ] final   73.36 input  179.99 | X-H torsion
[ 1886 1878 1877 1875 ] final   -7.08 input    1.60 | X-H torsion
[  965  957  956  954 ] final   18.66 input    0.45 | X-H torsion

>  <Gold.Protein.ActiveResidues>  (108) 
 LYS47   THR48   LEU49   GLY50   THR51   GLY52   SER53   PHE54   GLY55   ARG56  
 VAL57   MET58   LEU59   TYR69   ALA70   MET71   LYS72   ILE73   LEU74   GLU91  
 LEU95   VAL104  LYS105  MET118  VAL119  MET120  GLU121  TYR122  VAL123  PRO124 
 GLY125  GLY126  GLU127  MET128  PHE129  TYR164  ASP166  LEU167  LYS168  PRO169 
 GLU170  ASN171  LEU172  LEU173  ILE174  GLN181  VAL182  THR183  ASP184  PHE185 
 GLY186  PHE187  GLY200  THR201  ASN326  PHE327  TYR330  ARG18   ARG19   ASN20  
 ALA21   ILE22   HIS23  

>  <Gold.Protein.RotatedAtoms>  (108) 
   10.0766   19.7311    8.7739 H   0  0  0  0  0  0  0  0  0  0  0  0  # atno 641  bound_to 637 
   16.9539   13.9264    7.0617 H   0  0  0  0  0  0  0  0  0  0  0  0  # atno 681  bound_to 677 
   19.4983   11.8439   -1.6294 H   0  0  0  0  0  0  0  0  0  0  0  0  # atno 702  bound_to 698 
   -6.8381   15.3756   -0.7403 H   0  0  0  0  0  0  0  0  0  0  0  0  # atno 965  bound_to 957 
    2.2122   11.2082   10.3067 H   0  0  0  0  0  0  0  0  0  0  0  0  # atno 1886 bound_to 1878
    9.3419    2.8666   -3.1213 H   0  0  0  0  0  0  0  0  0  0  0  0  # atno 2577 bound_to 2569
    7.9834    6.9258    0.8313 H   0  0  0  0  0  0  0  0  0  0  0  0  # atno 2891 bound_to 2887
   18.2040    2.2554    0.2300 H   0  0  0  0  0  0  0  0  0  0  0  0  # atno 3175 bound_to 3171
   12.8829   10.1675    9.0111 H   0  0  0  0  0  0  0  0  0  0  0  0  # atno 5278 bound_to 5270
   16.7416   12.7298    6.0325 LP  0  0  0  0  0  0  0  0  0  0  0  0  # atno 5914 bound_to 677 
   15.5881   13.1099    7.1240 LP  0  0  0  0  0  0  0  0  0  0  0  0  # atno 5915 bound_to 677 
   20.1703   11.6802   -0.1944 LP  0  0  0  0  0  0  0  0  0  0  0  0  # atno 5920 bound_to 698 
   21.0619   11.5484   -1.5562 LP  0  0  0  0  0  0  0  0  0  0  0  0  # atno 5921 bound_to 698 
   10.9053    3.1602   -3.1902 LP  0  0  0  0  0  0  0  0  0  0  0  0  # atno 5950 bound_to 2569
   10.3290    1.8857   -2.3475 LP  0  0  0  0  0  0  0  0  0  0  0  0  # atno 5951 bound_to 2569
    8.1341    5.4242    0.3225 LP  0  0  0  0  0  0  0  0  0  0  0  0  # atno 5982 bound_to 2887
    7.1386    5.7916    1.5636 LP  0  0  0  0  0  0  0  0  0  0  0  0  # atno 5983 bound_to 2887
   18.3434    2.1730   -1.3541 LP  0  0  0  0  0  0  0  0  0  0  0  0  # atno 6000 bound_to 3171
   19.3869    3.0621   -0.4669 LP  0  0  0  0  0  0  0  0  0  0  0  0  # atno 6001 bound_to 3171
   13.3064    9.7878   10.4988 LP  0  0  0  0  0  0  0  0  0  0  0  0  # atno 6004 bound_to 5270
   14.4354   10.0815    9.3561 LP  0  0  0  0  0  0  0  0  0  0  0  0  # atno 6005 bound_to 5270
    9.9431   19.0303    7.3505 LP  0  0  0  0  0  0  0  0  0  0  0  0  # atno 6055 bound_to 637 
   11.4089   19.2910    8.0214 LP  0  0  0  0  0  0  0  0  0  0  0  0  # atno 6056 bound_to 637 
    0.7941   10.7583   10.8741 LP  0  0  0  0  0  0  0  0  0  0  0  0  # atno 6063 bound_to 1878
    1.2625   12.3215   10.9342 LP  0  0  0  0  0  0  0  0  0  0  0  0  # atno 6064 bound_to 1878
   -6.4662   16.6830   -1.5695 LP  0  0  0  0  0  0  0  0  0  0  0  0  # atno 6067 bound_to 957 
   -7.1401   16.7955   -0.0863 LP  0  0  0  0  0  0  0  0  0  0  0  0  # atno 6068 bound_to 957 

>  <STRIFE_LigEff_Score>  (108) 
2.755352941176471

$$$$
unknown|pharmsElabsTestPreDocking|sdf|114|dock3
     RDKit          3D

 17 17  0  0  0  0  0  0  0  0999 V2000
   14.8560    7.7901    2.8697 C   0  0  0  0  0  0  0  0  0  0  0  0
   13.7149    8.0761    1.8787 C   0  0  0  0  0  0  0  0  0  0  0  0
   13.6946    7.0561    0.8259 N   0  0  0  0  0  0  0  0  0  0  0  0
   12.2948    8.3261    2.5034 C   0  0  0  0  0  0  0  0  0  0  0  0
   11.2055    7.4001    1.9647 C   0  0  0  0  0  0  0  0  0  0  0  0
    9.8296    7.5874    2.5873 C   0  0  0  0  0  0  0  0  0  0  0  0
    9.4637    9.0380    2.7962 C   0  0  0  0  0  0  0  0  0  0  0  0
    8.0158    9.2617    3.1377 C   0  0  0  0  0  0  0  0  0  0  0  0
    7.3552    9.8549    2.2510 O   0  0  0  0  0  0  0  0  0  0  0  0
    7.3518    8.8559    4.3505 N   0  0  0  0  0  0  0  0  0  0  0  0
    6.0620    9.4038    4.7225 C   0  0  0  0  0  0  0  0  0  0  0  0
    5.9710   10.1185    5.8028 N   0  0  0  0  0  0  0  0  0  0  0  0
    4.9102    9.2314    3.8588 N   0  0  0  0  0  0  0  0  0  0  0  0
    3.6000    9.7828    4.2272 C   0  0  0  0  0  0  0  0  0  0  0  0
    5.0841    8.6063    2.6071 N   0  0  0  0  0  0  0  0  0  0  0  0
   10.4954    9.9245    3.4585 C   0  0  0  0  0  0  0  0  0  0  0  0
   11.8789    9.7796    2.8031 C   0  0  0  0  0  0  0  0  0  0  0  0
  1  2  1  0
  2  3  1  0
  2  4  1  0
  4  5  1  0
  5  6  1  0
  6  7  1  0
  7  8  1  0
  8  9  2  0
  8 10  1  0
 10 11  1  0
 11 12  2  0
 11 13  1  0
 13 14  1  0
 13 15  1  0
  7 16  1  0
 16 17  1  0
 17  4  1  0
M  CHG  1   3   1
M  END
>  <EmbedRMS>  (109) 
0.2696792242440413

>  <Gold.Version>  (109) 
2020.3.0

>  <Gold.Id.Protein>  (109) 
unknown|1q8t_protein|pdb

>  <Gold.PLP.Fitness>  (109) 
40.2087

>  <Gold.PLP.PLP>  (109) 
-34.6174

>  <Gold.PLP.part.hbond>  (109) 
-2.0000

>  <Gold.PLP.part.metal>  (109) 
0.0000

>  <Gold.PLP.part.buried>  (109) 
-4.4240

>  <Gold.PLP.part.nonpolar>  (109) 
-27.4121

>  <Gold.PLP.part.repulsive>  (109) 
0.0635

>  <Gold.PLP.ligand.clash>  (109) 
0.0000

>  <Gold.PLP.ligand.torsion>  (109) 
2.1135

>  <Gold.PLP.Chemscore.Hbond>  (109) 
3.0000

>  <Gold.PLP.Chemscore.CHOScore>  (109) 
0.0000

>  <Gold.PLP.Chemscore.Metal>  (109) 
0.0000

>  <Gold.Chemscore.Hbonds>  (109) 
donor molecule, donor type, donor heavy atom, donor atom, acceptor molecule, acceptor atom, score
      L1  H     3    22       P1  2691  1.00
      L1  H     3    24       P1  2902  2.00

>  <Gold.PLP.Chemscore.Internal.Correction>  (109) 
0.8183

>  <Gold.PLP.Constraint>  (109) 
-0.0000

>  <Gold.Protein.RotatedTorsions>  (109) 
[  681  677  676  673 ] final -126.48 input -179.99 | X-H torsion
[  702  698  697  694 ] final    3.90 input  179.99 | X-H torsion
[ 2577 2569 2568 2566 ] final -124.44 input   -0.13 | X-H torsion
[ 2891 2887 2886 2883 ] final  -84.54 input  179.98 | X-H torsion
[ 3175 3171 3170 3167 ] final  172.28 input -179.99 | X-H torsion
[ 5278 5270 5269 5267 ] final  165.19 input    0.55 | X-H torsion
[  641  637  636  633 ] final   -6.72 input  179.99 | X-H torsion
[ 1886 1878 1877 1875 ] final  161.23 input    1.60 | X-H torsion
[  965  957  956  954 ] final -167.49 input    0.45 | X-H torsion

>  <Gold.Protein.ActiveResidues>  (109) 
 LYS47   THR48   LEU49   GLY50   THR51   GLY52   SER53   PHE54   GLY55   ARG56  
 VAL57   MET58   LEU59   TYR69   ALA70   MET71   LYS72   ILE73   LEU74   GLU91  
 LEU95   VAL104  LYS105  MET118  VAL119  MET120  GLU121  TYR122  VAL123  PRO124 
 GLY125  GLY126  GLU127  MET128  PHE129  TYR164  ASP166  LEU167  LYS168  PRO169 
 GLU170  ASN171  LEU172  LEU173  ILE174  GLN181  VAL182  THR183  ASP184  PHE185 
 GLY186  PHE187  GLY200  THR201  ASN326  PHE327  TYR330  ARG18   ARG19   ASN20  
 ALA21   ILE22   HIS23  

>  <Gold.Protein.RotatedAtoms>  (109) 
    9.6096   19.2730    7.8257 H   0  0  0  0  0  0  0  0  0  0  0  0  # atno 641  bound_to 637 
   16.2873   13.8550    7.4039 H   0  0  0  0  0  0  0  0  0  0  0  0  # atno 681  bound_to 677 
   19.4641   11.8318   -0.6921 H   0  0  0  0  0  0  0  0  0  0  0  0  # atno 702  bound_to 698 
   -6.8126   17.1634   -0.7588 H   0  0  0  0  0  0  0  0  0  0  0  0  # atno 965  bound_to 957 
    0.7201   11.8154   11.0680 H   0  0  0  0  0  0  0  0  0  0  0  0  # atno 1886 bound_to 1878
   11.0659    2.5815   -2.7970 H   0  0  0  0  0  0  0  0  0  0  0  0  # atno 2577 bound_to 2569
    7.2907    5.3869    1.2650 H   0  0  0  0  0  0  0  0  0  0  0  0  # atno 2891 bound_to 2887
   18.0889    2.1537    0.1047 H   0  0  0  0  0  0  0  0  0  0  0  0  # atno 3175 bound_to 3171
   14.3088   10.1394    9.1856 H   0  0  0  0  0  0  0  0  0  0  0  0  # atno 5278 bound_to 5270
   17.2512   13.2879    6.2701 LP  0  0  0  0  0  0  0  0  0  0  0  0  # atno 5914 bound_to 677 
   15.7801   12.6269    6.5262 LP  0  0  0  0  0  0  0  0  0  0  0  0  # atno 5915 bound_to 677 
   21.0291   11.5369   -0.6586 LP  0  0  0  0  0  0  0  0  0  0  0  0  # atno 5920 bound_to 698 
   20.2391   11.7044   -2.0779 LP  0  0  0  0  0  0  0  0  0  0  0  0  # atno 5921 bound_to 698 
    9.6162    2.0036   -2.4816 LP  0  0  0  0  0  0  0  0  0  0  0  0  # atno 5950 bound_to 2569
    9.8028    3.3425   -3.3976 LP  0  0  0  0  0  0  0  0  0  0  0  0  # atno 5951 bound_to 2569
    7.6543    6.9373    1.2408 LP  0  0  0  0  0  0  0  0  0  0  0  0  # atno 5982 bound_to 2887
    8.3475    5.8983    0.1889 LP  0  0  0  0  0  0  0  0  0  0  0  0  # atno 5983 bound_to 2887
   18.5049    2.2831   -1.4269 LP  0  0  0  0  0  0  0  0  0  0  0  0  # atno 6000 bound_to 3171
   19.3465    3.0590   -0.2622 LP  0  0  0  0  0  0  0  0  0  0  0  0  # atno 6001 bound_to 3171
   12.7168   10.1154    9.1458 LP  0  0  0  0  0  0  0  0  0  0  0  0  # atno 6004 bound_to 5270
   13.5248    9.7835   10.5255 LP  0  0  0  0  0  0  0  0  0  0  0  0  # atno 6005 bound_to 5270
   11.1480   19.0350    7.4916 LP  0  0  0  0  0  0  0  0  0  0  0  0  # atno 6055 bound_to 637 
   10.6960   19.7686    8.8788 LP  0  0  0  0  0  0  0  0  0  0  0  0  # atno 6056 bound_to 637 
    2.1870   11.9452   10.4624 LP  0  0  0  0  0  0  0  0  0  0  0  0  # atno 6063 bound_to 1878
    1.4402   10.4953   10.5444 LP  0  0  0  0  0  0  0  0  0  0  0  0  # atno 6064 bound_to 1878
   -7.1548   15.7665   -0.0757 LP  0  0  0  0  0  0  0  0  0  0  0  0  # atno 6067 bound_to 957 
   -6.4783   15.8291   -1.5607 LP  0  0  0  0  0  0  0  0  0  0  0  0  # atno 6068 bound_to 957 

>  <STRIFE_LigEff_Score>  (109) 
2.3652176470588238

$$$$
unknown|pharmsElabsTestPreDocking|sdf|115|dock4
     RDKit          3D

 17 18  0  0  0  0  0  0  0  0999 V2000
   13.2733    7.2090    3.7603 C   0  0  0  0  0  0  0  0  0  0  0  0
   13.0506    7.9983    2.4550 C   0  0  0  0  0  0  0  0  0  0  0  0
   13.4248    7.1547    1.3127 N   0  0  0  0  0  0  0  0  0  0  0  0
   11.5735    8.4840    2.3684 C   0  0  0  0  0  0  0  0  0  0  0  0
   10.6218    7.2705    2.3287 C   0  0  0  0  0  0  0  0  0  0  0  0
    9.1922    7.7315    2.0835 C   0  0  0  0  0  0  0  0  0  0  0  0
    8.7413    8.6742    3.2039 C   0  0  0  0  0  0  0  0  0  0  0  0
    7.3253    9.1152    2.9733 C   0  0  0  0  0  0  0  0  0  0  0  0
    7.0050    9.6698    1.8862 O   0  0  0  0  0  0  0  0  0  0  0  0
    6.3576    8.8994    4.0076 N   0  0  0  0  0  0  0  0  0  0  0  0
    4.9697    9.2341    3.9222 C   0  0  0  0  0  0  0  0  0  0  0  0
    4.0996    9.5957    4.9340 C   0  0  0  0  0  0  0  0  0  0  0  0
    2.8866    9.8086    4.3902 N   0  0  0  0  0  0  0  0  0  0  0  0
    2.9738    9.5937    3.0857 N   0  0  0  0  0  0  0  0  0  0  0  0
    4.2291    9.2416    2.7645 C   0  0  0  0  0  0  0  0  0  0  0  0
    9.6847    9.8817    3.3380 C   0  0  0  0  0  0  0  0  0  0  0  0
   11.1426    9.4266    3.5197 C   0  0  0  0  0  0  0  0  0  0  0  0
  1  2  1  0
  2  3  1  0
  2  4  1  0
  4  5  1  0
  5  6  1  0
  6  7  1  0
  7  8  1  0
  8  9  2  0
  8 10  1  0
 10 11  1  0
 11 12  1  0
 12 13  2  0
 13 14  1  0
 14 15  1  0
  7 16  1  0
 16 17  1  0
 17  4  1  0
 15 11  2  0
M  CHG  1   3   1
M  END
>  <EmbedRMS>  (110) 
0.03057603030946681

>  <Gold.Version>  (110) 
2020.3.0

>  <Gold.Id.Protein>  (110) 
unknown|1q8t_protein|pdb

>  <Gold.PLP.Fitness>  (110) 
53.9195

>  <Gold.PLP.PLP>  (110) 
-39.4562

>  <Gold.PLP.part.hbond>  (110) 
-4.0000

>  <Gold.PLP.part.metal>  (110) 
0.0000

>  <Gold.PLP.part.buried>  (110) 
-4.6467

>  <Gold.PLP.part.nonpolar>  (110) 
-31.8844

>  <Gold.PLP.part.repulsive>  (110) 
0.3052

>  <Gold.PLP.ligand.clash>  (110) 
0.0000

>  <Gold.PLP.ligand.torsion>  (110) 
0.2829

>  <Gold.PLP.Chemscore.Hbond>  (110) 
5.0000

>  <Gold.PLP.Chemscore.CHOScore>  (110) 
0.0000

>  <Gold.PLP.Chemscore.Metal>  (110) 
0.0000

>  <Gold.Chemscore.Hbonds>  (110) 
donor molecule, donor type, donor heavy atom, donor atom, acceptor molecule, acceptor atom, score
      L1  H     3    23       P1  2691  1.00
      L1  H     3    24       P1  2902  2.00
      L1  H    14    33       P1  1855  1.00
      P1  H  1888  1903       L1    13  1.00

>  <Gold.PLP.Chemscore.Internal.Correction>  (110) 
0.0290

>  <Gold.PLP.Constraint>  (110) 
-0.0000

>  <Gold.Protein.RotatedTorsions>  (110) 
[  681  677  676  673 ] final  161.29 input -179.99 | X-H torsion
[  702  698  697  694 ] final  109.63 input  179.99 | X-H torsion
[ 2577 2569 2568 2566 ] final   96.88 input   -0.13 | X-H torsion
[ 2891 2887 2886 2883 ] final  -22.31 input  179.98 | X-H torsion
[ 3175 3171 3170 3167 ] final  -53.57 input -179.99 | X-H torsion
[ 5278 5270 5269 5267 ] final   76.81 input    0.55 | X-H torsion
[  641  637  636  633 ] final  -38.89 input  179.99 | X-H torsion
[ 1886 1878 1877 1875 ] final  -11.14 input    1.60 | X-H torsion
[  965  957  956  954 ] final  -28.08 input    0.45 | X-H torsion

>  <Gold.Protein.ActiveResidues>  (110) 
 LYS47   THR48   LEU49   GLY50   THR51   GLY52   SER53   PHE54   GLY55   ARG56  
 VAL57   MET58   LEU59   TYR69   ALA70   MET71   LYS72   ILE73   LEU74   GLU91  
 LEU95   VAL104  LYS105  MET118  VAL119  MET120  GLU121  TYR122  VAL123  PRO124 
 GLY125  GLY126  GLU127  MET128  PHE129  TYR164  ASP166  LEU167  LYS168  PRO169 
 GLU170  ASN171  LEU172  LEU173  ILE174  GLN181  VAL182  THR183  ASP184  PHE185 
 GLY186  PHE187  GLY200  THR201  ASN326  PHE327  TYR330  ARG18   ARG19   ASN20  
 ALA21   ILE22   HIS23  

>  <Gold.Protein.RotatedAtoms>  (110) 
    9.8733   19.0704    7.4578 H   0  0  0  0  0  0  0  0  0  0  0  0  # atno 641  bound_to 637 
   17.1567   13.7966    6.8074 H   0  0  0  0  0  0  0  0  0  0  0  0  # atno 681  bound_to 677 
   20.0237   11.7580   -2.0049 H   0  0  0  0  0  0  0  0  0  0  0  0  # atno 702  bound_to 698 
   -6.5587   15.6117   -1.3492 H   0  0  0  0  0  0  0  0  0  0  0  0  # atno 965  bound_to 957 
    2.1920   11.1480   10.3053 H   0  0  0  0  0  0  0  0  0  0  0  0  # atno 1886 bound_to 1878
    9.4434    2.1910   -2.6447 H   0  0  0  0  0  0  0  0  0  0  0  0  # atno 2577 bound_to 2569
    7.8715    5.2442    0.5581 H   0  0  0  0  0  0  0  0  0  0  0  0  # atno 2891 bound_to 2887
   19.3617    3.0186   -0.4902 H   0  0  0  0  0  0  0  0  0  0  0  0  # atno 3175 bound_to 3171
   13.1089   10.2108    8.8454 H   0  0  0  0  0  0  0  0  0  0  0  0  # atno 5278 bound_to 5270
   16.4086   12.5846    6.0949 LP  0  0  0  0  0  0  0  0  0  0  0  0  # atno 5914 bound_to 677 
   15.7076   13.3917    7.3293 LP  0  0  0  0  0  0  0  0  0  0  0  0  # atno 5915 bound_to 677 
   19.5587   11.7942   -0.4818 LP  0  0  0  0  0  0  0  0  0  0  0  0  # atno 5920 bound_to 698 
   21.1208   11.5248   -0.8738 LP  0  0  0  0  0  0  0  0  0  0  0  0  # atno 5921 bound_to 698 
   10.0993    3.4139   -3.4254 LP  0  0  0  0  0  0  0  0  0  0  0  0  # atno 5950 bound_to 2569
   11.0281    2.3435   -2.6141 LP  0  0  0  0  0  0  0  0  0  0  0  0  # atno 5951 bound_to 2569
    7.1650    6.1888    1.6282 LP  0  0  0  0  0  0  0  0  0  0  0  0  # atno 5982 bound_to 2887
    8.2255    6.7969    0.5455 LP  0  0  0  0  0  0  0  0  0  0  0  0  # atno 5983 bound_to 2887
   18.1860    2.2705    0.2801 LP  0  0  0  0  0  0  0  0  0  0  0  0  # atno 6000 bound_to 3171
   18.3258    2.1615   -1.3432 LP  0  0  0  0  0  0  0  0  0  0  0  0  # atno 6001 bound_to 3171
   13.0314    9.8129   10.3856 LP  0  0  0  0  0  0  0  0  0  0  0  0  # atno 6004 bound_to 5270
   14.4726   10.0109    9.6436 LP  0  0  0  0  0  0  0  0  0  0  0  0  # atno 6005 bound_to 5270
   11.3915   19.2343    7.9085 LP  0  0  0  0  0  0  0  0  0  0  0  0  # atno 6055 bound_to 637 
   10.1747   19.7827    8.8494 LP  0  0  0  0  0  0  0  0  0  0  0  0  # atno 6056 bound_to 637 
    0.7549   10.8060   10.8995 LP  0  0  0  0  0  0  0  0  0  0  0  0  # atno 6063 bound_to 1878
    1.3228   12.3371   10.9102 LP  0  0  0  0  0  0  0  0  0  0  0  0  # atno 6064 bound_to 1878
   -6.6976   17.1695   -1.0507 LP  0  0  0  0  0  0  0  0  0  0  0  0  # atno 6067 bound_to 957 
   -7.2028   16.0603    0.0361 LP  0  0  0  0  0  0  0  0  0  0  0  0  # atno 6068 bound_to 957 

>  <STRIFE_LigEff_Score>  (110) 
3.171735294117647

$$$$
unknown|pharmsElabsTestPreDocking|sdf|116|dock7
     RDKit          3D

 16 16  0  0  0  0  0  0  0  0999 V2000
   13.4097    6.8135    3.3261 C   0  0  0  0  0  0  0  0  0  0  0  0
   13.3324    7.9264    2.2624 C   0  0  0  0  0  0  0  0  0  0  0  0
   13.8059    7.3971    0.9769 N   0  0  0  0  0  0  0  0  0  0  0  0
   11.8793    8.4807    2.1710 C   0  0  0  0  0  0  0  0  0  0  0  0
   10.8818    7.3168    1.9973 C   0  0  0  0  0  0  0  0  0  0  0  0
    9.4800    7.8572    1.7492 C   0  0  0  0  0  0  0  0  0  0  0  0
    9.0269    8.7198    2.9321 C   0  0  0  0  0  0  0  0  0  0  0  0
    7.6360    9.2364    2.6963 C   0  0  0  0  0  0  0  0  0  0  0  0
    7.4186   10.0982    1.7984 O   0  0  0  0  0  0  0  0  0  0  0  0
    6.5585    8.7349    3.4956 N   0  0  0  0  0  0  0  0  0  0  0  0
    5.1882    9.2057    3.3474 C   0  0  0  0  0  0  0  0  0  0  0  0
    4.5984    9.4757    4.7056 C   0  0  0  0  0  0  0  0  0  0  0  0
    5.2870   10.0997    5.5986 N   0  0  0  0  0  0  0  0  0  0  0  0
    3.3004    8.9547    5.0389 N   0  0  0  0  0  0  0  0  0  0  0  0
   10.0133    9.8703    3.1974 C   0  0  0  0  0  0  0  0  0  0  0  0
   11.4455    9.3402    3.3846 C   0  0  0  0  0  0  0  0  0  0  0  0
  1  2  1  0
  2  3  1  0
  2  4  1  0
  4  5  1  0
  5  6  1  0
  6  7  1  0
  7  8  1  0
  8  9  2  0
  8 10  1  0
 10 11  1  0
 11 12  1  0
 12 13  2  0
 12 14  1  0
  7 15  1  0
 15 16  1  0
 16  4  1  0
M  CHG  3   3   1  13   1  14   1
M  END
>  <EmbedRMS>  (111) 
0.03078882717110932

>  <Gold.Version>  (111) 
2020.3.0

>  <Gold.Id.Protein>  (111) 
unknown|1q8t_protein|pdb

>  <Gold.PLP.Fitness>  (111) 
41.0880

>  <Gold.PLP.PLP>  (111) 
-30.8516

>  <Gold.PLP.part.hbond>  (111) 
-3.0000

>  <Gold.PLP.part.metal>  (111) 
0.0000

>  <Gold.PLP.part.buried>  (111) 
-3.1286

>  <Gold.PLP.part.nonpolar>  (111) 
-25.8335

>  <Gold.PLP.part.repulsive>  (111) 
1.6415

>  <Gold.PLP.ligand.clash>  (111) 
0.0000

>  <Gold.PLP.ligand.torsion>  (111) 
0.4882

>  <Gold.PLP.Chemscore.Hbond>  (111) 
3.7137

>  <Gold.PLP.Chemscore.CHOScore>  (111) 
0.0000

>  <Gold.PLP.Chemscore.Metal>  (111) 
0.0000

>  <Gold.Chemscore.Hbonds>  (111) 
donor molecule, donor type, donor heavy atom, donor atom, acceptor molecule, acceptor atom, score
      L1  H     3    21       P1  2902  2.00
      L1  H     3    22       P1  2691  1.00
      L1  H    14    36       P1  1891  0.71

>  <Gold.PLP.Chemscore.Internal.Correction>  (111) 
0.0716

>  <Gold.PLP.Constraint>  (111) 
-0.0000

>  <Gold.Protein.RotatedTorsions>  (111) 
[  681  677  676  673 ] final -160.36 input -179.99 | X-H torsion
[  702  698  697  694 ] final -177.93 input  179.99 | X-H torsion
[ 2577 2569 2568 2566 ] final   14.29 input   -0.13 | X-H torsion
[ 2891 2887 2886 2883 ] final -104.28 input  179.98 | X-H torsion
[ 3175 3171 3170 3167 ] final   58.06 input -179.99 | X-H torsion
[ 5278 5270 5269 5267 ] final   47.54 input    0.55 | X-H torsion
[  641  637  636  633 ] final   71.23 input  179.99 | X-H torsion
[ 1886 1878 1877 1875 ] final -117.15 input    1.60 | X-H torsion
[  965  957  956  954 ] final   18.09 input    0.45 | X-H torsion

>  <Gold.Protein.ActiveResidues>  (111) 
 LYS47   THR48   LEU49   GLY50   THR51   GLY52   SER53   PHE54   GLY55   ARG56  
 VAL57   MET58   LEU59   TYR69   ALA70   MET71   LYS72   ILE73   LEU74   GLU91  
 LEU95   VAL104  LYS105  MET118  VAL119  MET120  GLU121  TYR122  VAL123  PRO124 
 GLY125  GLY126  GLU127  MET128  PHE129  TYR164  ASP166  LEU167  LYS168  PRO169 
 GLU170  ASN171  LEU172  LEU173  ILE174  GLN181  VAL182  THR183  ASP184  PHE185 
 GLY186  PHE187  GLY200  THR201  ASN326  PHE327  TYR330  ARG18   ARG19   ASN20  
 ALA21   ILE22   HIS23  

>  <Gold.Protein.RotatedAtoms>  (111) 
   10.0471   19.7255    8.7598 H   0  0  0  0  0  0  0  0  0  0  0  0  # atno 641  bound_to 637 
   16.7618   13.9585    7.2126 H   0  0  0  0  0  0  0  0  0  0  0  0  # atno 681  bound_to 677 
   20.9871   11.5794   -1.6026 H   0  0  0  0  0  0  0  0  0  0  0  0  # atno 702  bound_to 698 
   -6.8344   15.3750   -0.7484 H   0  0  0  0  0  0  0  0  0  0  0  0  # atno 965  bound_to 957 
    0.9231   10.6972   10.7878 H   0  0  0  0  0  0  0  0  0  0  0  0  # atno 1886 bound_to 1878
    9.5781    3.1600   -3.3077 H   0  0  0  0  0  0  0  0  0  0  0  0  # atno 2577 bound_to 2569
    7.1891    5.6191    1.4383 H   0  0  0  0  0  0  0  0  0  0  0  0  # atno 2891 bound_to 2887
   18.4507    2.2308   -1.3533 H   0  0  0  0  0  0  0  0  0  0  0  0  # atno 3175 bound_to 3171
   12.7761   10.1340    9.1425 H   0  0  0  0  0  0  0  0  0  0  0  0  # atno 5278 bound_to 5270
   16.9504   12.8821    6.0542 LP  0  0  0  0  0  0  0  0  0  0  0  0  # atno 5914 bound_to 677 
   15.5815   12.9237    6.9435 LP  0  0  0  0  0  0  0  0  0  0  0  0  # atno 5915 bound_to 677 
   19.4158   11.8408   -1.5858 LP  0  0  0  0  0  0  0  0  0  0  0  0  # atno 5920 bound_to 698 
   20.2503   11.6660   -0.1930 LP  0  0  0  0  0  0  0  0  0  0  0  0  # atno 5921 bound_to 698 
   11.0970    2.8393   -2.9534 LP  0  0  0  0  0  0  0  0  0  0  0  0  # atno 5950 bound_to 2569
    9.8885    1.8977   -2.3881 LP  0  0  0  0  0  0  0  0  0  0  0  0  # atno 5951 bound_to 2569
    7.8688    6.9929    1.0056 LP  0  0  0  0  0  0  0  0  0  0  0  0  # atno 5982 bound_to 2887
    8.2399    5.5982    0.2417 LP  0  0  0  0  0  0  0  0  0  0  0  0  # atno 5983 bound_to 2887
   19.3694    3.0639   -0.3545 LP  0  0  0  0  0  0  0  0  0  0  0  0  # atno 6000 bound_to 3171
   18.1012    2.1972    0.1998 LP  0  0  0  0  0  0  0  0  0  0  0  0  # atno 6001 bound_to 3171
   13.4862    9.7834   10.5244 LP  0  0  0  0  0  0  0  0  0  0  0  0  # atno 6004 bound_to 5270
   14.3680   10.1212    9.1922 LP  0  0  0  0  0  0  0  0  0  0  0  0  # atno 6005 bound_to 5270
    9.9724   19.0203    7.3342 LP  0  0  0  0  0  0  0  0  0  0  0  0  # atno 6055 bound_to 637 
   11.4107   19.3068    8.0525 LP  0  0  0  0  0  0  0  0  0  0  0  0  # atno 6056 bound_to 637 
    1.1190   12.2646   10.9877 LP  0  0  0  0  0  0  0  0  0  0  0  0  # atno 6063 bound_to 1878
    2.2945   11.3531   10.3140 LP  0  0  0  0  0  0  0  0  0  0  0  0  # atno 6064 bound_to 1878
   -6.4678   16.6914   -1.5657 LP  0  0  0  0  0  0  0  0  0  0  0  0  # atno 6067 bound_to 957 
   -7.1423   16.7877   -0.0816 LP  0  0  0  0  0  0  0  0  0  0  0  0  # atno 6068 bound_to 957 

>  <STRIFE_LigEff_Score>  (111) 
2.568

$$$$
unknown|pharmsElabsTestPreDocking|sdf|117|dock1
     RDKit          3D

 18 19  0  0  0  0  0  0  0  0999 V2000
   14.4496    9.4969    1.1019 C   0  0  0  0  0  0  0  0  0  0  0  0
   13.6940    8.2488    1.5264 C   0  0  0  0  0  0  0  0  0  0  0  0
   14.0462    7.0399    0.7899 N   0  0  0  0  0  0  0  0  0  0  0  0
   12.1991    8.4310    1.9305 C   0  0  0  0  0  0  0  0  0  0  0  0
   11.5507    7.3330    2.7881 C   0  0  0  0  0  0  0  0  0  0  0  0
   10.0146    7.4553    2.7772 C   0  0  0  0  0  0  0  0  0  0  0  0
    9.4987    8.8709    2.5067 C   0  0  0  0  0  0  0  0  0  0  0  0
    8.0157    9.0281    2.6375 C   0  0  0  0  0  0  0  0  0  0  0  0
    7.4462    9.2722    1.5516 O   0  0  0  0  0  0  0  0  0  0  0  0
    7.2474    8.9186    3.8583 N   0  0  0  0  0  0  0  0  0  0  0  0
    5.8207    9.2039    3.9644 C   0  0  0  0  0  0  0  0  0  0  0  0
    5.3239    9.8078    5.1355 C   0  0  0  0  0  0  0  0  0  0  0  0
    3.9602   10.1075    5.2659 C   0  0  0  0  0  0  0  0  0  0  0  0
    3.0689    9.8018    4.2367 C   0  0  0  0  0  0  0  0  0  0  0  0
    3.5359    9.2076    3.0717 C   0  0  0  0  0  0  0  0  0  0  0  0
    4.8900    8.9238    2.9259 C   0  0  0  0  0  0  0  0  0  0  0  0
   10.3782   10.0821    2.7537 C   0  0  0  0  0  0  0  0  0  0  0  0
   11.8833    9.8165    2.5345 C   0  0  0  0  0  0  0  0  0  0  0  0
  1  2  1  0
  2  3  1  0
  2  4  1  0
  4  5  1  0
  5  6  1  0
  6  7  1  0
  7  8  1  0
  8  9  2  0
  8 10  1  0
 10 11  1  0
 11 12  2  0
 12 13  1  0
 13 14  2  0
 14 15  1  0
 15 16  2  0
  7 17  1  0
 17 18  1  0
 18  4  1  0
 16 11  1  0
M  CHG  1   3   1
M  END
>  <EmbedRMS>  (112) 
0.24964892458419108

>  <Gold.Version>  (112) 
2020.3.0

>  <Gold.Id.Protein>  (112) 
unknown|1q8t_protein|pdb

>  <Gold.PLP.Fitness>  (112) 
55.6390

>  <Gold.PLP.PLP>  (112) 
-47.7377

>  <Gold.PLP.part.hbond>  (112) 
-2.4186

>  <Gold.PLP.part.metal>  (112) 
0.0000

>  <Gold.PLP.part.buried>  (112) 
-1.3770

>  <Gold.PLP.part.nonpolar>  (112) 
-44.4183

>  <Gold.PLP.part.repulsive>  (112) 
0.0748

>  <Gold.PLP.ligand.clash>  (112) 
0.0000

>  <Gold.PLP.ligand.torsion>  (112) 
0.9622

>  <Gold.PLP.Chemscore.Hbond>  (112) 
2.9600

>  <Gold.PLP.Chemscore.CHOScore>  (112) 
0.0000

>  <Gold.PLP.Chemscore.Metal>  (112) 
0.0000

>  <Gold.Chemscore.Hbonds>  (112) 
donor molecule, donor type, donor heavy atom, donor atom, acceptor molecule, acceptor atom, score
      L1  H     3    23       P1  2691  0.96
      L1  H     3    25       P1  2902  2.00

>  <Gold.PLP.Chemscore.Internal.Correction>  (112) 
0.9457

>  <Gold.PLP.Constraint>  (112) 
-0.0000

>  <Gold.Protein.RotatedTorsions>  (112) 
[  681  677  676  673 ] final    8.55 input -179.99 | X-H torsion
[  702  698  697  694 ] final  -81.59 input  179.99 | X-H torsion
[ 2577 2569 2568 2566 ] final   68.01 input   -0.13 | X-H torsion
[ 2891 2887 2886 2883 ] final  -65.42 input  179.98 | X-H torsion
[ 3175 3171 3170 3167 ] final  -70.71 input -179.99 | X-H torsion
[ 5278 5270 5269 5267 ] final -163.86 input    0.55 | X-H torsion
[  641  637  636  633 ] final  -43.49 input  179.99 | X-H torsion
[ 1886 1878 1877 1875 ] final  129.19 input    1.60 | X-H torsion
[  965  957  956  954 ] final  -79.86 input    0.45 | X-H torsion

>  <Gold.Protein.ActiveResidues>  (112) 
 LYS47   THR48   LEU49   GLY50   THR51   GLY52   SER53   PHE54   GLY55   ARG56  
 VAL57   MET58   LEU59   TYR69   ALA70   MET71   LYS72   ILE73   LEU74   GLU91  
 LEU95   VAL104  LYS105  MET118  VAL119  MET120  GLU121  TYR122  VAL123  PRO124 
 GLY125  GLY126  GLU127  MET128  PHE129  TYR164  ASP166  LEU167  LYS168  PRO169 
 GLU170  ASN171  LEU172  LEU173  ILE174  GLN181  VAL182  THR183  ASP184  PHE185 
 GLY186  PHE187  GLY200  THR201  ASN326  PHE327  TYR330  ARG18   ARG19   ASN20  
 ALA21   ILE22   HIS23  

>  <Gold.Protein.RotatedAtoms>  (112) 
    9.9288   19.0471    7.4183 H   0  0  0  0  0  0  0  0  0  0  0  0  # atno 641  bound_to 637 
   15.9650   12.6065    6.3658 H   0  0  0  0  0  0  0  0  0  0  0  0  # atno 681  bound_to 677 
   20.6046   11.6226   -0.3237 H   0  0  0  0  0  0  0  0  0  0  0  0  # atno 702  bound_to 698 
   -6.4352   16.3400   -1.6053 H   0  0  0  0  0  0  0  0  0  0  0  0  # atno 965  bound_to 957 
    1.0459   12.1781   10.9863 H   0  0  0  0  0  0  0  0  0  0  0  0  # atno 1886 bound_to 1878
    9.2888    2.5295   -2.8911 H   0  0  0  0  0  0  0  0  0  0  0  0  # atno 2577 bound_to 2569
    7.4405    5.2375    1.0557 H   0  0  0  0  0  0  0  0  0  0  0  0  # atno 2891 bound_to 2887
   19.3073    3.0125   -0.2289 H   0  0  0  0  0  0  0  0  0  0  0  0  # atno 3175 bound_to 3171
   14.4260   10.0295    9.6359 H   0  0  0  0  0  0  0  0  0  0  0  0  # atno 5278 bound_to 5270
   16.0714   13.7549    7.4641 LP  0  0  0  0  0  0  0  0  0  0  0  0  # atno 5914 bound_to 677 
   17.2992   13.4739    6.4248 LP  0  0  0  0  0  0  0  0  0  0  0  0  # atno 5915 bound_to 677 
   20.7633   11.6082   -1.9086 LP  0  0  0  0  0  0  0  0  0  0  0  0  # atno 5920 bound_to 698 
   19.3051   11.8533   -1.2156 LP  0  0  0  0  0  0  0  0  0  0  0  0  # atno 5921 bound_to 698 
   10.5617    3.3647   -3.3574 LP  0  0  0  0  0  0  0  0  0  0  0  0  # atno 5950 bound_to 2569
   10.7284    2.0361   -2.4227 LP  0  0  0  0  0  0  0  0  0  0  0  0  # atno 5951 bound_to 2569
    7.4580    6.7850    1.4316 LP  0  0  0  0  0  0  0  0  0  0  0  0  # atno 5982 bound_to 2887
    8.3861    6.2077    0.2184 LP  0  0  0  0  0  0  0  0  0  0  0  0  # atno 5983 bound_to 2887
   18.0249    2.1275    0.0996 LP  0  0  0  0  0  0  0  0  0  0  0  0  # atno 6000 bound_to 3171
   18.5442    2.3109   -1.4377 LP  0  0  0  0  0  0  0  0  0  0  0  0  # atno 6001 bound_to 3171
   13.0775   10.2029    8.8062 LP  0  0  0  0  0  0  0  0  0  0  0  0  # atno 6004 bound_to 5270
   13.0408    9.8116   10.3912 LP  0  0  0  0  0  0  0  0  0  0  0  0  # atno 6005 bound_to 5270
   11.4039   19.2678    7.9754 LP  0  0  0  0  0  0  0  0  0  0  0  0  # atno 6055 bound_to 637 
   10.1038   19.7738    8.8241 LP  0  0  0  0  0  0  0  0  0  0  0  0  # atno 6056 bound_to 637 
    2.3030   11.4561   10.3278 LP  0  0  0  0  0  0  0  0  0  0  0  0  # atno 6063 bound_to 1878
    0.9812   10.6026   10.7650 LP  0  0  0  0  0  0  0  0  0  0  0  0  # atno 6064 bound_to 1878
   -7.0358   17.0452   -0.3104 LP  0  0  0  0  0  0  0  0  0  0  0  0  # atno 6067 bound_to 957 
   -6.9948   15.4175   -0.4345 LP  0  0  0  0  0  0  0  0  0  0  0  0  # atno 6068 bound_to 957 

>  <STRIFE_LigEff_Score>  (112) 
3.0910555555555557

$$$$
unknown|pharmsElabsTestPreDocking|sdf|118|dock8
     RDKit          3D

 17 18  0  0  0  0  0  0  0  0999 V2000
   14.2040    9.3694    1.2459 C   0  0  0  0  0  0  0  0  0  0  0  0
   13.5756    8.1197    1.8625 C   0  0  0  0  0  0  0  0  0  0  0  0
   13.3961    7.0682    0.8520 N   0  0  0  0  0  0  0  0  0  0  0  0
   12.3271    8.2962    2.7492 C   0  0  0  0  0  0  0  0  0  0  0  0
   11.3432    7.1102    2.9353 C   0  0  0  0  0  0  0  0  0  0  0  0
    9.9010    7.3843    2.5348 C   0  0  0  0  0  0  0  0  0  0  0  0
    9.4212    8.7362    3.0591 C   0  0  0  0  0  0  0  0  0  0  0  0
    7.9546    8.9176    2.7765 C   0  0  0  0  0  0  0  0  0  0  0  0
    7.5428    8.9185    1.5843 O   0  0  0  0  0  0  0  0  0  0  0  0
    7.0480    9.1120    3.8711 N   0  0  0  0  0  0  0  0  0  0  0  0
    5.6290    9.2776    3.7574 C   0  0  0  0  0  0  0  0  0  0  0  0
    4.8367    9.0314    2.6467 C   0  0  0  0  0  0  0  0  0  0  0  0
    3.5665    9.3560    3.0691 C   0  0  0  0  0  0  0  0  0  0  0  0
    3.6219    9.7650    4.3488 N   0  0  0  0  0  0  0  0  0  0  0  0
    4.8715    9.7215    4.7772 N   0  0  0  0  0  0  0  0  0  0  0  0
   10.2285    9.8445    2.3921 C   0  0  0  0  0  0  0  0  0  0  0  0
   11.7209    9.7320    2.6973 C   0  0  0  0  0  0  0  0  0  0  0  0
  1  2  1  0
  2  3  1  0
  2  4  1  0
  4  5  1  0
  5  6  1  0
  6  7  1  0
  7  8  1  0
  8  9  2  0
  8 10  1  0
 10 11  1  0
 11 12  1  0
 12 13  2  0
 13 14  1  0
 14 15  1  0
  7 16  1  0
 16 17  1  0
 17  4  1  0
 15 11  2  0
M  CHG  1   3   1
M  END
>  <EmbedRMS>  (113) 
0.20783527019262546

>  <Gold.Version>  (113) 
2020.3.0

>  <Gold.Id.Protein>  (113) 
unknown|1q8t_protein|pdb

>  <Gold.PLP.Fitness>  (113) 
47.0341

>  <Gold.PLP.PLP>  (113) 
-34.4095

>  <Gold.PLP.part.hbond>  (113) 
-2.8068

>  <Gold.PLP.part.metal>  (113) 
0.0000

>  <Gold.PLP.part.buried>  (113) 
-4.6147

>  <Gold.PLP.part.nonpolar>  (113) 
-27.1038

>  <Gold.PLP.part.repulsive>  (113) 
0.1720

>  <Gold.PLP.ligand.clash>  (113) 
0.0000

>  <Gold.PLP.ligand.torsion>  (113) 
1.1319

>  <Gold.PLP.Chemscore.Hbond>  (113) 
3.8320

>  <Gold.PLP.Chemscore.CHOScore>  (113) 
0.9994

>  <Gold.PLP.Chemscore.Metal>  (113) 
0.0000

>  <Gold.Chemscore.Hbonds>  (113) 
donor molecule, donor type, donor heavy atom, donor atom, acceptor molecule, acceptor atom, score
      L1  H     3    22       P1  2902  2.00
      L1  H     3    23       P1  2691  0.83
      P1  H  2887  2891       L1     9  1.00
      L1  C    13    33       P1  1855  1.00

>  <Gold.PLP.Chemscore.Internal.Correction>  (113) 
0.3942

>  <Gold.PLP.Constraint>  (113) 
-0.0000

>  <Gold.Protein.RotatedTorsions>  (113) 
[  681  677  676  673 ] final    4.22 input -179.99 | X-H torsion
[  702  698  697  694 ] final -159.77 input  179.99 | X-H torsion
[ 2577 2569 2568 2566 ] final  129.66 input   -0.13 | X-H torsion
[ 2891 2887 2886 2883 ] final  151.80 input  179.98 | X-H torsion
[ 3175 3171 3170 3167 ] final   77.67 input -179.99 | X-H torsion
[ 5278 5270 5269 5267 ] final   52.36 input    0.55 | X-H torsion
[  641  637  636  633 ] final -174.08 input  179.99 | X-H torsion
[ 1886 1878 1877 1875 ] final -157.04 input    1.60 | X-H torsion
[  965  957  956  954 ] final   69.51 input    0.45 | X-H torsion

>  <Gold.Protein.ActiveResidues>  (113) 
 LYS47   THR48   LEU49   GLY50   THR51   GLY52   SER53   PHE54   GLY55   ARG56  
 VAL57   MET58   LEU59   TYR69   ALA70   MET71   LYS72   ILE73   LEU74   GLU91  
 LEU95   VAL104  LYS105  MET118  VAL119  MET120  GLU121  TYR122  VAL123  PRO124 
 GLY125  GLY126  GLU127  MET128  PHE129  TYR164  ASP166  LEU167  LYS168  PRO169 
 GLU170  ASN171  LEU172  LEU173  ILE174  GLN181  VAL182  THR183  ASP184  PHE185 
 GLY186  PHE187  GLY200  THR201  ASN326  PHE327  TYR330  ARG18   ARG19   ASN20  
 ALA21   ILE22   HIS23  

>  <Gold.Protein.RotatedAtoms>  (113) 
   11.3613   19.3326    8.1342 H   0  0  0  0  0  0  0  0  0  0  0  0  # atno 641  bound_to 637 
   15.9154   12.6201    6.4100 H   0  0  0  0  0  0  0  0  0  0  0  0  # atno 681  bound_to 677 
   21.0923   11.5558   -1.3410 H   0  0  0  0  0  0  0  0  0  0  0  0  # atno 702  bound_to 698 
   -7.1126   15.7527   -0.1292 H   0  0  0  0  0  0  0  0  0  0  0  0  # atno 965  bound_to 957 
    0.6282   11.1877   11.0015 H   0  0  0  0  0  0  0  0  0  0  0  0  # atno 1886 bound_to 1878
    9.8362    1.9439   -2.4444 H   0  0  0  0  0  0  0  0  0  0  0  0  # atno 2577 bound_to 2569
    7.6848    6.9137    1.1743 H   0  0  0  0  0  0  0  0  0  0  0  0  # atno 2891 bound_to 2887
   18.2285    2.0859   -1.2028 H   0  0  0  0  0  0  0  0  0  0  0  0  # atno 3175 bound_to 3171
   12.8194   10.1492    9.0828 H   0  0  0  0  0  0  0  0  0  0  0  0  # atno 5278 bound_to 5270
   16.1314   13.7933    7.4650 LP  0  0  0  0  0  0  0  0  0  0  0  0  # atno 5914 bound_to 677 
   17.2914   13.4212    6.3775 LP  0  0  0  0  0  0  0  0  0  0  0  0  # atno 5915 bound_to 677 
   19.5955   11.8135   -1.8214 LP  0  0  0  0  0  0  0  0  0  0  0  0  # atno 5920 bound_to 698 
   19.9600   11.7182   -0.2325 LP  0  0  0  0  0  0  0  0  0  0  0  0  # atno 5921 bound_to 698 
    9.6038    3.2393   -3.3405 LP  0  0  0  0  0  0  0  0  0  0  0  0  # atno 5950 bound_to 2569
   11.1100    2.7782   -2.9100 LP  0  0  0  0  0  0  0  0  0  0  0  0  # atno 5951 bound_to 2569
    8.3325    5.8400    0.1923 LP  0  0  0  0  0  0  0  0  0  0  0  0  # atno 5982 bound_to 2887
    7.2545    5.3885    1.3328 LP  0  0  0  0  0  0  0  0  0  0  0  0  # atno 5983 bound_to 2887
   19.3904    3.0376   -0.6738 LP  0  0  0  0  0  0  0  0  0  0  0  0  # atno 6000 bound_to 3171
   18.3140    2.3759    0.3607 LP  0  0  0  0  0  0  0  0  0  0  0  0  # atno 6001 bound_to 3171
   13.4072    9.7843   10.5174 LP  0  0  0  0  0  0  0  0  0  0  0  0  # atno 6004 bound_to 5270
   14.4014   10.1043    9.2621 LP  0  0  0  0  0  0  0  0  0  0  0  0  # atno 6005 bound_to 5270
    9.9506   19.7432    8.7475 LP  0  0  0  0  0  0  0  0  0  0  0  0  # atno 6055 bound_to 637 
   10.0485   18.9976    7.2980 LP  0  0  0  0  0  0  0  0  0  0  0  0  # atno 6056 bound_to 637 
    1.7086   12.3273   10.7385 LP  0  0  0  0  0  0  0  0  0  0  0  0  # atno 6063 bound_to 1878
    2.0154   10.7741   10.3383 LP  0  0  0  0  0  0  0  0  0  0  0  0  # atno 6064 bound_to 1878
   -6.4689   15.8735   -1.5805 LP  0  0  0  0  0  0  0  0  0  0  0  0  # atno 6067 bound_to 957 
   -6.8482   17.2078   -0.7190 LP  0  0  0  0  0  0  0  0  0  0  0  0  # atno 6068 bound_to 957 

>  <STRIFE_LigEff_Score>  (113) 
2.7667117647058825

$$$$
unknown|pharmsElabsTestPreDocking|sdf|119|dock9
     RDKit          3D

 18 19  0  0  0  0  0  0  0  0999 V2000
   14.6748    9.4979    0.8436 C   0  0  0  0  0  0  0  0  0  0  0  0
   14.1974    8.2731    1.6236 C   0  0  0  0  0  0  0  0  0  0  0  0
   13.9597    7.1363    0.7234 N   0  0  0  0  0  0  0  0  0  0  0  0
   13.0555    8.4596    2.6419 C   0  0  0  0  0  0  0  0  0  0  0  0
   12.1475    7.2548    3.0070 C   0  0  0  0  0  0  0  0  0  0  0  0
   10.6589    7.4579    2.7666 C   0  0  0  0  0  0  0  0  0  0  0  0
   10.1910    8.8214    3.2711 C   0  0  0  0  0  0  0  0  0  0  0  0
    8.6959    8.9379    3.1547 C   0  0  0  0  0  0  0  0  0  0  0  0
    8.1369    8.7271    2.0440 O   0  0  0  0  0  0  0  0  0  0  0  0
    7.9297    9.3131    4.3077 N   0  0  0  0  0  0  0  0  0  0  0  0
    6.5035    9.4418    4.3510 C   0  0  0  0  0  0  0  0  0  0  0  0
    5.7406   10.0623    5.3314 C   0  0  0  0  0  0  0  0  0  0  0  0
    4.4437    9.8992    4.8986 C   0  0  0  0  0  0  0  0  0  0  0  0
    4.4631    9.2319    3.7306 N   0  0  0  0  0  0  0  0  0  0  0  0
    3.2951    8.8353    2.9597 C   0  0  0  0  0  0  0  0  0  0  0  0
    5.7063    8.9383    3.3909 N   0  0  0  0  0  0  0  0  0  0  0  0
   10.8704    9.9152    2.4545 C   0  0  0  0  0  0  0  0  0  0  0  0
   12.3913    9.8695    2.5858 C   0  0  0  0  0  0  0  0  0  0  0  0
  1  2  1  0
  2  3  1  0
  2  4  1  0
  4  5  1  0
  5  6  1  0
  6  7  1  0
  7  8  1  0
  8  9  2  0
  8 10  1  0
 10 11  1  0
 11 12  1  0
 12 13  2  0
 13 14  1  0
 14 15  1  0
 14 16  1  0
  7 17  1  0
 17 18  1  0
 18  4  1  0
 16 11  2  0
M  CHG  1   3   1
M  END
>  <EmbedRMS>  (114) 
0.20203882927987918

>  <Gold.Version>  (114) 
2020.3.0

>  <Gold.Id.Protein>  (114) 
unknown|1q8t_protein|pdb

>  <Gold.PLP.Fitness>  (114) 
53.3529

>  <Gold.PLP.PLP>  (114) 
-43.8483

>  <Gold.PLP.part.hbond>  (114) 
-3.0000

>  <Gold.PLP.part.metal>  (114) 
0.0000

>  <Gold.PLP.part.buried>  (114) 
-5.5369

>  <Gold.PLP.part.nonpolar>  (114) 
-36.0387

>  <Gold.PLP.part.repulsive>  (114) 
0.0660

>  <Gold.PLP.ligand.clash>  (114) 
0.0000

>  <Gold.PLP.ligand.torsion>  (114) 
1.2610

>  <Gold.PLP.Chemscore.Hbond>  (114) 
3.8800

>  <Gold.PLP.Chemscore.CHOScore>  (114) 
0.0000

>  <Gold.PLP.Chemscore.Metal>  (114) 
0.0000

>  <Gold.Chemscore.Hbonds>  (114) 
donor molecule, donor type, donor heavy atom, donor atom, acceptor molecule, acceptor atom, score
      L1  H     3    24       P1  2902  2.00
      L1  H     3    25       P1  2691  0.88
      P1  H  2887  2891       L1     9  1.00

>  <Gold.PLP.Chemscore.Internal.Correction>  (114) 
0.3867

>  <Gold.PLP.Constraint>  (114) 
-0.0000

>  <Gold.Protein.RotatedTorsions>  (114) 
[  681  677  676  673 ] final   36.61 input -179.99 | X-H torsion
[  702  698  697  694 ] final -169.41 input  179.99 | X-H torsion
[ 2577 2569 2568 2566 ] final -130.56 input   -0.13 | X-H torsion
[ 2891 2887 2886 2883 ] final  152.76 input  179.98 | X-H torsion
[ 3175 3171 3170 3167 ] final -125.30 input -179.99 | X-H torsion
[ 5278 5270 5269 5267 ] final -112.76 input    0.55 | X-H torsion
[  641  637  636  633 ] final -153.04 input  179.99 | X-H torsion
[ 1886 1878 1877 1875 ] final -137.28 input    1.60 | X-H torsion
[  965  957  956  954 ] final  179.06 input    0.45 | X-H torsion

>  <Gold.Protein.ActiveResidues>  (114) 
 LYS47   THR48   LEU49   GLY50   THR51   GLY52   SER53   PHE54   GLY55   ARG56  
 VAL57   MET58   LEU59   TYR69   ALA70   MET71   LYS72   ILE73   LEU74   GLU91  
 LEU95   VAL104  LYS105  MET118  VAL119  MET120  GLU121  TYR122  VAL123  PRO124 
 GLY125  GLY126  GLU127  MET128  PHE129  TYR164  ASP166  LEU167  LYS168  PRO169 
 GLU170  ASN171  LEU172  LEU173  ILE174  GLN181  VAL182  THR183  ASP184  PHE185 
 GLY186  PHE187  GLY200  THR201  ASN326  PHE327  TYR330  ARG18   ARG19   ASN20  
 ALA21   ILE22   HIS23  

>  <Gold.Protein.RotatedAtoms>  (114) 
   11.3211   19.1869    7.8444 H   0  0  0  0  0  0  0  0  0  0  0  0  # atno 641  bound_to 637 
   16.3368   12.6125    6.1414 H   0  0  0  0  0  0  0  0  0  0  0  0  # atno 681  bound_to 677 
   21.0466   11.5666   -1.4842 H   0  0  0  0  0  0  0  0  0  0  0  0  # atno 702  bound_to 698 
   -6.8986   17.1309   -0.5705 H   0  0  0  0  0  0  0  0  0  0  0  0  # atno 965  bound_to 957 
    0.7323   10.9139   10.9089 H   0  0  0  0  0  0  0  0  0  0  0  0  # atno 1886 bound_to 1878
   11.0499    2.5035   -2.7440 H   0  0  0  0  0  0  0  0  0  0  0  0  # atno 2577 bound_to 2569
    7.6749    6.9094    1.1848 H   0  0  0  0  0  0  0  0  0  0  0  0  # atno 2891 bound_to 2887
   18.7961    2.7081    0.3375 H   0  0  0  0  0  0  0  0  0  0  0  0  # atno 3175 bound_to 3171
   14.0770    9.8609   10.3047 H   0  0  0  0  0  0  0  0  0  0  0  0  # atno 5278 bound_to 5270
   15.7474   13.4491    7.3616 LP  0  0  0  0  0  0  0  0  0  0  0  0  # atno 5914 bound_to 677 
   17.2319   13.7735    6.7635 LP  0  0  0  0  0  0  0  0  0  0  0  0  # atno 5915 bound_to 677 
   19.4910   11.8298   -1.7035 LP  0  0  0  0  0  0  0  0  0  0  0  0  # atno 5920 bound_to 698 
   20.1125   11.6906   -0.1999 LP  0  0  0  0  0  0  0  0  0  0  0  0  # atno 5921 bound_to 698 
    9.5388    2.0537   -2.5220 LP  0  0  0  0  0  0  0  0  0  0  0  0  # atno 5950 bound_to 2569
    9.8970    3.3745   -3.4129 LP  0  0  0  0  0  0  0  0  0  0  0  0  # atno 5951 bound_to 2569
    8.3367    5.8553    0.1911 LP  0  0  0  0  0  0  0  0  0  0  0  0  # atno 5982 bound_to 2887
    7.2607    5.3778    1.3230 LP  0  0  0  0  0  0  0  0  0  0  0  0  # atno 5983 bound_to 2887
   17.9102    1.9333   -0.7350 LP  0  0  0  0  0  0  0  0  0  0  0  0  # atno 6000 bound_to 3171
   19.1968    2.8254   -1.1991 LP  0  0  0  0  0  0  0  0  0  0  0  0  # atno 6001 bound_to 3171
   13.8895   10.2216    8.7647 LP  0  0  0  0  0  0  0  0  0  0  0  0  # atno 6004 bound_to 5270
   12.5959    9.9703    9.7291 LP  0  0  0  0  0  0  0  0  0  0  0  0  # atno 6005 bound_to 5270
   10.2672   19.7902    8.8741 LP  0  0  0  0  0  0  0  0  0  0  0  0  # atno 6055 bound_to 637 
    9.7742   19.1041    7.4766 LP  0  0  0  0  0  0  0  0  0  0  0  0  # atno 6056 bound_to 637 
    1.4151   12.3519   10.8721 LP  0  0  0  0  0  0  0  0  0  0  0  0  # atno 6063 bound_to 1878
    2.1993   11.0377   10.3022 LP  0  0  0  0  0  0  0  0  0  0  0  0  # atno 6064 bound_to 1878
   -7.0987   15.5948   -0.2025 LP  0  0  0  0  0  0  0  0  0  0  0  0  # atno 6067 bound_to 957 
   -6.4438   16.0350   -1.6322 LP  0  0  0  0  0  0  0  0  0  0  0  0  # atno 6068 bound_to 957 

>  <STRIFE_LigEff_Score>  (114) 
2.96405

$$$$
unknown|pharmsElabsTestPreDocking|sdf|120|dock4
     RDKit          3D

 16 16  0  0  0  0  0  0  0  0999 V2000
   14.4800    7.0571    3.1976 C   0  0  0  0  0  0  0  0  0  0  0  0
   14.1211    7.9188    1.9734 C   0  0  0  0  0  0  0  0  0  0  0  0
   14.4050    7.1589    0.7481 N   0  0  0  0  0  0  0  0  0  0  0  0
   12.6312    8.3914    2.0538 C   0  0  0  0  0  0  0  0  0  0  0  0
   11.7073    7.1693    1.9010 C   0  0  0  0  0  0  0  0  0  0  0  0
   10.2252    7.5240    1.8579 C   0  0  0  0  0  0  0  0  0  0  0  0
    9.8700    8.8114    2.5872 C   0  0  0  0  0  0  0  0  0  0  0  0
    8.3920    9.0205    2.7556 C   0  0  0  0  0  0  0  0  0  0  0  0
    7.7273    8.8516    1.7070 O   0  0  0  0  0  0  0  0  0  0  0  0
    7.7202    9.3706    3.9855 N   0  0  0  0  0  0  0  0  0  0  0  0
    6.3131    9.7199    4.0545 C   0  0  0  0  0  0  0  0  0  0  0  0
    5.4005    9.7182    2.6965 S   0  0  0  0  0  0  0  0  0  0  0  0
    5.4847   10.1554    5.5959 S   0  0  0  0  0  0  0  0  0  0  0  0
    3.5538   10.0770    4.7014 S   0  0  0  0  0  0  0  0  0  0  0  0
   10.8016    9.4148    3.6206 C   0  0  0  0  0  0  0  0  0  0  0  0
   12.2984    9.1122    3.3853 C   0  0  0  0  0  0  0  0  0  0  0  0
  1  2  1  0
  2  3  1  0
  2  4  1  0
  4  5  1  0
  5  6  1  0
  6  7  1  0
  7  8  1  0
  8  9  2  0
  8 10  1  0
 10 11  1  0
 11 12  2  0
 11 13  1  0
 13 14  1  0
  7 15  1  0
 15 16  1  0
 16  4  1  0
M  CHG  1   3   1
M  END
>  <EmbedRMS>  (115) 
0.18600888397479576

>  <Gold.Version>  (115) 
2020.3.0

>  <Gold.Id.Protein>  (115) 
unknown|1q8t_protein|pdb

>  <Gold.PLP.Fitness>  (115) 
49.1668

>  <Gold.PLP.PLP>  (115) 
-37.5603

>  <Gold.PLP.part.hbond>  (115) 
-2.9617

>  <Gold.PLP.part.metal>  (115) 
0.0000

>  <Gold.PLP.part.buried>  (115) 
-1.3895

>  <Gold.PLP.part.nonpolar>  (115) 
-33.6400

>  <Gold.PLP.part.repulsive>  (115) 
0.0722

>  <Gold.PLP.ligand.clash>  (115) 
0.0235

>  <Gold.PLP.ligand.torsion>  (115) 
0.5327

>  <Gold.PLP.Chemscore.Hbond>  (115) 
4.0000

>  <Gold.PLP.Chemscore.CHOScore>  (115) 
0.0000

>  <Gold.PLP.Chemscore.Metal>  (115) 
0.0000

>  <Gold.Chemscore.Hbonds>  (115) 
donor molecule, donor type, donor heavy atom, donor atom, acceptor molecule, acceptor atom, score
      L1  H     3    21       P1  2691  1.00
      L1  H     3    22       P1  2902  2.00
      P1  H  2887  2891       L1     9  1.00

>  <Gold.PLP.Chemscore.Internal.Correction>  (115) 
0.6955

>  <Gold.PLP.Constraint>  (115) 
-0.0000

>  <Gold.Protein.RotatedTorsions>  (115) 
[  681  677  676  673 ] final  175.56 input -179.99 | X-H torsion
[  702  698  697  694 ] final -153.37 input  179.99 | X-H torsion
[ 2577 2569 2568 2566 ] final  163.23 input   -0.13 | X-H torsion
[ 2891 2887 2886 2883 ] final  146.34 input  179.98 | X-H torsion
[ 3175 3171 3170 3167 ] final   56.51 input -179.99 | X-H torsion
[ 5278 5270 5269 5267 ] final   19.71 input    0.55 | X-H torsion
[  641  637  636  633 ] final -139.37 input  179.99 | X-H torsion
[ 1886 1878 1877 1875 ] final -129.57 input    1.60 | X-H torsion
[  965  957  956  954 ] final   94.94 input    0.45 | X-H torsion

>  <Gold.Protein.ActiveResidues>  (115) 
 LYS47   THR48   LEU49   GLY50   THR51   GLY52   SER53   PHE54   GLY55   ARG56  
 VAL57   MET58   LEU59   TYR69   ALA70   MET71   LYS72   ILE73   LEU74   GLU91  
 LEU95   VAL104  LYS105  MET118  VAL119  MET120  GLU121  TYR122  VAL123  PRO124 
 GLY125  GLY126  GLU127  MET128  PHE129  TYR164  ASP166  LEU167  LYS168  PRO169 
 GLU170  ASN171  LEU172  LEU173  ILE174  GLN181  VAL182  THR183  ASP184  PHE185 
 GLY186  PHE187  GLY200  THR201  ASN326  PHE327  TYR330  ARG18   ARG19   ASN20  
 ALA21   ILE22   HIS23  

>  <Gold.Protein.RotatedAtoms>  (115) 
   11.2330   19.1025    7.6695 H   0  0  0  0  0  0  0  0  0  0  0  0  # atno 641  bound_to 637 
   17.0395   13.8896    6.9722 H   0  0  0  0  0  0  0  0  0  0  0  0  # atno 681  bound_to 677 
   21.1092   11.5509   -1.2426 H   0  0  0  0  0  0  0  0  0  0  0  0  # atno 702  bound_to 698 
   -7.1722   16.1170    0.0093 H   0  0  0  0  0  0  0  0  0  0  0  0  # atno 965  bound_to 957 
    0.7964   10.8218   10.8649 H   0  0  0  0  0  0  0  0  0  0  0  0  # atno 1886 bound_to 1878
   10.3500    1.9194   -2.3897 H   0  0  0  0  0  0  0  0  0  0  0  0  # atno 2577 bound_to 2569
    7.7414    6.9334    1.1135 H   0  0  0  0  0  0  0  0  0  0  0  0  # atno 2891 bound_to 2887
   18.4695    2.2437   -1.3612 H   0  0  0  0  0  0  0  0  0  0  0  0  # atno 3175 bound_to 3171
   12.6374   10.0349    9.5384 H   0  0  0  0  0  0  0  0  0  0  0  0  # atno 5278 bound_to 5270
   16.6222   12.6656    6.0428 LP  0  0  0  0  0  0  0  0  0  0  0  0  # atno 5914 bound_to 677 
   15.6174   13.2128    7.2079 LP  0  0  0  0  0  0  0  0  0  0  0  0  # atno 5915 bound_to 677 
   19.6750   11.8007   -1.8892 LP  0  0  0  0  0  0  0  0  0  0  0  0  # atno 5920 bound_to 698 
   19.8627   11.7362   -0.2683 LP  0  0  0  0  0  0  0  0  0  0  0  0  # atno 5921 bound_to 698 
    9.2866    2.8651   -3.1040 LP  0  0  0  0  0  0  0  0  0  0  0  0  # atno 5950 bound_to 2569
   10.8862    3.1782   -3.2041 LP  0  0  0  0  0  0  0  0  0  0  0  0  # atno 5951 bound_to 2569
    8.3057    5.7549    0.2029 LP  0  0  0  0  0  0  0  0  0  0  0  0  # atno 5982 bound_to 2887
    7.2217    5.4529    1.3862 LP  0  0  0  0  0  0  0  0  0  0  0  0  # atno 5983 bound_to 2887
   19.3640    3.0631   -0.3297 LP  0  0  0  0  0  0  0  0  0  0  0  0  # atno 6000 bound_to 3171
   18.0868    2.1843    0.1833 LP  0  0  0  0  0  0  0  0  0  0  0  0  # atno 6001 bound_to 3171
   13.9309    9.8089   10.4398 LP  0  0  0  0  0  0  0  0  0  0  0  0  # atno 6004 bound_to 5270
   14.0692   10.1999    8.8603 LP  0  0  0  0  0  0  0  0  0  0  0  0  # atno 6005 bound_to 5270
   10.4904   19.7902    8.8986 LP  0  0  0  0  0  0  0  0  0  0  0  0  # atno 6055 bound_to 637 
    9.6438   19.1930    7.6363 LP  0  0  0  0  0  0  0  0  0  0  0  0  # atno 6056 bound_to 637 
    1.2993   12.3316   10.9197 LP  0  0  0  0  0  0  0  0  0  0  0  0  # atno 6063 bound_to 1878
    2.2477   11.1550   10.3009 LP  0  0  0  0  0  0  0  0  0  0  0  0  # atno 6064 bound_to 1878
   -6.5762   15.5442   -1.3516 LP  0  0  0  0  0  0  0  0  0  0  0  0  # atno 6067 bound_to 957 
   -6.6782   17.1535   -1.0938 LP  0  0  0  0  0  0  0  0  0  0  0  0  # atno 6068 bound_to 957 

>  <STRIFE_LigEff_Score>  (115) 
3.072925

$$$$
unknown|pharmsElabsTestPreDocking|sdf|121|dock10
     RDKit          3D

 19 19  0  0  0  0  0  0  0  0999 V2000
    6.1429   10.0611    5.9001 C   0  0  0  0  0  0  0  0  0  0  0  0
    5.0485    9.6468    4.9641 C   0  0  0  0  0  0  0  0  0  0  0  0
    4.9577   10.0549    3.6789 C   0  0  0  0  0  0  0  0  0  0  0  0
    5.9988   10.9905    3.0909 C   0  0  0  0  0  0  0  0  0  0  0  0
    7.3252   10.3860    3.1417 N   0  0  0  0  0  0  0  0  0  0  0  0
    7.5760    9.0253    2.7740 C   0  0  0  0  0  0  0  0  0  0  0  0
    6.6532    8.3135    2.2876 O   0  0  0  0  0  0  0  0  0  0  0  0
    8.9560    8.4601    2.9604 C   0  0  0  0  0  0  0  0  0  0  0  0
    9.4901    7.9107    1.6331 C   0  0  0  0  0  0  0  0  0  0  0  0
   10.8804    7.3203    1.8276 C   0  0  0  0  0  0  0  0  0  0  0  0
   11.8528    8.4024    2.3415 C   0  0  0  0  0  0  0  0  0  0  0  0
   13.3040    7.8373    2.3835 C   0  0  0  0  0  0  0  0  0  0  0  0
   13.4916    6.9493    3.6295 C   0  0  0  0  0  0  0  0  0  0  0  0
   13.6304    7.0569    1.1830 N   0  0  0  0  0  0  0  0  0  0  0  0
   11.3367    8.9398    3.6994 C   0  0  0  0  0  0  0  0  0  0  0  0
    9.9126    9.5056    3.5600 C   0  0  0  0  0  0  0  0  0  0  0  0
    3.8245    9.5940    2.8214 C   0  0  0  0  0  0  0  0  0  0  0  0
    4.0446    9.1495    1.3996 C   0  0  0  0  0  0  0  0  0  0  0  0
    2.6255    9.5535    3.3146 N   0  0  0  0  0  0  0  0  0  0  0  0
  1  2  1  0
  2  3  2  0
  3  4  1  0
  4  5  1  0
  5  6  1  0
  6  7  2  0
  6  8  1  0
  8  9  1  0
  9 10  1  0
 10 11  1  0
 11 12  1  0
 12 13  1  0
 12 14  1  0
 11 15  1  0
 15 16  1  0
  3 17  1  0
 17 18  1  0
 17 19  2  0
 16  8  1  0
M  CHG  1  14   1
M  END
>  <EmbedRMS>  (116) 
0.029553590920788075

>  <Gold.Version>  (116) 
2020.3.0

>  <Gold.Id.Protein>  (116) 
unknown|1q8t_protein|pdb

>  <Gold.PLP.Fitness>  (116) 
51.7563

>  <Gold.PLP.PLP>  (116) 
-39.5964

>  <Gold.PLP.part.hbond>  (116) 
-5.0000

>  <Gold.PLP.part.metal>  (116) 
0.0000

>  <Gold.PLP.part.buried>  (116) 
1.7606

>  <Gold.PLP.part.nonpolar>  (116) 
-36.4563

>  <Gold.PLP.part.repulsive>  (116) 
0.0512

>  <Gold.PLP.ligand.clash>  (116) 
0.0000

>  <Gold.PLP.ligand.torsion>  (116) 
1.0635

>  <Gold.PLP.Chemscore.Hbond>  (116) 
4.7435

>  <Gold.PLP.Chemscore.CHOScore>  (116) 
0.0000

>  <Gold.PLP.Chemscore.Metal>  (116) 
0.0000

>  <Gold.Chemscore.Hbonds>  (116) 
donor molecule, donor type, donor heavy atom, donor atom, acceptor molecule, acceptor atom, score
      L1  H    14    37       P1  2691  1.00
      L1  H    14    39       P1  2902  2.00
      L1  H    19    47       P1  1855  0.64
      P1  H  2887  2891       L1     7  1.00
      P1  H  1888  1903       L1    19  0.10

>  <Gold.PLP.Chemscore.Internal.Correction>  (116) 
0.0563

>  <Gold.PLP.Constraint>  (116) 
-0.0000

>  <Gold.Protein.RotatedTorsions>  (116) 
[  681  677  676  673 ] final   14.56 input -179.99 | X-H torsion
[  702  698  697  694 ] final  -22.87 input  179.99 | X-H torsion
[ 2577 2569 2568 2566 ] final -124.08 input   -0.13 | X-H torsion
[ 2891 2887 2886 2883 ] final  175.22 input  179.98 | X-H torsion
[ 3175 3171 3170 3167 ] final -105.12 input -179.99 | X-H torsion
[ 5278 5270 5269 5267 ] final  -46.09 input    0.55 | X-H torsion
[  641  637  636  633 ] final -119.07 input  179.99 | X-H torsion
[ 1886 1878 1877 1875 ] final  -97.30 input    1.60 | X-H torsion
[  965  957  956  954 ] final   91.44 input    0.45 | X-H torsion

>  <Gold.Protein.ActiveResidues>  (116) 
 LYS47   THR48   LEU49   GLY50   THR51   GLY52   SER53   PHE54   GLY55   ARG56  
 VAL57   MET58   LEU59   TYR69   ALA70   MET71   LYS72   ILE73   LEU74   GLU91  
 LEU95   VAL104  LYS105  MET118  VAL119  MET120  GLU121  TYR122  VAL123  PRO124 
 GLY125  GLY126  GLU127  MET128  PHE129  TYR164  ASP166  LEU167  LYS168  PRO169 
 GLU170  ASN171  LEU172  LEU173  ILE174  GLN181  VAL182  THR183  ASP184  PHE185 
 GLY186  PHE187  GLY200  THR201  ASN326  PHE327  TYR330  ARG18   ARG19   ASN20  
 ALA21   ILE22   HIS23  

>  <Gold.Protein.RotatedAtoms>  (116) 
   11.0246   19.0042    7.4541 H   0  0  0  0  0  0  0  0  0  0  0  0  # atno 641  bound_to 637 
   16.0381   12.5941    6.3082 H   0  0  0  0  0  0  0  0  0  0  0  0  # atno 681  bound_to 677 
   19.7419   11.7768   -0.3887 H   0  0  0  0  0  0  0  0  0  0  0  0  # atno 702  bound_to 698 
   -7.1681   16.0633   -0.0009 H   0  0  0  0  0  0  0  0  0  0  0  0  # atno 965  bound_to 957 
    1.1722   10.5708   10.6564 H   0  0  0  0  0  0  0  0  0  0  0  0  # atno 1886 bound_to 1878
   11.0665    2.5860   -2.8001 H   0  0  0  0  0  0  0  0  0  0  0  0  # atno 2577 bound_to 2569
    7.4550    6.7453    1.4002 H   0  0  0  0  0  0  0  0  0  0  0  0  # atno 2891 bound_to 2887
   19.0302    2.8631    0.1973 H   0  0  0  0  0  0  0  0  0  0  0  0  # atno 3175 bound_to 3171
   13.0950    9.8337   10.3736 H   0  0  0  0  0  0  0  0  0  0  0  0  # atno 5278 bound_to 5270
   15.9916   13.6970    7.4560 LP  0  0  0  0  0  0  0  0  0  0  0  0  # atno 5914 bound_to 677 
   17.3020   13.5449    6.4935 LP  0  0  0  0  0  0  0  0  0  0  0  0  # atno 5915 bound_to 677 
   21.1561   11.5225   -1.0761 LP  0  0  0  0  0  0  0  0  0  0  0  0  # atno 5920 bound_to 698 
   19.8199   11.7768   -1.9797 LP  0  0  0  0  0  0  0  0  0  0  0  0  # atno 5921 bound_to 698 
    9.6208    2.0009   -2.4794 LP  0  0  0  0  0  0  0  0  0  0  0  0  # atno 5950 bound_to 2569
    9.7975    3.3404   -3.3966 LP  0  0  0  0  0  0  0  0  0  0  0  0  # atno 5951 bound_to 2569
    8.3862    6.2179    0.2207 LP  0  0  0  0  0  0  0  0  0  0  0  0  # atno 5982 bound_to 2887
    7.4427    5.1880    1.0667 LP  0  0  0  0  0  0  0  0  0  0  0  0  # atno 5983 bound_to 2887
   17.8744    1.9497   -0.4071 LP  0  0  0  0  0  0  0  0  0  0  0  0  # atno 6000 bound_to 3171
   18.9863    2.6459   -1.3795 LP  0  0  0  0  0  0  0  0  0  0  0  0  # atno 6001 bound_to 3171
   14.4730   10.0223    9.5974 LP  0  0  0  0  0  0  0  0  0  0  0  0  # atno 6004 bound_to 5270
   13.0456   10.1982    8.8239 LP  0  0  0  0  0  0  0  0  0  0  0  0  # atno 6005 bound_to 5270
   10.8156   19.7459    8.8474 LP  0  0  0  0  0  0  0  0  0  0  0  0  # atno 6055 bound_to 637 
    9.5381   19.3408    7.9144 LP  0  0  0  0  0  0  0  0  0  0  0  0  # atno 6056 bound_to 637 
    0.8653   12.0781   11.0678 LP  0  0  0  0  0  0  0  0  0  0  0  0  # atno 6063 bound_to 1878
    2.2860   11.6726   10.3723 LP  0  0  0  0  0  0  0  0  0  0  0  0  # atno 6064 bound_to 1878
   -6.5580   15.5824   -1.3907 LP  0  0  0  0  0  0  0  0  0  0  0  0  # atno 6067 bound_to 957 
   -6.7007   17.1718   -1.0439 LP  0  0  0  0  0  0  0  0  0  0  0  0  # atno 6068 bound_to 957 

>  <STRIFE_LigEff_Score>  (116) 
2.7240157894736843

$$$$
unknown|pharmsElabsTestPreDocking|sdf|122|dock4
     RDKit          3D

 18 19  0  0  0  0  0  0  0  0999 V2000
   14.4567    7.1821    2.6799 C   0  0  0  0  0  0  0  0  0  0  0  0
   13.0773    7.3421    2.0429 C   0  0  0  0  0  0  0  0  0  0  0  0
   13.0670    8.3663    0.9963 N   0  0  0  0  0  0  0  0  0  0  0  0
   11.8416    7.4317    2.9722 C   0  0  0  0  0  0  0  0  0  0  0  0
   10.5150    7.1136    2.2669 C   0  0  0  0  0  0  0  0  0  0  0  0
    9.2500    7.6076    2.9494 C   0  0  0  0  0  0  0  0  0  0  0  0
    9.4022    8.9930    3.5244 C   0  0  0  0  0  0  0  0  0  0  0  0
    8.1044    9.6352    3.9182 C   0  0  0  0  0  0  0  0  0  0  0  0
    7.5262   10.2640    2.9998 O   0  0  0  0  0  0  0  0  0  0  0  0
    7.5021    9.5922    5.2230 N   0  0  0  0  0  0  0  0  0  0  0  0
    6.2666   10.3405    5.4966 C   0  0  0  0  0  0  0  0  0  0  0  0
    5.1254    9.7898    4.6917 C   0  0  0  0  0  0  0  0  0  0  0  0
    3.9214    9.3147    5.1679 C   0  0  0  0  0  0  0  0  0  0  0  0
    3.1443    8.9655    4.1226 N   0  0  0  0  0  0  0  0  0  0  0  0
    3.8981    9.2408    3.0360 C   0  0  0  0  0  0  0  0  0  0  0  0
    5.1045    9.7459    3.3516 N   0  0  0  0  0  0  0  0  0  0  0  0
   10.5806    9.2145    4.4318 C   0  0  0  0  0  0  0  0  0  0  0  0
   11.8899    8.7400    3.8053 C   0  0  0  0  0  0  0  0  0  0  0  0
  1  2  1  0
  2  3  1  0
  2  4  1  0
  4  5  1  0
  5  6  1  0
  6  7  1  0
  7  8  1  0
  8  9  2  0
  8 10  1  0
 10 11  1  0
 11 12  1  0
 12 13  2  0
 13 14  1  0
 14 15  2  0
 15 16  1  0
  7 17  1  0
 17 18  1  0
 18  4  1  0
 16 12  1  0
M  CHG  1   3   1
M  END
>  <EmbedRMS>  (117) 
0.29359866989900446

>  <Gold.Version>  (117) 
2020.3.0

>  <Gold.Id.Protein>  (117) 
unknown|1q8t_protein|pdb

>  <Gold.PLP.Fitness>  (117) 
52.4914

>  <Gold.PLP.PLP>  (117) 
-41.7020

>  <Gold.PLP.part.hbond>  (117) 
-1.9337

>  <Gold.PLP.part.metal>  (117) 
0.0000

>  <Gold.PLP.part.buried>  (117) 
-2.0998

>  <Gold.PLP.part.nonpolar>  (117) 
-38.2858

>  <Gold.PLP.part.repulsive>  (117) 
0.1376

>  <Gold.PLP.ligand.clash>  (117) 
0.0000

>  <Gold.PLP.ligand.torsion>  (117) 
0.6396

>  <Gold.PLP.Chemscore.Hbond>  (117) 
2.8480

>  <Gold.PLP.Chemscore.CHOScore>  (117) 
0.9624

>  <Gold.PLP.Chemscore.Metal>  (117) 
0.0000

>  <Gold.Chemscore.Hbonds>  (117) 
donor molecule, donor type, donor heavy atom, donor atom, acceptor molecule, acceptor atom, score
      L1  H     3    24       P1  2902  2.00
      P1  H  1888  1903       L1    14  0.85
      L1  C    13    35       P1  1891  0.96

>  <Gold.PLP.Chemscore.Internal.Correction>  (117) 
0.6374

>  <Gold.PLP.Constraint>  (117) 
-0.0000

>  <Gold.Protein.RotatedTorsions>  (117) 
[  681  677  676  673 ] final -141.55 input -179.99 | X-H torsion
[  702  698  697  694 ] final -169.31 input  179.99 | X-H torsion
[ 2577 2569 2568 2566 ] final -100.35 input   -0.13 | X-H torsion
[ 2891 2887 2886 2883 ] final  176.04 input  179.98 | X-H torsion
[ 3175 3171 3170 3167 ] final  111.64 input -179.99 | X-H torsion
[ 5278 5270 5269 5267 ] final  -85.86 input    0.55 | X-H torsion
[  641  637  636  633 ] final  107.66 input  179.99 | X-H torsion
[ 1886 1878 1877 1875 ] final  -74.76 input    1.60 | X-H torsion
[  965  957  956  954 ] final -113.08 input    0.45 | X-H torsion

>  <Gold.Protein.ActiveResidues>  (117) 
 LYS47   THR48   LEU49   GLY50   THR51   GLY52   SER53   PHE54   GLY55   ARG56  
 VAL57   MET58   LEU59   TYR69   ALA70   MET71   LYS72   ILE73   LEU74   GLU91  
 LEU95   VAL104  LYS105  MET118  VAL119  MET120  GLU121  TYR122  VAL123  PRO124 
 GLY125  GLY126  GLU127  MET128  PHE129  TYR164  ASP166  LEU167  LYS168  PRO169 
 GLU170  ASN171  LEU172  LEU173  ILE174  GLN181  VAL182  THR183  ASP184  PHE185 
 GLY186  PHE187  GLY200  THR201  ASN326  PHE327  TYR330  ARG18   ARG19   ASN20  
 ALA21   ILE22   HIS23  

>  <Gold.Protein.RotatedAtoms>  (117) 
   10.5978   19.7449    8.8581 H   0  0  0  0  0  0  0  0  0  0  0  0  # atno 641  bound_to 637 
   16.5021   13.9293    7.3445 H   0  0  0  0  0  0  0  0  0  0  0  0  # atno 681  bound_to 677 
   21.0472   11.5665   -1.4828 H   0  0  0  0  0  0  0  0  0  0  0  0  # atno 702  bound_to 698 
   -6.5080   16.8173   -1.4354 H   0  0  0  0  0  0  0  0  0  0  0  0  # atno 965  bound_to 957 
    1.4907   10.5510   10.5126 H   0  0  0  0  0  0  0  0  0  0  0  0  # atno 1886 bound_to 1878
   11.0304    2.8858   -3.0109 H   0  0  0  0  0  0  0  0  0  0  0  0  # atno 2577 bound_to 2569
    7.4475    6.7371    1.4068 H   0  0  0  0  0  0  0  0  0  0  0  0  # atno 2891 bound_to 2887
   17.9695    1.9510   -0.7684 H   0  0  0  0  0  0  0  0  0  0  0  0  # atno 3175 bound_to 3171
   13.6968    9.8164   10.4694 H   0  0  0  0  0  0  0  0  0  0  0  0  # atno 5278 bound_to 5270
   17.1473   13.0997    6.1480 LP  0  0  0  0  0  0  0  0  0  0  0  0  # atno 5914 bound_to 677 
   15.6580   12.7368    6.7108 LP  0  0  0  0  0  0  0  0  0  0  0  0  # atno 5915 bound_to 677 
   19.4919   11.8296   -1.7048 LP  0  0  0  0  0  0  0  0  0  0  0  0  # atno 5920 bound_to 698 
   20.1110   11.6908   -0.2001 LP  0  0  0  0  0  0  0  0  0  0  0  0  # atno 5921 bound_to 698 
    9.9734    1.8817   -2.3708 LP  0  0  0  0  0  0  0  0  0  0  0  0  # atno 5950 bound_to 2569
    9.4830    3.1440   -3.2832 LP  0  0  0  0  0  0  0  0  0  0  0  0  # atno 5951 bound_to 2569
    8.3862    6.2311    0.2238 LP  0  0  0  0  0  0  0  0  0  0  0  0  # atno 5982 bound_to 2887
    7.4505    5.1834    1.0566 LP  0  0  0  0  0  0  0  0  0  0  0  0  # atno 5983 bound_to 2887
   19.2232    2.8496   -1.1638 LP  0  0  0  0  0  0  0  0  0  0  0  0  # atno 6000 bound_to 3171
   18.7538    2.7059    0.3936 LP  0  0  0  0  0  0  0  0  0  0  0  0  # atno 6001 bound_to 3171
   14.2450   10.1636    9.0148 LP  0  0  0  0  0  0  0  0  0  0  0  0  # atno 6004 bound_to 5270
   12.6405   10.0752    9.3057 LP  0  0  0  0  0  0  0  0  0  0  0  0  # atno 6005 bound_to 5270
    9.5947   19.2427    7.7283 LP  0  0  0  0  0  0  0  0  0  0  0  0  # atno 6055 bound_to 637 
   11.2085   19.0640    7.5549 LP  0  0  0  0  0  0  0  0  0  0  0  0  # atno 6056 bound_to 637 
    0.6611   11.7737   11.1059 LP  0  0  0  0  0  0  0  0  0  0  0  0  # atno 6063 bound_to 1878
    2.1549   11.9979   10.4855 LP  0  0  0  0  0  0  0  0  0  0  0  0  # atno 6064 bound_to 1878
   -7.1791   16.6253   -0.0043 LP  0  0  0  0  0  0  0  0  0  0  0  0  # atno 6067 bound_to 957 
   -6.7748   15.3348   -0.9196 LP  0  0  0  0  0  0  0  0  0  0  0  0  # atno 6068 bound_to 957 

>  <STRIFE_LigEff_Score>  (117) 
2.9161888888888887

$$$$
unknown|pharmsElabsTestPreDocking|sdf|123|dock4
     RDKit          3D

 16 16  0  0  0  0  0  0  0  0999 V2000
   13.1717    7.8662    3.8281 C   0  0  0  0  0  0  0  0  0  0  0  0
   12.7152    8.4862    2.4949 C   0  0  0  0  0  0  0  0  0  0  0  0
   12.9837    7.5384    1.4046 N   0  0  0  0  0  0  0  0  0  0  0  0
   11.2078    8.9003    2.5715 C   0  0  0  0  0  0  0  0  0  0  0  0
   10.3561    7.6478    2.8471 C   0  0  0  0  0  0  0  0  0  0  0  0
    8.8547    7.9132    2.8356 C   0  0  0  0  0  0  0  0  0  0  0  0
    8.4692    9.3389    3.1978 C   0  0  0  0  0  0  0  0  0  0  0  0
    7.0000    9.5192    3.4483 C   0  0  0  0  0  0  0  0  0  0  0  0
    6.3475    9.9869    2.4840 O   0  0  0  0  0  0  0  0  0  0  0  0
    6.3197    9.2162    4.6805 N   0  0  0  0  0  0  0  0  0  0  0  0
    4.9992    9.7147    4.9938 C   0  0  0  0  0  0  0  0  0  0  0  0
    3.9752    9.3319    4.2363 N   0  0  0  0  0  0  0  0  0  0  0  0
    4.1268    8.8812    2.8670 N   0  0  0  0  0  0  0  0  0  0  0  0
    3.0073    8.8133    2.0307 N   0  0  0  0  0  0  0  0  0  0  0  0
    9.4330   10.2485    3.9391 C   0  0  0  0  0  0  0  0  0  0  0  0
   10.9261    9.9528    3.6735 C   0  0  0  0  0  0  0  0  0  0  0  0
  1  2  1  0
  2  3  1  0
  2  4  1  0
  4  5  1  0
  5  6  1  0
  6  7  1  0
  7  8  1  0
  8  9  2  0
  8 10  1  0
 10 11  1  0
 11 12  2  0
 12 13  1  0
 13 14  1  0
  7 15  1  0
 15 16  1  0
 16  4  1  0
M  CHG  1   3   1
M  END
>  <EmbedRMS>  (118) 
0.19412633373752486

>  <Gold.Version>  (118) 
2020.3.0

>  <Gold.Id.Protein>  (118) 
unknown|1q8t_protein|pdb

>  <Gold.PLP.Fitness>  (118) 
39.7368

>  <Gold.PLP.PLP>  (118) 
-30.7189

>  <Gold.PLP.part.hbond>  (118) 
-3.0000

>  <Gold.PLP.part.metal>  (118) 
0.0000

>  <Gold.PLP.part.buried>  (118) 
-6.3725

>  <Gold.PLP.part.nonpolar>  (118) 
-20.8055

>  <Gold.PLP.part.repulsive>  (118) 
0.1308

>  <Gold.PLP.ligand.clash>  (118) 
0.0000

>  <Gold.PLP.ligand.torsion>  (118) 
0.7143

>  <Gold.PLP.Chemscore.Hbond>  (118) 
3.2325

>  <Gold.PLP.Chemscore.CHOScore>  (118) 
0.0000

>  <Gold.PLP.Chemscore.Metal>  (118) 
0.0000

>  <Gold.Chemscore.Hbonds>  (118) 
donor molecule, donor type, donor heavy atom, donor atom, acceptor molecule, acceptor atom, score
      L1  H     3    21       P1  2691  0.75
      L1  H     3    22       P1  2902  2.00
      L1  H    14    34       P1  1855  0.48

>  <Gold.PLP.Chemscore.Internal.Correction>  (118) 
0.7491

>  <Gold.PLP.Constraint>  (118) 
-0.0000

>  <Gold.Protein.RotatedTorsions>  (118) 
[  681  677  676  673 ] final -152.75 input -179.99 | X-H torsion
[  702  698  697  694 ] final  -39.36 input  179.99 | X-H torsion
[ 2577 2569 2568 2566 ] final   70.07 input   -0.13 | X-H torsion
[ 2891 2887 2886 2883 ] final   97.67 input  179.98 | X-H torsion
[ 3175 3171 3170 3167 ] final -122.30 input -179.99 | X-H torsion
[ 5278 5270 5269 5267 ] final -164.40 input    0.55 | X-H torsion
[  641  637  636  633 ] final -119.84 input  179.99 | X-H torsion
[ 1886 1878 1877 1875 ] final  -55.34 input    1.60 | X-H torsion
[  965  957  956  954 ] final   91.88 input    0.45 | X-H torsion

>  <Gold.Protein.ActiveResidues>  (118) 
 LYS47   THR48   LEU49   GLY50   THR51   GLY52   SER53   PHE54   GLY55   ARG56  
 VAL57   MET58   LEU59   TYR69   ALA70   MET71   LYS72   ILE73   LEU74   GLU91  
 LEU95   VAL104  LYS105  MET118  VAL119  MET120  GLU121  TYR122  VAL123  PRO124 
 GLY125  GLY126  GLU127  MET128  PHE129  TYR164  ASP166  LEU167  LYS168  PRO169 
 GLU170  ASN171  LEU172  LEU173  ILE174  GLN181  VAL182  THR183  ASP184  PHE185 
 GLY186  PHE187  GLY200  THR201  ASN326  PHE327  TYR330  ARG18   ARG19   ASN20  
 ALA21   ILE22   HIS23  

>  <Gold.Protein.RotatedAtoms>  (118) 
   11.0339   19.0072    7.4610 H   0  0  0  0  0  0  0  0  0  0  0  0  # atno 641  bound_to 637 
   16.6594   13.9555    7.2730 H   0  0  0  0  0  0  0  0  0  0  0  0  # atno 681  bound_to 677 
   19.9702   11.7342   -0.2786 H   0  0  0  0  0  0  0  0  0  0  0  0  # atno 702  bound_to 698 
   -7.1686   16.0700    0.0006 H   0  0  0  0  0  0  0  0  0  0  0  0  # atno 965  bound_to 957 
    1.7597   10.6417   10.4095 H   0  0  0  0  0  0  0  0  0  0  0  0  # atno 1886 bound_to 1878
    9.2927    2.5034   -2.8727 H   0  0  0  0  0  0  0  0  0  0  0  0  # atno 2577 bound_to 2569
    8.1902    6.7626    0.5527 H   0  0  0  0  0  0  0  0  0  0  0  0  # atno 2891 bound_to 2887
   18.8328    2.7334    0.3231 H   0  0  0  0  0  0  0  0  0  0  0  0  # atno 3175 bound_to 3171
   14.4261   10.0316    9.6277 H   0  0  0  0  0  0  0  0  0  0  0  0  # atno 5278 bound_to 5270
   17.0380   12.9665    6.0836 LP  0  0  0  0  0  0  0  0  0  0  0  0  # atno 5914 bound_to 677 
   15.6016   12.8425    6.8505 LP  0  0  0  0  0  0  0  0  0  0  0  0  # atno 5915 bound_to 677 
   21.1355   11.5313   -1.3455 LP  0  0  0  0  0  0  0  0  0  0  0  0  # atno 5920 bound_to 698 
   19.6004   11.8127   -1.8260 LP  0  0  0  0  0  0  0  0  0  0  0  0  # atno 5921 bound_to 698 
   10.5306    3.3746   -3.3666 LP  0  0  0  0  0  0  0  0  0  0  0  0  # atno 5950 bound_to 2569
   10.7555    2.0538   -2.4330 LP  0  0  0  0  0  0  0  0  0  0  0  0  # atno 5951 bound_to 2569
    7.8900    5.1985    0.5512 LP  0  0  0  0  0  0  0  0  0  0  0  0  # atno 5982 bound_to 2887
    7.1651    6.1891    1.6282 LP  0  0  0  0  0  0  0  0  0  0  0  0  # atno 5983 bound_to 2887
   17.8990    1.9313   -0.6871 LP  0  0  0  0  0  0  0  0  0  0  0  0  # atno 6000 bound_to 3171
   19.1694    2.8008   -1.2319 LP  0  0  0  0  0  0  0  0  0  0  0  0  # atno 6001 bound_to 3171
   13.0697   10.2018    8.8104 LP  0  0  0  0  0  0  0  0  0  0  0  0  # atno 6004 bound_to 5270
   13.0484    9.8106   10.3957 LP  0  0  0  0  0  0  0  0  0  0  0  0  # atno 6005 bound_to 5270
   10.8039   19.7485    8.8512 LP  0  0  0  0  0  0  0  0  0  0  0  0  # atno 6055 bound_to 637 
    9.5400   19.3351    7.9034 LP  0  0  0  0  0  0  0  0  0  0  0  0  # atno 6056 bound_to 637 
    0.5798   11.4668   11.0894 LP  0  0  0  0  0  0  0  0  0  0  0  0  # atno 6063 bound_to 1878
    1.9531   12.2093   10.6106 LP  0  0  0  0  0  0  0  0  0  0  0  0  # atno 6064 bound_to 1878
   -6.5603   15.5775   -1.3859 LP  0  0  0  0  0  0  0  0  0  0  0  0  # atno 6067 bound_to 957 
   -6.6978   17.1696   -1.0502 LP  0  0  0  0  0  0  0  0  0  0  0  0  # atno 6068 bound_to 957 

>  <STRIFE_LigEff_Score>  (118) 
2.48355

$$$$
unknown|pharmsElabsTestPreDocking|sdf|124|dock9
     RDKit          3D

 18 18  0  0  0  0  0  0  0  0999 V2000
    3.5344   10.0479    1.5037 C   0  0  0  0  0  0  0  0  0  0  0  0
    4.4976    9.1379    1.3786 C   0  0  0  0  0  0  0  0  0  0  0  0
    5.5895    8.9650    2.3804 C   0  0  0  0  0  0  0  0  0  0  0  0
    5.2981    8.8707    3.6925 C   0  0  0  0  0  0  0  0  0  0  0  0
    3.9042    8.9356    4.2652 C   0  0  0  0  0  0  0  0  0  0  0  0
    3.8198   10.1163    5.6017 Cl  0  0  0  0  0  0  0  0  0  0  0  0
    6.9789    8.9031    1.9575 N   0  0  0  0  0  0  0  0  0  0  0  0
    8.0414    9.3746    2.8122 C   0  0  0  0  0  0  0  0  0  0  0  0
    7.7563   10.1097    3.7889 O   0  0  0  0  0  0  0  0  0  0  0  0
    9.5062    9.0666    2.6676 C   0  0  0  0  0  0  0  0  0  0  0  0
    9.8107    7.5945    2.5250 C   0  0  0  0  0  0  0  0  0  0  0  0
   11.2426    7.3179    2.0922 C   0  0  0  0  0  0  0  0  0  0  0  0
   12.3040    8.1896    2.7612 C   0  0  0  0  0  0  0  0  0  0  0  0
   13.7766    7.8459    2.3345 C   0  0  0  0  0  0  0  0  0  0  0  0
   14.6707    7.2141    3.4148 C   0  0  0  0  0  0  0  0  0  0  0  0
   13.8345    7.0506    1.1043 N   0  0  0  0  0  0  0  0  0  0  0  0
   11.9393    9.6702    2.9859 C   0  0  0  0  0  0  0  0  0  0  0  0
   10.4922    9.9068    3.4496 C   0  0  0  0  0  0  0  0  0  0  0  0
  1  2  2  0
  2  3  1  0
  3  4  2  0
  4  5  1  0
  5  6  1  0
  3  7  1  0
  7  8  1  0
  8  9  2  0
  8 10  1  0
 10 11  1  0
 11 12  1  0
 12 13  1  0
 13 14  1  0
 14 15  1  0
 14 16  1  0
 13 17  1  0
 17 18  1  0
 18 10  1  0
M  CHG  1  16   1
M  END
>  <EmbedRMS>  (119) 
0.26173100746407224

>  <Gold.Version>  (119) 
2020.3.0

>  <Gold.Id.Protein>  (119) 
unknown|1q8t_protein|pdb

>  <Gold.PLP.Fitness>  (119) 
51.2798

>  <Gold.PLP.PLP>  (119) 
-45.4971

>  <Gold.PLP.part.hbond>  (119) 
-2.9695

>  <Gold.PLP.part.metal>  (119) 
0.0000

>  <Gold.PLP.part.buried>  (119) 
-2.8685

>  <Gold.PLP.part.nonpolar>  (119) 
-39.7059

>  <Gold.PLP.part.repulsive>  (119) 
0.0601

>  <Gold.PLP.ligand.clash>  (119) 
0.0007

>  <Gold.PLP.ligand.torsion>  (119) 
2.2769

>  <Gold.PLP.Chemscore.Hbond>  (119) 
3.0000

>  <Gold.PLP.Chemscore.CHOScore>  (119) 
0.0000

>  <Gold.PLP.Chemscore.Metal>  (119) 
0.0000

>  <Gold.Chemscore.Hbonds>  (119) 
donor molecule, donor type, donor heavy atom, donor atom, acceptor molecule, acceptor atom, score
      L1  H    16    36       P1  2902  2.00
      L1  H    16    38       P1  2691  1.00

>  <Gold.PLP.Chemscore.Internal.Correction>  (119) 
1.3373

>  <Gold.PLP.Constraint>  (119) 
-0.0000

>  <Gold.Protein.RotatedTorsions>  (119) 
[  681  677  676  673 ] final  130.47 input -179.99 | X-H torsion
[  702  698  697  694 ] final  -15.58 input  179.99 | X-H torsion
[ 2577 2569 2568 2566 ] final -116.80 input   -0.13 | X-H torsion
[ 2891 2887 2886 2883 ] final -155.07 input  179.98 | X-H torsion
[ 3175 3171 3170 3167 ] final -141.22 input -179.99 | X-H torsion
[ 5278 5270 5269 5267 ] final  175.70 input    0.55 | X-H torsion
[  641  637  636  633 ] final -130.00 input  179.99 | X-H torsion
[ 1886 1878 1877 1875 ] final -156.54 input    1.60 | X-H torsion
[  965  957  956  954 ] final   32.74 input    0.45 | X-H torsion

>  <Gold.Protein.ActiveResidues>  (119) 
 LYS47   THR48   LEU49   GLY50   THR51   GLY52   SER53   PHE54   GLY55   ARG56  
 VAL57   MET58   LEU59   TYR69   ALA70   MET71   LYS72   ILE73   LEU74   GLU91  
 LEU95   VAL104  LYS105  MET118  VAL119  MET120  GLU121  TYR122  VAL123  PRO124 
 GLY125  GLY126  GLU127  MET128  PHE129  TYR164  ASP166  LEU167  LYS168  PRO169 
 GLU170  ASN171  LEU172  LEU173  ILE174  GLN181  VAL182  THR183  ASP184  PHE185 
 GLY186  PHE187  GLY200  THR201  ASN326  PHE327  TYR330  ARG18   ARG19   ASN20  
 ALA21   ILE22   HIS23  

>  <Gold.Protein.RotatedAtoms>  (119) 
   11.1474   19.0525    7.5622 H   0  0  0  0  0  0  0  0  0  0  0  0  # atno 641  bound_to 637 
   17.2515   13.4960    6.4506 H   0  0  0  0  0  0  0  0  0  0  0  0  # atno 681  bound_to 677 
   19.6527   11.7939   -0.4577 H   0  0  0  0  0  0  0  0  0  0  0  0  # atno 702  bound_to 698 
   -6.9270   15.4174   -0.5440 H   0  0  0  0  0  0  0  0  0  0  0  0  # atno 965  bound_to 957 
    0.6297   11.1802   10.9996 H   0  0  0  0  0  0  0  0  0  0  0  0  # atno 1886 bound_to 1878
   11.0717    2.6796   -2.8647 H   0  0  0  0  0  0  0  0  0  0  0  0  # atno 2577 bound_to 2569
    7.2370    6.3757    1.5642 H   0  0  0  0  0  0  0  0  0  0  0  0  # atno 2891 bound_to 2887
   18.5967    2.5652    0.3746 H   0  0  0  0  0  0  0  0  0  0  0  0  # atno 3175 bound_to 3171
   14.3766   10.1043    9.3308 H   0  0  0  0  0  0  0  0  0  0  0  0  # atno 5278 bound_to 5270
   15.9711   12.5557    6.3373 LP  0  0  0  0  0  0  0  0  0  0  0  0  # atno 5914 bound_to 677 
   16.0454   13.7369    7.4624 LP  0  0  0  0  0  0  0  0  0  0  0  0  # atno 5915 bound_to 677 
   21.1408   11.5229   -0.9571 LP  0  0  0  0  0  0  0  0  0  0  0  0  # atno 5920 bound_to 698 
   19.9290   11.7583   -2.0261 LP  0  0  0  0  0  0  0  0  0  0  0  0  # atno 5921 bound_to 698 
    9.7216    1.9514   -2.4376 LP  0  0  0  0  0  0  0  0  0  0  0  0  # atno 5950 bound_to 2569
    9.6914    3.2915   -3.3703 LP  0  0  0  0  0  0  0  0  0  0  0  0  # atno 5951 bound_to 2569
    8.3065    6.6524    0.4170 LP  0  0  0  0  0  0  0  0  0  0  0  0  # atno 5982 bound_to 2887
    7.7518    5.1424    0.6978 LP  0  0  0  0  0  0  0  0  0  0  0  0  # atno 5983 bound_to 2887
   18.0018    1.9694   -0.9770 LP  0  0  0  0  0  0  0  0  0  0  0  0  # atno 6000 bound_to 3171
   19.3151    2.9397   -0.9962 LP  0  0  0  0  0  0  0  0  0  0  0  0  # atno 6001 bound_to 3171
   12.8173   10.1500    9.0097 LP  0  0  0  0  0  0  0  0  0  0  0  0  # atno 6004 bound_to 5270
   13.3529    9.7859   10.5087 LP  0  0  0  0  0  0  0  0  0  0  0  0  # atno 6005 bound_to 5270
   10.6433   19.7762    8.8878 LP  0  0  0  0  0  0  0  0  0  0  0  0  # atno 6055 bound_to 637 
    9.5812   19.2597    7.7601 LP  0  0  0  0  0  0  0  0  0  0  0  0  # atno 6056 bound_to 637 
    1.7015   12.3292   10.7420 LP  0  0  0  0  0  0  0  0  0  0  0  0  # atno 6063 bound_to 1878
    2.0210   10.7799   10.3368 LP  0  0  0  0  0  0  0  0  0  0  0  0  # atno 6064 bound_to 1878
   -6.4367   16.4644   -1.6388 LP  0  0  0  0  0  0  0  0  0  0  0  0  # atno 6067 bound_to 957 
   -7.0759   16.9700   -0.2238 LP  0  0  0  0  0  0  0  0  0  0  0  0  # atno 6068 bound_to 957 

>  <STRIFE_LigEff_Score>  (119) 
2.848877777777778

$$$$
unknown|pharmsElabsTestPreDocking|sdf|125|dock5
     RDKit          3D

 16 16  0  0  0  0  0  0  0  0999 V2000
   13.8530    7.9352    3.2556 C   0  0  0  0  0  0  0  0  0  0  0  0
   12.5537    7.8078    2.4606 C   0  0  0  0  0  0  0  0  0  0  0  0
   12.4982    8.8027    1.3806 N   0  0  0  0  0  0  0  0  0  0  0  0
   11.2283    7.7210    3.2433 C   0  0  0  0  0  0  0  0  0  0  0  0
   10.0189    6.9682    2.6266 C   0  0  0  0  0  0  0  0  0  0  0  0
    8.7435    7.7856    2.4727 C   0  0  0  0  0  0  0  0  0  0  0  0
    8.4472    8.6058    3.7265 C   0  0  0  0  0  0  0  0  0  0  0  0
    7.1100    9.2902    3.6083 C   0  0  0  0  0  0  0  0  0  0  0  0
    6.7021   10.0516    4.5302 O   0  0  0  0  0  0  0  0  0  0  0  0
    6.2965    9.0534    2.4509 N   0  0  0  0  0  0  0  0  0  0  0  0
    4.9994    9.6321    2.2717 C   0  0  0  0  0  0  0  0  0  0  0  0
    4.1005    9.7749    3.2566 C   0  0  0  0  0  0  0  0  0  0  0  0
    4.2697    9.2772    4.5928 N   0  0  0  0  0  0  0  0  0  0  0  0
    3.3002    9.4501    5.5938 N   0  0  0  0  0  0  0  0  0  0  0  0
    9.5542    9.6373    3.9192 C   0  0  0  0  0  0  0  0  0  0  0  0
   10.9249    8.9877    4.0999 C   0  0  0  0  0  0  0  0  0  0  0  0
  1  2  1  0
  2  3  1  0
  2  4  1  0
  4  5  1  0
  5  6  1  0
  6  7  1  0
  7  8  1  0
  8  9  2  0
  8 10  1  0
 10 11  1  0
 11 12  2  0
 12 13  1  0
 13 14  1  0
  7 15  1  0
 15 16  1  0
 16  4  1  0
M  CHG  1   3   1
M  END
>  <EmbedRMS>  (120) 
0.2141533042732473

>  <Gold.Version>  (120) 
2020.3.0

>  <Gold.Id.Protein>  (120) 
unknown|1q8t_protein|pdb

>  <Gold.PLP.Fitness>  (120) 
38.4805

>  <Gold.PLP.PLP>  (120) 
-31.3698

>  <Gold.PLP.part.hbond>  (120) 
-3.0000

>  <Gold.PLP.part.metal>  (120) 
0.0000

>  <Gold.PLP.part.buried>  (120) 
-2.6745

>  <Gold.PLP.part.nonpolar>  (120) 
-26.0960

>  <Gold.PLP.part.repulsive>  (120) 
0.0578

>  <Gold.PLP.ligand.clash>  (120) 
0.0000

>  <Gold.PLP.ligand.torsion>  (120) 
0.4298

>  <Gold.PLP.Chemscore.Hbond>  (120) 
2.5265

>  <Gold.PLP.Chemscore.CHOScore>  (120) 
0.0000

>  <Gold.PLP.Chemscore.Metal>  (120) 
0.0000

>  <Gold.Chemscore.Hbonds>  (120) 
donor molecule, donor type, donor heavy atom, donor atom, acceptor molecule, acceptor atom, score
      L1  H     3    23       P1  2902  1.98
      L1  H    14    34       P1  1891  0.54

>  <Gold.PLP.Chemscore.Internal.Correction>  (120) 
0.3908

>  <Gold.PLP.Constraint>  (120) 
-0.0000

>  <Gold.Protein.RotatedTorsions>  (120) 
[  681  677  676  673 ] final   30.64 input -179.99 | X-H torsion
[  702  698  697  694 ] final  106.91 input  179.99 | X-H torsion
[ 2577 2569 2568 2566 ] final   65.18 input   -0.13 | X-H torsion
[ 2891 2887 2886 2883 ] final    4.60 input  179.98 | X-H torsion
[ 3175 3171 3170 3167 ] final  -17.46 input -179.99 | X-H torsion
[ 5278 5270 5269 5267 ] final -112.12 input    0.55 | X-H torsion
[  641  637  636  633 ] final  141.54 input  179.99 | X-H torsion
[ 1886 1878 1877 1875 ] final -111.46 input    1.60 | X-H torsion
[  965  957  956  954 ] final   71.46 input    0.45 | X-H torsion

>  <Gold.Protein.ActiveResidues>  (120) 
 LYS47   THR48   LEU49   GLY50   THR51   GLY52   SER53   PHE54   GLY55   ARG56  
 VAL57   MET58   LEU59   TYR69   ALA70   MET71   LYS72   ILE73   LEU74   GLU91  
 LEU95   VAL104  LYS105  MET118  VAL119  MET120  GLU121  TYR122  VAL123  PRO124 
 GLY125  GLY126  GLU127  MET128  PHE129  TYR164  ASP166  LEU167  LYS168  PRO169 
 GLU170  ASN171  LEU172  LEU173  ILE174  GLN181  VAL182  THR183  ASP184  PHE185 
 GLY186  PHE187  GLY200  THR201  ASN326  PHE327  TYR330  ARG18   ARG19   ASN20  
 ALA21   ILE22   HIS23  

>  <Gold.Protein.RotatedAtoms>  (120) 
   11.0691   19.6229    8.6706 H   0  0  0  0  0  0  0  0  0  0  0  0  # atno 641  bound_to 637 
   16.2526   12.5976    6.1788 H   0  0  0  0  0  0  0  0  0  0  0  0  # atno 681  bound_to 677 
   19.9833   11.7649   -1.9937 H   0  0  0  0  0  0  0  0  0  0  0  0  # atno 702  bound_to 698 
   -7.1195   15.7779   -0.1135 H   0  0  0  0  0  0  0  0  0  0  0  0  # atno 965  bound_to 957 
    0.9895   10.6513   10.7507 H   0  0  0  0  0  0  0  0  0  0  0  0  # atno 1886 bound_to 1878
    9.2854    2.5656   -2.9164 H   0  0  0  0  0  0  0  0  0  0  0  0  # atno 2577 bound_to 2569
    8.1214    5.4839    0.3261 H   0  0  0  0  0  0  0  0  0  0  0  0  # atno 2891 bound_to 2887
   19.2691    2.8807   -1.0198 H   0  0  0  0  0  0  0  0  0  0  0  0  # atno 3175 bound_to 3171
   14.0691    9.8594   10.3105 H   0  0  0  0  0  0  0  0  0  0  0  0  # atno 5278 bound_to 5270
   15.8048   13.5205    7.3969 LP  0  0  0  0  0  0  0  0  0  0  0  0  # atno 5914 bound_to 677 
   17.2631   13.7177    6.6889 LP  0  0  0  0  0  0  0  0  0  0  0  0  # atno 5915 bound_to 677 
   19.5898   11.7880   -0.4503 LP  0  0  0  0  0  0  0  0  0  0  0  0  # atno 5920 bound_to 698 
   21.1322   11.5236   -0.9170 LP  0  0  0  0  0  0  0  0  0  0  0  0  # atno 5921 bound_to 698 
   10.6036    3.3497   -3.3439 LP  0  0  0  0  0  0  0  0  0  0  0  0  # atno 5950 bound_to 2569
   10.6902    2.0132   -2.4096 LP  0  0  0  0  0  0  0  0  0  0  0  0  # atno 5951 bound_to 2569
    7.1418    5.7575    1.5517 LP  0  0  0  0  0  0  0  0  0  0  0  0  # atno 5982 bound_to 2887
    7.9857    6.9760    0.8662 LP  0  0  0  0  0  0  0  0  0  0  0  0  # atno 5983 bound_to 2887
   18.6337    2.6200    0.4169 LP  0  0  0  0  0  0  0  0  0  0  0  0  # atno 6000 bound_to 3171
   17.9756    1.9571   -0.9225 LP  0  0  0  0  0  0  0  0  0  0  0  0  # atno 6001 bound_to 3171
   13.8991   10.2208    8.7686 LP  0  0  0  0  0  0  0  0  0  0  0  0  # atno 6004 bound_to 5270
   12.5946    9.9727    9.7191 LP  0  0  0  0  0  0  0  0  0  0  0  0  # atno 6005 bound_to 5270
    9.5491   19.4937    8.2149 LP  0  0  0  0  0  0  0  0  0  0  0  0  # atno 6055 bound_to 637 
   10.7578   18.9415    7.2657 LP  0  0  0  0  0  0  0  0  0  0  0  0  # atno 6056 bound_to 637 
    1.0410   12.2206   11.0146 LP  0  0  0  0  0  0  0  0  0  0  0  0  # atno 6063 bound_to 1878
    2.3027   11.4454   10.3262 LP  0  0  0  0  0  0  0  0  0  0  0  0  # atno 6064 bound_to 1878
   -6.4749   15.8445   -1.5679 LP  0  0  0  0  0  0  0  0  0  0  0  0  # atno 6067 bound_to 957 
   -6.8350   17.2102   -0.7481 LP  0  0  0  0  0  0  0  0  0  0  0  0  # atno 6068 bound_to 957 

>  <STRIFE_LigEff_Score>  (120) 
2.40503125

$$$$
unknown|pharmsElabsTestPreDocking|sdf|95|dock7
     RDKit          3D

 18 19  0  0  0  0  0  0  0  0999 V2000
   14.0744    6.7209    2.7444 C   0  0  0  0  0  0  0  0  0  0  0  0
   13.5229    8.1404    2.5427 C   0  0  0  0  0  0  0  0  0  0  0  0
   13.9023    8.6453    1.2181 N   0  0  0  0  0  0  0  0  0  0  0  0
   11.9951    8.3402    2.8411 C   0  0  0  0  0  0  0  0  0  0  0  0
   11.0267    7.5639    1.9290 C   0  0  0  0  0  0  0  0  0  0  0  0
    9.6620    8.2033    1.7519 C   0  0  0  0  0  0  0  0  0  0  0  0
    9.1287    8.8104    3.0439 C   0  0  0  0  0  0  0  0  0  0  0  0
    7.7270    9.3180    2.8165 C   0  0  0  0  0  0  0  0  0  0  0  0
    7.4097   10.4923    3.1604 O   0  0  0  0  0  0  0  0  0  0  0  0
    6.7508    8.4558    2.2315 N   0  0  0  0  0  0  0  0  0  0  0  0
    5.3899    8.9087    1.9759 C   0  0  0  0  0  0  0  0  0  0  0  0
    4.7427    9.2443    3.2348 N   0  0  0  0  0  0  0  0  0  0  0  0
    3.4407    9.5066    3.4228 C   0  0  0  0  0  0  0  0  0  0  0  0
    3.1716    9.6941    4.7284 N   0  0  0  0  0  0  0  0  0  0  0  0
    4.3804    9.5144    5.3070 C   0  0  0  0  0  0  0  0  0  0  0  0
    5.3431    9.2284    4.4096 N   0  0  0  0  0  0  0  0  0  0  0  0
   10.0271    9.9581    3.5183 C   0  0  0  0  0  0  0  0  0  0  0  0
   11.5384    9.6579    3.5016 C   0  0  0  0  0  0  0  0  0  0  0  0
  1  2  1  0
  2  3  1  0
  2  4  1  0
  4  5  1  0
  5  6  1  0
  6  7  1  0
  7  8  1  0
  8  9  2  0
  8 10  1  0
 10 11  1  0
 11 12  1  0
 12 13  1  0
 13 14  2  0
 14 15  1  0
 15 16  2  0
  7 17  1  0
 17 18  1  0
 18  4  1  0
 16 12  1  0
M  CHG  1   3   1
M  END
>  <EmbedRMS>  (121) 
0.16387727933122087

>  <Gold.Version>  (121) 
2020.3.0

>  <Gold.Id.Protein>  (121) 
unknown|1q8t_protein|pdb

>  <Gold.PLP.Fitness>  (121) 
51.6726

>  <Gold.PLP.PLP>  (121) 
-37.6969

>  <Gold.PLP.part.hbond>  (121) 
-3.0000

>  <Gold.PLP.part.metal>  (121) 
0.0000

>  <Gold.PLP.part.buried>  (121) 
-1.8125

>  <Gold.PLP.part.nonpolar>  (121) 
-33.0421

>  <Gold.PLP.part.repulsive>  (121) 
0.1435

>  <Gold.PLP.ligand.clash>  (121) 
0.0000

>  <Gold.PLP.ligand.torsion>  (121) 
0.6439

>  <Gold.PLP.Chemscore.Hbond>  (121) 
3.8840

>  <Gold.PLP.Chemscore.CHOScore>  (121) 
0.9981

>  <Gold.PLP.Chemscore.Metal>  (121) 
0.0000

>  <Gold.Chemscore.Hbonds>  (121) 
donor molecule, donor type, donor heavy atom, donor atom, acceptor molecule, acceptor atom, score
      L1  H     3    23       P1  2902  1.98
      L1  H    10    32       P1  2887  0.90
      P1  H  1888  1903       L1    14  1.00
      L1  C    13    35       P1  1855  1.00

>  <Gold.PLP.Chemscore.Internal.Correction>  (121) 
0.6172

>  <Gold.PLP.Constraint>  (121) 
-0.0000

>  <Gold.Protein.RotatedTorsions>  (121) 
[  681  677  676  673 ] final  122.90 input -179.99 | X-H torsion
[  702  698  697  694 ] final -160.26 input  179.99 | X-H torsion
[ 2577 2569 2568 2566 ] final  143.00 input   -0.13 | X-H torsion
[ 2891 2887 2886 2883 ] final  -35.65 input  179.98 | X-H torsion
[ 3175 3171 3170 3167 ] final  120.24 input -179.99 | X-H torsion
[ 5278 5270 5269 5267 ] final   -8.36 input    0.55 | X-H torsion
[  641  637  636  633 ] final    4.95 input  179.99 | X-H torsion
[ 1886 1878 1877 1875 ] final  -52.45 input    1.60 | X-H torsion
[  965  957  956  954 ] final    7.43 input    0.45 | X-H torsion

>  <Gold.Protein.ActiveResidues>  (121) 
 LYS47   THR48   LEU49   GLY50   THR51   GLY52   SER53   PHE54   GLY55   ARG56  
 VAL57   MET58   LEU59   TYR69   ALA70   MET71   LYS72   ILE73   LEU74   GLU91  
 LEU95   VAL104  LYS105  MET118  VAL119  MET120  GLU121  TYR122  VAL123  PRO124 
 GLY125  GLY126  GLU127  MET128  PHE129  TYR164  ASP166  LEU167  LYS168  PRO169 
 GLU170  ASN171  LEU172  LEU173  ILE174  GLN181  VAL182  THR183  ASP184  PHE185 
 GLY186  PHE187  GLY200  THR201  ASN326  PHE327  TYR330  ARG18   ARG19   ASN20  
 ALA21   ILE22   HIS23  

>  <Gold.Protein.RotatedAtoms>  (121) 
    9.5772   19.3559    7.9846 H   0  0  0  0  0  0  0  0  0  0  0  0  # atno 641  bound_to 637 
   17.2390   13.4087    6.3719 H   0  0  0  0  0  0  0  0  0  0  0  0  # atno 681  bound_to 677 
   21.0905   11.5562   -1.3485 H   0  0  0  0  0  0  0  0  0  0  0  0  # atno 702  bound_to 698 
   -6.7655   15.3807   -0.8997 H   0  0  0  0  0  0  0  0  0  0  0  0  # atno 965  bound_to 957 
    1.7973   10.6632   10.3966 H   0  0  0  0  0  0  0  0  0  0  0  0  # atno 1886 bound_to 1878
   10.0359    1.9042   -2.4022 H   0  0  0  0  0  0  0  0  0  0  0  0  # atno 2577 bound_to 2569
    7.7339    5.1893    0.7043 H   0  0  0  0  0  0  0  0  0  0  0  0  # atno 2891 bound_to 2887
   17.9386    1.9452   -0.6379 H   0  0  0  0  0  0  0  0  0  0  0  0  # atno 3175 bound_to 3171
   12.7068    9.9329    9.9551 H   0  0  0  0  0  0  0  0  0  0  0  0  # atno 5278 bound_to 5270
   15.8797   12.5801    6.4181 LP  0  0  0  0  0  0  0  0  0  0  0  0  # atno 5914 bound_to 677 
   16.1500   13.8044    7.4644 LP  0  0  0  0  0  0  0  0  0  0  0  0  # atno 5915 bound_to 677 
   19.5897   11.8144   -1.8159 LP  0  0  0  0  0  0  0  0  0  0  0  0  # atno 5920 bound_to 698 
   19.9676   11.7168   -0.2302 LP  0  0  0  0  0  0  0  0  0  0  0  0  # atno 5921 bound_to 698 
    9.4471    3.1086   -3.2612 LP  0  0  0  0  0  0  0  0  0  0  0  0  # atno 5950 bound_to 2569
   11.0564    2.9507   -3.0337 LP  0  0  0  0  0  0  0  0  0  0  0  0  # atno 5951 bound_to 2569
    7.2257    6.3982    1.6080 LP  0  0  0  0  0  0  0  0  0  0  0  0  # atno 5982 bound_to 2887
    8.3095    6.6452    0.4118 LP  0  0  0  0  0  0  0  0  0  0  0  0  # atno 5983 bound_to 2887
   19.1449    2.7793   -1.2582 LP  0  0  0  0  0  0  0  0  0  0  0  0  # atno 6000 bound_to 3171
   18.8646    2.7824    0.3506 LP  0  0  0  0  0  0  0  0  0  0  0  0  # atno 6001 bound_to 3171
   14.2854    9.8816   10.1601 LP  0  0  0  0  0  0  0  0  0  0  0  0  # atno 6004 bound_to 5270
   13.6417   10.2346    8.7015 LP  0  0  0  0  0  0  0  0  0  0  0  0  # atno 6005 bound_to 5270
   11.0018   18.9852    7.3780 LP  0  0  0  0  0  0  0  0  0  0  0  0  # atno 6055 bound_to 637 
   10.8763   19.7312    8.8252 LP  0  0  0  0  0  0  0  0  0  0  0  0  # atno 6056 bound_to 637 
    0.5759   11.4198   11.0831 LP  0  0  0  0  0  0  0  0  0  0  0  0  # atno 6063 bound_to 1878
    1.9174   12.2336   10.6305 LP  0  0  0  0  0  0  0  0  0  0  0  0  # atno 6064 bound_to 1878
   -6.5050   16.8399   -1.4808 LP  0  0  0  0  0  0  0  0  0  0  0  0  # atno 6067 bound_to 957 
   -7.1777   16.6332   -0.0072 LP  0  0  0  0  0  0  0  0  0  0  0  0  # atno 6068 bound_to 957 

>  <STRIFE_LigEff_Score>  (121) 
2.8707000000000003

$$$$
unknown|pharmsElabsTestPreDocking|sdf|96|dock2
     RDKit          3D

 17 17  0  0  0  0  0  0  0  0999 V2000
    4.1206    9.2082    5.2039 C   0  0  0  0  0  0  0  0  0  0  0  0
    5.1223    9.4256    4.1094 C   0  0  0  0  0  0  0  0  0  0  0  0
    4.8902    9.0984    2.8224 C   0  0  0  0  0  0  0  0  0  0  0  0
    3.5746    8.5062    2.3818 C   0  0  0  0  0  0  0  0  0  0  0  0
    5.9543    9.3562    1.7873 C   0  0  0  0  0  0  0  0  0  0  0  0
    7.2177    8.7681    2.2120 N   0  0  0  0  0  0  0  0  0  0  0  0
    8.0561    9.3664    3.2074 C   0  0  0  0  0  0  0  0  0  0  0  0
    7.6775   10.4024    3.8240 O   0  0  0  0  0  0  0  0  0  0  0  0
    9.3773    8.7237    3.5301 C   0  0  0  0  0  0  0  0  0  0  0  0
    9.5992    7.4626    2.6729 C   0  0  0  0  0  0  0  0  0  0  0  0
   10.9787    6.8432    2.9573 C   0  0  0  0  0  0  0  0  0  0  0  0
   12.0507    7.9034    2.6464 C   0  0  0  0  0  0  0  0  0  0  0  0
   13.5158    7.4328    2.4093 C   0  0  0  0  0  0  0  0  0  0  0  0
   14.6106    8.2392    3.0865 C   0  0  0  0  0  0  0  0  0  0  0  0
   13.8479    6.9257    1.0839 N   0  0  0  0  0  0  0  0  0  0  0  0
   11.8943    9.0934    3.6090 C   0  0  0  0  0  0  0  0  0  0  0  0
   10.5214    9.7475    3.3948 C   0  0  0  0  0  0  0  0  0  0  0  0
  1  2  1  0
  2  3  2  0
  3  4  1  0
  3  5  1  0
  5  6  1  0
  6  7  1  0
  7  8  2  0
  7  9  1  0
  9 10  1  0
 10 11  1  0
 11 12  1  0
 12 13  1  0
 13 14  1  0
 13 15  1  0
 12 16  1  0
 16 17  1  0
 17  9  1  0
M  CHG  1  15   1
M  END
>  <EmbedRMS>  (122) 
0.18776451975379213

>  <Gold.Version>  (122) 
2020.3.0

>  <Gold.Id.Protein>  (122) 
unknown|1q8t_protein|pdb

>  <Gold.PLP.Fitness>  (122) 
49.1707

>  <Gold.PLP.PLP>  (122) 
-39.1724

>  <Gold.PLP.part.hbond>  (122) 
-3.0000

>  <Gold.PLP.part.metal>  (122) 
0.0000

>  <Gold.PLP.part.buried>  (122) 
0.8314

>  <Gold.PLP.part.nonpolar>  (122) 
-38.0270

>  <Gold.PLP.part.repulsive>  (122) 
0.0714

>  <Gold.PLP.ligand.clash>  (122) 
0.0000

>  <Gold.PLP.ligand.torsion>  (122) 
1.2256

>  <Gold.PLP.Chemscore.Hbond>  (122) 
4.0000

>  <Gold.PLP.Chemscore.CHOScore>  (122) 
0.0000

>  <Gold.PLP.Chemscore.Metal>  (122) 
0.0000

>  <Gold.Chemscore.Hbonds>  (122) 
donor molecule, donor type, donor heavy atom, donor atom, acceptor molecule, acceptor atom, score
      L1  H     6    27       P1  2887  1.00
      L1  H    15    38       P1  2691  1.00
      L1  H    15    40       P1  2902  2.00

>  <Gold.PLP.Chemscore.Internal.Correction>  (122) 
0.4495

>  <Gold.PLP.Constraint>  (122) 
-0.0000

>  <Gold.Protein.RotatedTorsions>  (122) 
[  681  677  676  673 ] final -177.35 input -179.99 | X-H torsion
[  702  698  697  694 ] final -148.32 input  179.99 | X-H torsion
[ 2577 2569 2568 2566 ] final  -73.66 input   -0.13 | X-H torsion
[ 2891 2887 2886 2883 ] final  -80.71 input  179.98 | X-H torsion
[ 3175 3171 3170 3167 ] final -108.33 input -179.99 | X-H torsion
[ 5278 5270 5269 5267 ] final -102.08 input    0.55 | X-H torsion
[  641  637  636  633 ] final   83.63 input  179.99 | X-H torsion
[ 1886 1878 1877 1875 ] final    7.41 input    1.60 | X-H torsion
[  965  957  956  954 ] final -119.56 input    0.45 | X-H torsion

>  <Gold.Protein.ActiveResidues>  (122) 
 LYS47   THR48   LEU49   GLY50   THR51   GLY52   SER53   PHE54   GLY55   ARG56  
 VAL57   MET58   LEU59   TYR69   ALA70   MET71   LYS72   ILE73   LEU74   GLU91  
 LEU95   VAL104  LYS105  MET118  VAL119  MET120  GLU121  TYR122  VAL123  PRO124 
 GLY125  GLY126  GLU127  MET128  PHE129  TYR164  ASP166  LEU167  LYS168  PRO169 
 GLU170  ASN171  LEU172  LEU173  ILE174  GLN181  VAL182  THR183  ASP184  PHE185 
 GLY186  PHE187  GLY200  THR201  ASN326  PHE327  TYR330  ARG18   ARG19   ASN20  
 ALA21   ILE22   HIS23  

>  <Gold.Protein.RotatedAtoms>  (122) 
   10.2262   19.7504    8.8281 H   0  0  0  0  0  0  0  0  0  0  0  0  # atno 641  bound_to 637 
   16.9669   13.9219    7.0492 H   0  0  0  0  0  0  0  0  0  0  0  0  # atno 681  bound_to 677 
   21.1149   11.5483   -1.1638 H   0  0  0  0  0  0  0  0  0  0  0  0  # atno 702  bound_to 698 
   -6.5349   16.8936   -1.3746 H   0  0  0  0  0  0  0  0  0  0  0  0  # atno 965  bound_to 957 
    2.2516   11.4296   10.3270 H   0  0  0  0  0  0  0  0  0  0  0  0  # atno 1886 bound_to 1878
   10.8187    3.1701   -3.2238 H   0  0  0  0  0  0  0  0  0  0  0  0  # atno 2577 bound_to 2569
    7.3171    5.3503    1.2256 H   0  0  0  0  0  0  0  0  0  0  0  0  # atno 2891 bound_to 2887
   18.9954    2.8411    0.2261 H   0  0  0  0  0  0  0  0  0  0  0  0  # atno 3175 bound_to 3171
   13.9361    9.8382   10.3907 H   0  0  0  0  0  0  0  0  0  0  0  0  # atno 5278 bound_to 5270
   16.7249   12.7199    6.0331 LP  0  0  0  0  0  0  0  0  0  0  0  0  # atno 5914 bound_to 677 
   15.5912   13.1245    7.1366 LP  0  0  0  0  0  0  0  0  0  0  0  0  # atno 5915 bound_to 677 
   19.7427   11.7896   -1.9361 LP  0  0  0  0  0  0  0  0  0  0  0  0  # atno 5920 bound_to 698 
   19.7890   11.7499   -0.3043 LP  0  0  0  0  0  0  0  0  0  0  0  0  # atno 5921 bound_to 698 
   10.4079    1.9019   -2.3530 LP  0  0  0  0  0  0  0  0  0  0  0  0  # atno 5950 bound_to 2569
    9.2714    2.8245   -3.0769 LP  0  0  0  0  0  0  0  0  0  0  0  0  # atno 5951 bound_to 2569
    7.6132    6.9141    1.2827 LP  0  0  0  0  0  0  0  0  0  0  0  0  # atno 5982 bound_to 2887
    8.3607    5.9599    0.1884 LP  0  0  0  0  0  0  0  0  0  0  0  0  # atno 5983 bound_to 2887
   17.8738    1.9424   -0.4595 LP  0  0  0  0  0  0  0  0  0  0  0  0  # atno 6000 bound_to 3171
   19.0235    2.6763   -1.3574 LP  0  0  0  0  0  0  0  0  0  0  0  0  # atno 6001 bound_to 3171
   14.0447   10.2036    8.8443 LP  0  0  0  0  0  0  0  0  0  0  0  0  # atno 6004 bound_to 5270
   12.5890   10.0122    9.5589 LP  0  0  0  0  0  0  0  0  0  0  0  0  # atno 6005 bound_to 5270
    9.8124   19.0845    7.4424 LP  0  0  0  0  0  0  0  0  0  0  0  0  # atno 6055 bound_to 637 
   11.3822   19.2164    7.8724 LP  0  0  0  0  0  0  0  0  0  0  0  0  # atno 6056 bound_to 637 
    0.9587   10.6166   10.7773 LP  0  0  0  0  0  0  0  0  0  0  0  0  # atno 6063 bound_to 1878
    1.0563   12.2301   11.0095 LP  0  0  0  0  0  0  0  0  0  0  0  0  # atno 6064 bound_to 1878
   -7.1942   16.5246    0.0269 LP  0  0  0  0  0  0  0  0  0  0  0  0  # atno 6067 bound_to 957 
   -6.7313   15.3551   -1.0147 LP  0  0  0  0  0  0  0  0  0  0  0  0  # atno 6068 bound_to 957 

>  <STRIFE_LigEff_Score>  (122) 
2.8923941176470587

$$$$
unknown|pharmsElabsTestPreDocking|sdf|97|dock6
     RDKit          3D

 19 20  0  0  0  0  0  0  0  0999 V2000
   14.7242    8.7724    2.2275 C   0  0  0  0  0  0  0  0  0  0  0  0
   13.7117    7.6765    1.9406 C   0  0  0  0  0  0  0  0  0  0  0  0
   14.0837    6.7672    0.8619 N   0  0  0  0  0  0  0  0  0  0  0  0
   12.2037    8.0542    2.0725 C   0  0  0  0  0  0  0  0  0  0  0  0
   11.1872    6.9097    2.2089 C   0  0  0  0  0  0  0  0  0  0  0  0
    9.7506    7.4059    1.9444 C   0  0  0  0  0  0  0  0  0  0  0  0
    9.5376    8.8982    2.2125 C   0  0  0  0  0  0  0  0  0  0  0  0
    8.1117    9.3581    2.1285 C   0  0  0  0  0  0  0  0  0  0  0  0
    7.5086    9.0359    1.0744 O   0  0  0  0  0  0  0  0  0  0  0  0
    7.4152   10.1368    3.1162 N   0  0  0  0  0  0  0  0  0  0  0  0
    6.0496   10.5906    2.8120 C   0  0  0  0  0  0  0  0  0  0  0  0
    5.0415    9.9829    3.7334 C   0  0  0  0  0  0  0  0  0  0  0  0
    5.0778   10.1285    5.0718 N   0  0  0  0  0  0  0  0  0  0  0  0
    3.9743    9.4535    5.4634 C   0  0  0  0  0  0  0  0  0  0  0  0
    3.2960    8.9243    4.4254 N   0  0  0  0  0  0  0  0  0  0  0  0
    3.9720    9.2667    3.3449 N   0  0  0  0  0  0  0  0  0  0  0  0
    3.5977    8.8912    1.9869 C   0  0  0  0  0  0  0  0  0  0  0  0
   10.4736    9.6566    3.1395 C   0  0  0  0  0  0  0  0  0  0  0  0
   11.9235    9.1261    3.1457 C   0  0  0  0  0  0  0  0  0  0  0  0
  1  2  1  0
  2  3  1  0
  2  4  1  0
  4  5  1  0
  5  6  1  0
  6  7  1  0
  7  8  1  0
  8  9  2  0
  8 10  1  0
 10 11  1  0
 11 12  1  0
 12 13  2  0
 13 14  1  0
 14 15  2  0
 15 16  1  0
 16 17  1  0
  7 18  1  0
 18 19  1  0
 19  4  1  0
 16 12  1  0
M  CHG  1   3   1
M  END
>  <EmbedRMS>  (123) 
0.24309368491659913

>  <Gold.Version>  (123) 
2020.3.0

>  <Gold.Id.Protein>  (123) 
unknown|1q8t_protein|pdb

>  <Gold.PLP.Fitness>  (123) 
53.6902

>  <Gold.PLP.PLP>  (123) 
-37.4849

>  <Gold.PLP.part.hbond>  (123) 
-4.0000

>  <Gold.PLP.part.metal>  (123) 
0.0000

>  <Gold.PLP.part.buried>  (123) 
1.8853

>  <Gold.PLP.part.nonpolar>  (123) 
-36.6369

>  <Gold.PLP.part.repulsive>  (123) 
0.2505

>  <Gold.PLP.ligand.clash>  (123) 
0.0000

>  <Gold.PLP.ligand.torsion>  (123) 
0.6741

>  <Gold.PLP.Chemscore.Hbond>  (123) 
4.6690

>  <Gold.PLP.Chemscore.CHOScore>  (123) 
0.8475

>  <Gold.PLP.Chemscore.Metal>  (123) 
0.0000

>  <Gold.Chemscore.Hbonds>  (123) 
donor molecule, donor type, donor heavy atom, donor atom, acceptor molecule, acceptor atom, score
      L1  H     3    25       P1  2902  2.00
      L1  H     3    26       P1  2691  0.99
      P1  H  2887  2891       L1     9  0.90
      P1  H  1888  1903       L1    15  0.77
      L1  C    14    36       P1  1891  0.85

>  <Gold.PLP.Chemscore.Internal.Correction>  (123) 
1.0041

>  <Gold.PLP.Constraint>  (123) 
-0.0000

>  <Gold.Protein.RotatedTorsions>  (123) 
[  681  677  676  673 ] final   18.89 input -179.99 | X-H torsion
[  702  698  697  694 ] final -166.90 input  179.99 | X-H torsion
[ 2577 2569 2568 2566 ] final   76.03 input   -0.13 | X-H torsion
[ 2891 2887 2886 2883 ] final  142.30 input  179.98 | X-H torsion
[ 3175 3171 3170 3167 ] final  148.38 input -179.99 | X-H torsion
[ 5278 5270 5269 5267 ] final -158.73 input    0.55 | X-H torsion
[  641  637  636  633 ] final   48.71 input  179.99 | X-H torsion
[ 1886 1878 1877 1875 ] final  143.85 input    1.60 | X-H torsion
[  965  957  956  954 ] final  120.06 input    0.45 | X-H torsion

>  <Gold.Protein.ActiveResidues>  (123) 
 LYS47   THR48   LEU49   GLY50   THR51   GLY52   SER53   PHE54   GLY55   ARG56  
 VAL57   MET58   LEU59   TYR69   ALA70   MET71   LYS72   ILE73   LEU74   GLU91  
 LEU95   VAL104  LYS105  MET118  VAL119  MET120  GLU121  TYR122  VAL123  PRO124 
 GLY125  GLY126  GLU127  MET128  PHE129  TYR164  ASP166  LEU167  LYS168  PRO169 
 GLU170  ASN171  LEU172  LEU173  ILE174  GLN181  VAL182  THR183  ASP184  PHE185 
 GLY186  PHE187  GLY200  THR201  ASN326  PHE327  TYR330  ARG18   ARG19   ASN20  
 ALA21   ILE22   HIS23  

>  <Gold.Protein.RotatedAtoms>  (123) 
    9.7772   19.6365    8.5560 H   0  0  0  0  0  0  0  0  0  0  0  0  # atno 641  bound_to 637 
   16.0934   12.5897    6.2696 H   0  0  0  0  0  0  0  0  0  0  0  0  # atno 681  bound_to 677 
   21.0608   11.5634   -1.4478 H   0  0  0  0  0  0  0  0  0  0  0  0  # atno 702  bound_to 698 
   -7.1612   16.5058   -0.0066 H   0  0  0  0  0  0  0  0  0  0  0  0  # atno 965  bound_to 957 
    0.8750   12.0352   11.0372 H   0  0  0  0  0  0  0  0  0  0  0  0  # atno 1886 bound_to 1878
    9.3103    2.4289   -2.8197 H   0  0  0  0  0  0  0  0  0  0  0  0  # atno 2577 bound_to 2569
    7.7833    6.9429    1.0673 H   0  0  0  0  0  0  0  0  0  0  0  0  # atno 2891 bound_to 2887
   17.9494    2.0096   -0.2074 H   0  0  0  0  0  0  0  0  0  0  0  0  # atno 3175 bound_to 3171
   14.4206   10.0103    9.7136 H   0  0  0  0  0  0  0  0  0  0  0  0  # atno 5278 bound_to 5270
   15.9372   13.6523    7.4454 LP  0  0  0  0  0  0  0  0  0  0  0  0  # atno 5914 bound_to 677 
   17.2981   13.5942    6.5448 LP  0  0  0  0  0  0  0  0  0  0  0  0  # atno 5915 bound_to 677 
   19.5163   11.8259   -1.7359 LP  0  0  0  0  0  0  0  0  0  0  0  0  # atno 5920 bound_to 698 
   20.0724   11.6978   -0.2058 LP  0  0  0  0  0  0  0  0  0  0  0  0  # atno 5921 bound_to 698 
   10.4381    3.3978   -3.3894 LP  0  0  0  0  0  0  0  0  0  0  0  0  # atno 5950 bound_to 2569
   10.8295    2.1091   -2.4659 LP  0  0  0  0  0  0  0  0  0  0  0  0  # atno 5951 bound_to 2569
    8.2828    5.6938    0.2149 LP  0  0  0  0  0  0  0  0  0  0  0  0  # atno 5982 bound_to 2887
    7.2006    5.5041    1.4229 LP  0  0  0  0  0  0  0  0  0  0  0  0  # atno 5983 bound_to 2887
   18.8194    2.5141   -1.4420 LP  0  0  0  0  0  0  0  0  0  0  0  0  # atno 6000 bound_to 3171
   19.1787    2.9797    0.0814 LP  0  0  0  0  0  0  0  0  0  0  0  0  # atno 6001 bound_to 3171
   13.1532   10.2126    8.7703 LP  0  0  0  0  0  0  0  0  0  0  0  0  # atno 6004 bound_to 5270
   12.9707    9.8222   10.3454 LP  0  0  0  0  0  0  0  0  0  0  0  0  # atno 6005 bound_to 5270
   10.3167   18.9462    7.2266 LP  0  0  0  0  0  0  0  0  0  0  0  0  # atno 6055 bound_to 637 
   11.3507   19.4746    8.3747 LP  0  0  0  0  0  0  0  0  0  0  0  0  # atno 6056 bound_to 637 
    2.2824   11.6907   10.3770 LP  0  0  0  0  0  0  0  0  0  0  0  0  # atno 6063 bound_to 1878
    1.1818   10.5185   10.6622 LP  0  0  0  0  0  0  0  0  0  0  0  0  # atno 6064 bound_to 1878
   -6.7287   15.3567   -1.0203 LP  0  0  0  0  0  0  0  0  0  0  0  0  # atno 6067 bound_to 957 
   -6.5372   16.9313   -1.4083 LP  0  0  0  0  0  0  0  0  0  0  0  0  # atno 6068 bound_to 957 

>  <STRIFE_LigEff_Score>  (123) 
2.8257999999999996

$$$$
unknown|pharmsElabsTestPreDocking|sdf|98|dock10
     RDKit          3D

 18 19  0  0  0  0  0  0  0  0999 V2000
   14.4199    9.4407    1.1167 C   0  0  0  0  0  0  0  0  0  0  0  0
   13.6452    8.2054    1.5439 C   0  0  0  0  0  0  0  0  0  0  0  0
   13.9592    6.9955    0.7919 N   0  0  0  0  0  0  0  0  0  0  0  0
   12.1614    8.4157    1.9748 C   0  0  0  0  0  0  0  0  0  0  0  0
   11.4945    7.3098    2.8077 C   0  0  0  0  0  0  0  0  0  0  0  0
    9.9624    7.4742    2.8225 C   0  0  0  0  0  0  0  0  0  0  0  0
    9.4823    8.9110    2.6027 C   0  0  0  0  0  0  0  0  0  0  0  0
    8.0060    9.1043    2.7594 C   0  0  0  0  0  0  0  0  0  0  0  0
    7.4376    9.4533    1.7019 O   0  0  0  0  0  0  0  0  0  0  0  0
    7.2428    8.9214    3.9745 N   0  0  0  0  0  0  0  0  0  0  0  0
    5.8268    9.2426    4.1163 C   0  0  0  0  0  0  0  0  0  0  0  0
    4.9479    8.9684    3.0508 C   0  0  0  0  0  0  0  0  0  0  0  0
    3.5788    9.2527    3.1578 C   0  0  0  0  0  0  0  0  0  0  0  0
    3.0656    9.8231    4.3234 C   0  0  0  0  0  0  0  0  0  0  0  0
    3.9128   10.1007    5.3881 C   0  0  0  0  0  0  0  0  0  0  0  0
    5.2691    9.8048    5.2978 C   0  0  0  0  0  0  0  0  0  0  0  0
   10.3982   10.0895    2.8738 C   0  0  0  0  0  0  0  0  0  0  0  0
   11.8922    9.7900    2.6251 C   0  0  0  0  0  0  0  0  0  0  0  0
  1  2  1  0
  2  3  1  0
  2  4  1  0
  4  5  1  0
  5  6  1  0
  6  7  1  0
  7  8  1  0
  8  9  2  0
  8 10  1  0
 10 11  1  0
 11 12  2  0
 12 13  1  0
 13 14  2  0
 14 15  1  0
 15 16  2  0
  7 17  1  0
 17 18  1  0
 18  4  1  0
 16 11  1  0
M  CHG  1   3   1
M  END
>  <EmbedRMS>  (124) 
0.24964892458419108

>  <Gold.Version>  (124) 
2020.3.0

>  <Gold.Id.Protein>  (124) 
unknown|1q8t_protein|pdb

>  <Gold.PLP.Fitness>  (124) 
55.8268

>  <Gold.PLP.PLP>  (124) 
-47.8505

>  <Gold.PLP.part.hbond>  (124) 
-2.0000

>  <Gold.PLP.part.metal>  (124) 
0.0000

>  <Gold.PLP.part.buried>  (124) 
-1.1395

>  <Gold.PLP.part.nonpolar>  (124) 
-45.0571

>  <Gold.PLP.part.repulsive>  (124) 
0.0765

>  <Gold.PLP.ligand.clash>  (124) 
0.0000

>  <Gold.PLP.ligand.torsion>  (124) 
0.9545

>  <Gold.PLP.Chemscore.Hbond>  (124) 
2.9840

>  <Gold.PLP.Chemscore.CHOScore>  (124) 
0.0000

>  <Gold.PLP.Chemscore.Metal>  (124) 
0.0000

>  <Gold.Chemscore.Hbonds>  (124) 
donor molecule, donor type, donor heavy atom, donor atom, acceptor molecule, acceptor atom, score
      L1  H     3    24       P1  2902  1.98
      L1  H     3    25       P1  2691  1.00

>  <Gold.PLP.Chemscore.Internal.Correction>  (124) 
0.9332

>  <Gold.PLP.Constraint>  (124) 
-0.0000

>  <Gold.Protein.RotatedTorsions>  (124) 
[  681  677  676  673 ] final   25.44 input -179.99 | X-H torsion
[  702  698  697  694 ] final   77.10 input  179.99 | X-H torsion
[ 2577 2569 2568 2566 ] final  179.47 input   -0.13 | X-H torsion
[ 2891 2887 2886 2883 ] final  -53.41 input  179.98 | X-H torsion
[ 3175 3171 3170 3167 ] final  -62.68 input -179.99 | X-H torsion
[ 5278 5270 5269 5267 ] final  139.40 input    0.55 | X-H torsion
[  641  637  636  633 ] final  -48.35 input  179.99 | X-H torsion
[ 1886 1878 1877 1875 ] final -144.92 input    1.60 | X-H torsion
[  965  957  956  954 ] final  146.25 input    0.45 | X-H torsion

>  <Gold.Protein.ActiveResidues>  (124) 
 LYS47   THR48   LEU49   GLY50   THR51   GLY52   SER53   PHE54   GLY55   ARG56  
 VAL57   MET58   LEU59   TYR69   ALA70   MET71   LYS72   ILE73   LEU74   GLU91  
 LEU95   VAL104  LYS105  MET118  VAL119  MET120  GLU121  TYR122  VAL123  PRO124 
 GLY125  GLY126  GLU127  MET128  PHE129  TYR164  ASP166  LEU167  LYS168  PRO169 
 GLU170  ASN171  LEU172  LEU173  ILE174  GLN181  VAL182  THR183  ASP184  PHE185 
 GLY186  PHE187  GLY200  THR201  ASN326  PHE327  TYR330  ARG18   ARG19   ASN20  
 ALA21   ILE22   HIS23  

>  <Gold.Protein.RotatedAtoms>  (124) 
    9.9911   19.0247    7.3813 H   0  0  0  0  0  0  0  0  0  0  0  0  # atno 641  bound_to 637 
   16.1808   12.5905    6.2163 H   0  0  0  0  0  0  0  0  0  0  0  0  # atno 681  bound_to 677 
   19.5954   11.8290   -1.7527 H   0  0  0  0  0  0  0  0  0  0  0  0  # atno 702  bound_to 698 
   -7.0783   16.8626   -0.1813 H   0  0  0  0  0  0  0  0  0  0  0  0  # atno 965  bound_to 957 
    0.6814   11.0143   10.9485 H   0  0  0  0  0  0  0  0  0  0  0  0  # atno 1886 bound_to 1878
   10.5883    1.9959   -2.4254 H   0  0  0  0  0  0  0  0  0  0  0  0  # atno 2577 bound_to 2569
    7.5532    5.1897    0.9137 H   0  0  0  0  0  0  0  0  0  0  0  0  # atno 2891 bound_to 2887
   19.3405    3.0214   -0.3495 H   0  0  0  0  0  0  0  0  0  0  0  0  # atno 3175 bound_to 3171
   14.0383   10.2073    8.8989 H   0  0  0  0  0  0  0  0  0  0  0  0  # atno 5278 bound_to 5270
   15.8604   13.5805    7.4219 LP  0  0  0  0  0  0  0  0  0  0  0  0  # atno 5914 bound_to 677 
   17.2830   13.6651    6.6245 LP  0  0  0  0  0  0  0  0  0  0  0  0  # atno 5915 bound_to 677 
   20.0089   11.7093   -0.2190 LP  0  0  0  0  0  0  0  0  0  0  0  0  # atno 5920 bound_to 698 
   21.1211   11.5350   -1.4019 LP  0  0  0  0  0  0  0  0  0  0  0  0  # atno 5921 bound_to 698 
    9.2369    2.6486   -2.9573 LP  0  0  0  0  0  0  0  0  0  0  0  0  # atno 5950 bound_to 2569
   10.6850    3.3141   -3.3132 LP  0  0  0  0  0  0  0  0  0  0  0  0  # atno 5951 bound_to 2569
    7.3506    6.6471    1.5230 LP  0  0  0  0  0  0  0  0  0  0  0  0  # atno 5982 bound_to 2887
    8.3749    6.3959    0.2764 LP  0  0  0  0  0  0  0  0  0  0  0  0  # atno 5983 bound_to 2887
   18.0944    2.1911    0.1921 LP  0  0  0  0  0  0  0  0  0  0  0  0  # atno 6000 bound_to 3171
   18.4397    2.2379   -1.4032 LP  0  0  0  0  0  0  0  0  0  0  0  0  # atno 6001 bound_to 3171
   12.5906   10.0180    9.5353 LP  0  0  0  0  0  0  0  0  0  0  0  0  # atno 6004 bound_to 5270
   13.9355    9.8095   10.4377 LP  0  0  0  0  0  0  0  0  0  0  0  0  # atno 6005 bound_to 5270
   11.4105   19.3037    8.0464 LP  0  0  0  0  0  0  0  0  0  0  0  0  # atno 6055 bound_to 637 
   10.0317   19.7615    8.7921 LP  0  0  0  0  0  0  0  0  0  0  0  0  # atno 6056 bound_to 637 
    1.5302   12.3554   10.8219 LP  0  0  0  0  0  0  0  0  0  0  0  0  # atno 6063 bound_to 1878
    2.1378   10.9285   10.3107 LP  0  0  0  0  0  0  0  0  0  0  0  0  # atno 6064 bound_to 1878
   -6.9058   15.3452   -0.6316 LP  0  0  0  0  0  0  0  0  0  0  0  0  # atno 6067 bound_to 957 
   -6.4475   16.5672   -1.6130 LP  0  0  0  0  0  0  0  0  0  0  0  0  # atno 6068 bound_to 957 

>  <STRIFE_LigEff_Score>  (124) 
3.101488888888889

$$$$
unknown|pharmsElabsTestPreDocking|sdf|99|dock6
     RDKit          3D

 17 17  0  0  0  0  0  0  0  0999 V2000
   14.6966    9.1483    1.3506 C   0  0  0  0  0  0  0  0  0  0  0  0
   13.8110    7.9632    1.6964 C   0  0  0  0  0  0  0  0  0  0  0  0
   14.0484    6.7677    0.8944 N   0  0  0  0  0  0  0  0  0  0  0  0
   12.3363    8.2755    2.0997 C   0  0  0  0  0  0  0  0  0  0  0  0
   11.6145    7.2710    3.0116 C   0  0  0  0  0  0  0  0  0  0  0  0
   10.0898    7.5076    3.0053 C   0  0  0  0  0  0  0  0  0  0  0  0
    9.6726    8.9399    2.6596 C   0  0  0  0  0  0  0  0  0  0  0  0
    8.2075    9.2301    2.8209 C   0  0  0  0  0  0  0  0  0  0  0  0
    7.9341   10.2491    3.5018 O   0  0  0  0  0  0  0  0  0  0  0  0
    7.1262    8.4456    2.2996 N   0  0  0  0  0  0  0  0  0  0  0  0
    5.8114    8.8125    2.6564 N   0  0  0  0  0  0  0  0  0  0  0  0
    5.4645    9.0977    3.8728 C   0  0  0  0  0  0  0  0  0  0  0  0
    4.1113    9.4759    4.1883 N   0  0  0  0  0  0  0  0  0  0  0  0
    3.7061    9.7999    5.5545 C   0  0  0  0  0  0  0  0  0  0  0  0
    3.1506    9.5334    3.1653 N   0  0  0  0  0  0  0  0  0  0  0  0
   10.6482   10.0920    2.8414 C   0  0  0  0  0  0  0  0  0  0  0  0
   12.1294    9.7055    2.6395 C   0  0  0  0  0  0  0  0  0  0  0  0
  1  2  1  0
  2  3  1  0
  2  4  1  0
  4  5  1  0
  5  6  1  0
  6  7  1  0
  7  8  1  0
  8  9  2  0
  8 10  1  0
 10 11  1  0
 11 12  2  0
 12 13  1  0
 13 14  1  0
 13 15  1  0
  7 16  1  0
 16 17  1  0
 17  4  1  0
M  CHG  1   3   1
M  END
>  <EmbedRMS>  (125) 
0.2570984896337683

>  <Gold.Version>  (125) 
2020.3.0

>  <Gold.Id.Protein>  (125) 
unknown|1q8t_protein|pdb

>  <Gold.PLP.Fitness>  (125) 
46.5826

>  <Gold.PLP.PLP>  (125) 
-35.8954

>  <Gold.PLP.part.hbond>  (125) 
-3.5625

>  <Gold.PLP.part.metal>  (125) 
0.0000

>  <Gold.PLP.part.buried>  (125) 
-4.5538

>  <Gold.PLP.part.nonpolar>  (125) 
-29.5704

>  <Gold.PLP.part.repulsive>  (125) 
0.0951

>  <Gold.PLP.ligand.clash>  (125) 
0.0000

>  <Gold.PLP.ligand.torsion>  (125) 
1.0439

>  <Gold.PLP.Chemscore.Hbond>  (125) 
3.9260

>  <Gold.PLP.Chemscore.CHOScore>  (125) 
0.0000

>  <Gold.PLP.Chemscore.Metal>  (125) 
0.0000

>  <Gold.Chemscore.Hbonds>  (125) 
donor molecule, donor type, donor heavy atom, donor atom, acceptor molecule, acceptor atom, score
      L1  H     3    23       P1  2902  2.00
      L1  H     3    24       P1  2691  0.98
      L1  H    10    31       P1  2887  0.95

>  <Gold.PLP.Chemscore.Internal.Correction>  (125) 
0.9970

>  <Gold.PLP.Constraint>  (125) 
-0.0000

>  <Gold.Protein.RotatedTorsions>  (125) 
[  681  677  676  673 ] final  -58.84 input -179.99 | X-H torsion
[  702  698  697  694 ] final -104.79 input  179.99 | X-H torsion
[ 2577 2569 2568 2566 ] final -157.95 input   -0.13 | X-H torsion
[ 2891 2887 2886 2883 ] final  -14.67 input  179.98 | X-H torsion
[ 3175 3171 3170 3167 ] final  -73.83 input -179.99 | X-H torsion
[ 5278 5270 5269 5267 ] final  155.78 input    0.55 | X-H torsion
[  641  637  636  633 ] final  130.73 input  179.99 | X-H torsion
[ 1886 1878 1877 1875 ] final   57.43 input    1.60 | X-H torsion
[  965  957  956  954 ] final   -2.91 input    0.45 | X-H torsion

>  <Gold.Protein.ActiveResidues>  (125) 
 LYS47   THR48   LEU49   GLY50   THR51   GLY52   SER53   PHE54   GLY55   ARG56  
 VAL57   MET58   LEU59   TYR69   ALA70   MET71   LYS72   ILE73   LEU74   GLU91  
 LEU95   VAL104  LYS105  MET118  VAL119  MET120  GLU121  TYR122  VAL123  PRO124 
 GLY125  GLY126  GLU127  MET128  PHE129  TYR164  ASP166  LEU167  LYS168  PRO169 
 GLU170  ASN171  LEU172  LEU173  ILE174  GLN181  VAL182  THR183  ASP184  PHE185 
 GLY186  PHE187  GLY200  THR201  ASN326  PHE327  TYR330  ARG18   ARG19   ASN20  
 ALA21   ILE22   HIS23  

>  <Gold.Protein.RotatedAtoms>  (125) 
   10.9342   19.6748    8.7575 H   0  0  0  0  0  0  0  0  0  0  0  0  # atno 641  bound_to 637 
   15.6310   13.1596    7.1211 H   0  0  0  0  0  0  0  0  0  0  0  0  # atno 681  bound_to 677 
   20.8898   11.5762   -0.5391 H   0  0  0  0  0  0  0  0  0  0  0  0  # atno 702  bound_to 698 
   -6.6999   15.4154   -1.0430 H   0  0  0  0  0  0  0  0  0  0  0  0  # atno 965  bound_to 957 
    1.9996   12.1068   10.5536 H   0  0  0  0  0  0  0  0  0  0  0  0  # atno 1886 bound_to 1878
   10.8618    2.1851   -2.5367 H   0  0  0  0  0  0  0  0  0  0  0  0  # atno 2577 bound_to 2569
    7.9478    5.2958    0.4821 H   0  0  0  0  0  0  0  0  0  0  0  0  # atno 2891 bound_to 2887
   19.2907    3.0062   -0.1834 H   0  0  0  0  0  0  0  0  0  0  0  0  # atno 3175 bound_to 3171
   14.2258   10.1676    9.0675 H   0  0  0  0  0  0  0  0  0  0  0  0  # atno 5278 bound_to 5270
   17.0185   13.9389    7.0598 LP  0  0  0  0  0  0  0  0  0  0  0  0  # atno 5914 bound_to 677 
   16.7036   12.7077    6.0342 LP  0  0  0  0  0  0  0  0  0  0  0  0  # atno 5915 bound_to 677 
   20.4209   11.6718   -2.0584 LP  0  0  0  0  0  0  0  0  0  0  0  0  # atno 5920 bound_to 698 
   19.3475   11.8385   -0.8391 LP  0  0  0  0  0  0  0  0  0  0  0  0  # atno 5921 bound_to 698 
    9.2921    2.3507   -2.7463 LP  0  0  0  0  0  0  0  0  0  0  0  0  # atno 5950 bound_to 2569
   10.3418    3.4129   -3.4070 LP  0  0  0  0  0  0  0  0  0  0  0  0  # atno 5951 bound_to 2569
    7.1446    6.0650    1.6222 LP  0  0  0  0  0  0  0  0  0  0  0  0  # atno 5982 bound_to 2887
    8.1657    6.8664    0.6314 LP  0  0  0  0  0  0  0  0  0  0  0  0  # atno 5983 bound_to 2887
   18.0010    2.1047    0.0603 LP  0  0  0  0  0  0  0  0  0  0  0  0  # atno 6000 bound_to 3171
   18.5855    2.3403   -1.4462 LP  0  0  0  0  0  0  0  0  0  0  0  0  # atno 6001 bound_to 3171
   12.6498   10.0813    9.2811 LP  0  0  0  0  0  0  0  0  0  0  0  0  # atno 6004 bound_to 5270
   13.6791    9.7879   10.5144 LP  0  0  0  0  0  0  0  0  0  0  0  0  # atno 6005 bound_to 5270
    9.5282   19.4144    8.0573 LP  0  0  0  0  0  0  0  0  0  0  0  0  # atno 6055 bound_to 637 
   10.9207   18.9661    7.3318 LP  0  0  0  0  0  0  0  0  0  0  0  0  # atno 6056 bound_to 637 
    1.6815   10.5503   10.4474 LP  0  0  0  0  0  0  0  0  0  0  0  0  # atno 6063 bound_to 1878
    0.5989   11.5835   11.1009 LP  0  0  0  0  0  0  0  0  0  0  0  0  # atno 6064 bound_to 1878
   -6.5515   16.9653   -1.3760 LP  0  0  0  0  0  0  0  0  0  0  0  0  # atno 6067 bound_to 957 
   -7.2002   16.4712    0.0388 LP  0  0  0  0  0  0  0  0  0  0  0  0  # atno 6068 bound_to 957 

>  <STRIFE_LigEff_Score>  (125) 
2.7401529411764707

$$$$
unknown|pharmsElabsTestPreDocking|sdf|126|dock7
     RDKit          3D

 18 19  0  0  0  0  0  0  0  0999 V2000
   14.4055    7.0215    2.7801 C   0  0  0  0  0  0  0  0  0  0  0  0
   13.0391    7.2998    2.1561 C   0  0  0  0  0  0  0  0  0  0  0  0
   13.0953    8.3673    1.1553 N   0  0  0  0  0  0  0  0  0  0  0  0
   11.8130    7.4299    3.0933 C   0  0  0  0  0  0  0  0  0  0  0  0
   10.4778    7.0951    2.4123 C   0  0  0  0  0  0  0  0  0  0  0  0
    9.2223    7.6208    3.0888 C   0  0  0  0  0  0  0  0  0  0  0  0
    9.3881    9.0247    3.6128 C   0  0  0  0  0  0  0  0  0  0  0  0
    8.0979    9.6884    3.9959 C   0  0  0  0  0  0  0  0  0  0  0  0
    7.5540   10.3529    3.0816 O   0  0  0  0  0  0  0  0  0  0  0  0
    7.4678    9.6288    5.2868 N   0  0  0  0  0  0  0  0  0  0  0  0
    6.2449   10.4000    5.5535 C   0  0  0  0  0  0  0  0  0  0  0  0
    5.1104    9.9025    4.7057 C   0  0  0  0  0  0  0  0  0  0  0  0
    3.9291    9.3387    5.1401 C   0  0  0  0  0  0  0  0  0  0  0  0
    3.1486    9.0797    4.0713 N   0  0  0  0  0  0  0  0  0  0  0  0
    3.8775    9.4966    3.0132 C   0  0  0  0  0  0  0  0  0  0  0  0
    5.0717   10.0042    3.3690 N   0  0  0  0  0  0  0  0  0  0  0  0
   10.5765    9.2709    4.5006 C   0  0  0  0  0  0  0  0  0  0  0  0
   11.8770    8.7665    3.8790 C   0  0  0  0  0  0  0  0  0  0  0  0
  1  2  1  0
  2  3  1  0
  2  4  1  0
  4  5  1  0
  5  6  1  0
  6  7  1  0
  7  8  1  0
  8  9  2  0
  8 10  1  0
 10 11  1  0
 11 12  1  0
 12 13  2  0
 13 14  1  0
 14 15  2  0
 15 16  1  0
  7 17  1  0
 17 18  1  0
 18  4  1  0
 16 12  1  0
M  CHG  1   3   1
M  END
>  <EmbedRMS>  (126) 
0.29359866989900446

>  <Gold.Version>  (126) 
2020.3.0

>  <Gold.Id.Protein>  (126) 
unknown|1q8t_protein|pdb

>  <Gold.PLP.Fitness>  (126) 
52.7736

>  <Gold.PLP.PLP>  (126) 
-41.8656

>  <Gold.PLP.part.hbond>  (126) 
-2.0000

>  <Gold.PLP.part.metal>  (126) 
0.0000

>  <Gold.PLP.part.buried>  (126) 
-1.9876

>  <Gold.PLP.part.nonpolar>  (126) 
-38.9017

>  <Gold.PLP.part.repulsive>  (126) 
0.1363

>  <Gold.PLP.ligand.clash>  (126) 
0.0000

>  <Gold.PLP.ligand.torsion>  (126) 
0.6863

>  <Gold.PLP.Chemscore.Hbond>  (126) 
2.8960

>  <Gold.PLP.Chemscore.CHOScore>  (126) 
1.0000

>  <Gold.PLP.Chemscore.Metal>  (126) 
0.0000

>  <Gold.Chemscore.Hbonds>  (126) 
donor molecule, donor type, donor heavy atom, donor atom, acceptor molecule, acceptor atom, score
      L1  H     3    25       P1  2902  2.00
      P1  H  1888  1903       L1    14  0.90
      L1  C    13    35       P1  1891  1.00

>  <Gold.PLP.Chemscore.Internal.Correction>  (126) 
0.5925

>  <Gold.PLP.Constraint>  (126) 
-0.0000

>  <Gold.Protein.RotatedTorsions>  (126) 
[  681  677  676  673 ] final  -68.68 input -179.99 | X-H torsion
[  702  698  697  694 ] final   32.45 input  179.99 | X-H torsion
[ 2577 2569 2568 2566 ] final   95.03 input   -0.13 | X-H torsion
[ 2891 2887 2886 2883 ] final    6.99 input  179.98 | X-H torsion
[ 3175 3171 3170 3167 ] final -151.81 input -179.99 | X-H torsion
[ 5278 5270 5269 5267 ] final   46.90 input    0.55 | X-H torsion
[  641  637  636  633 ] final -131.82 input  179.99 | X-H torsion
[ 1886 1878 1877 1875 ] final   52.76 input    1.60 | X-H torsion
[  965  957  956  954 ] final   79.48 input    0.45 | X-H torsion

>  <Gold.Protein.ActiveResidues>  (126) 
 LYS47   THR48   LEU49   GLY50   THR51   GLY52   SER53   PHE54   GLY55   ARG56  
 VAL57   MET58   LEU59   TYR69   ALA70   MET71   LYS72   ILE73   LEU74   GLU91  
 LEU95   VAL104  LYS105  MET118  VAL119  MET120  GLU121  TYR122  VAL123  PRO124 
 GLY125  GLY126  GLU127  MET128  PHE129  TYR164  ASP166  LEU167  LYS168  PRO169 
 GLU170  ASN171  LEU172  LEU173  ILE174  GLN181  VAL182  THR183  ASP184  PHE185 
 GLY186  PHE187  GLY200  THR201  ASN326  PHE327  TYR330  ARG18   ARG19   ASN20  
 ALA21   ILE22   HIS23  

>  <Gold.Protein.RotatedAtoms>  (126) 
   11.1655   19.0617    7.5821 H   0  0  0  0  0  0  0  0  0  0  0  0  # atno 641  bound_to 637 
   15.6723   13.2767    7.2116 H   0  0  0  0  0  0  0  0  0  0  0  0  # atno 681  bound_to 677 
   19.3503   11.8602   -1.1183 H   0  0  0  0  0  0  0  0  0  0  0  0  # atno 702  bound_to 698 
   -7.1440   15.8871   -0.0575 H   0  0  0  0  0  0  0  0  0  0  0  0  # atno 965  bound_to 957 
    2.0461   12.0584   10.5249 H   0  0  0  0  0  0  0  0  0  0  0  0  # atno 1886 bound_to 1878
    9.4274    2.2101   -2.6592 H   0  0  0  0  0  0  0  0  0  0  0  0  # atno 2577 bound_to 2569
    8.1404    5.5123    0.3109 H   0  0  0  0  0  0  0  0  0  0  0  0  # atno 2891 bound_to 2887
   18.4651    2.4661    0.3614 H   0  0  0  0  0  0  0  0  0  0  0  0  # atno 3175 bound_to 3171
   12.7708   10.1319    9.1507 H   0  0  0  0  0  0  0  0  0  0  0  0  # atno 5278 bound_to 5270
   17.1193   13.8860    6.9449 LP  0  0  0  0  0  0  0  0  0  0  0  0  # atno 5914 bound_to 677 
   16.5594   12.6374    6.0538 LP  0  0  0  0  0  0  0  0  0  0  0  0  # atno 5915 bound_to 677 
   20.7062   11.5878   -0.3279 LP  0  0  0  0  0  0  0  0  0  0  0  0  # atno 5920 bound_to 698 
   20.6816   11.6236   -1.9603 LP  0  0  0  0  0  0  0  0  0  0  0  0  # atno 5921 bound_to 698 
   10.1295    3.4166   -3.4251 LP  0  0  0  0  0  0  0  0  0  0  0  0  # atno 5950 bound_to 2569
   11.0147    2.3206   -2.5992 LP  0  0  0  0  0  0  0  0  0  0  0  0  # atno 5951 bound_to 2569
    7.1464    5.7210    1.5376 LP  0  0  0  0  0  0  0  0  0  0  0  0  # atno 5982 bound_to 2887
    7.9611    6.9825    0.8962 LP  0  0  0  0  0  0  0  0  0  0  0  0  # atno 5983 bound_to 2887
   18.0901    2.0162   -1.1193 LP  0  0  0  0  0  0  0  0  0  0  0  0  # atno 6000 bound_to 3171
   19.3653    2.9973   -0.8400 LP  0  0  0  0  0  0  0  0  0  0  0  0  # atno 6001 bound_to 3171
   13.4967    9.7834   10.5249 LP  0  0  0  0  0  0  0  0  0  0  0  0  # atno 6004 bound_to 5270
   14.3632   10.1234    9.1831 LP  0  0  0  0  0  0  0  0  0  0  0  0  # atno 6005 bound_to 5270
   10.6138   19.7798    8.8917 LP  0  0  0  0  0  0  0  0  0  0  0  0  # atno 6055 bound_to 637 
    9.5915   19.2464    7.7353 LP  0  0  0  0  0  0  0  0  0  0  0  0  # atno 6056 bound_to 637 
    1.6131   10.5270   10.4736 LP  0  0  0  0  0  0  0  0  0  0  0  0  # atno 6063 bound_to 1878
    0.6184   11.6577   11.1049 LP  0  0  0  0  0  0  0  0  0  0  0  0  # atno 6064 bound_to 1878
   -6.5037   15.7313   -1.5069 LP  0  0  0  0  0  0  0  0  0  0  0  0  # atno 6067 bound_to 957 
   -6.7804   17.2084   -0.8681 LP  0  0  0  0  0  0  0  0  0  0  0  0  # atno 6068 bound_to 957 

>  <STRIFE_LigEff_Score>  (126) 
2.9318666666666666

$$$$
unknown|pharmsElabsTestPreDocking|sdf|127|dock4
     RDKit          3D

 17 17  0  0  0  0  0  0  0  0999 V2000
    3.7706   10.0318    5.5674 C   0  0  0  0  0  0  0  0  0  0  0  0
    5.0561    9.8032    5.2883 C   0  0  0  0  0  0  0  0  0  0  0  0
    5.6056    9.4516    3.9560 C   0  0  0  0  0  0  0  0  0  0  0  0
    4.7710    9.3277    2.8957 C   0  0  0  0  0  0  0  0  0  0  0  0
    5.2104    8.9099    1.5255 C   0  0  0  0  0  0  0  0  0  0  0  0
    7.0061    9.1115    3.7924 N   0  0  0  0  0  0  0  0  0  0  0  0
    7.9854    9.4223    2.7734 C   0  0  0  0  0  0  0  0  0  0  0  0
    7.6195   10.1956    1.8511 O   0  0  0  0  0  0  0  0  0  0  0  0
    9.4331    9.0232    2.6825 C   0  0  0  0  0  0  0  0  0  0  0  0
    9.6916    7.5462    2.9281 C   0  0  0  0  0  0  0  0  0  0  0  0
   11.0983    7.1072    2.5771 C   0  0  0  0  0  0  0  0  0  0  0  0
   12.2352    8.1072    2.8107 C   0  0  0  0  0  0  0  0  0  0  0  0
   13.5046    7.7756    1.9876 C   0  0  0  0  0  0  0  0  0  0  0  0
   14.4883    8.9053    1.6824 C   0  0  0  0  0  0  0  0  0  0  0  0
   13.2126    6.9604    0.8075 N   0  0  0  0  0  0  0  0  0  0  0  0
   11.8843    9.6084    2.6626 C   0  0  0  0  0  0  0  0  0  0  0  0
   10.4805   10.0327    3.0724 C   0  0  0  0  0  0  0  0  0  0  0  0
  1  2  2  0
  2  3  1  0
  3  4  2  0
  4  5  1  0
  3  6  1  0
  6  7  1  0
  7  8  2  0
  7  9  1  0
  9 10  1  0
 10 11  1  0
 11 12  1  0
 12 13  1  0
 13 14  1  0
 13 15  1  0
 12 16  1  0
 16 17  1  0
 17  9  1  0
M  CHG  1  15   1
M  END
>  <EmbedRMS>  (127) 
0.29216731409503444

>  <Gold.Version>  (127) 
2020.3.0

>  <Gold.Id.Protein>  (127) 
unknown|1q8t_protein|pdb

>  <Gold.PLP.Fitness>  (127) 
44.3519

>  <Gold.PLP.PLP>  (127) 
-39.2292

>  <Gold.PLP.part.hbond>  (127) 
-1.1653

>  <Gold.PLP.part.metal>  (127) 
0.0000

>  <Gold.PLP.part.buried>  (127) 
-3.4810

>  <Gold.PLP.part.nonpolar>  (127) 
-34.9892

>  <Gold.PLP.part.repulsive>  (127) 
0.0581

>  <Gold.PLP.ligand.clash>  (127) 
0.0000

>  <Gold.PLP.ligand.torsion>  (127) 
1.7099

>  <Gold.PLP.Chemscore.Hbond>  (127) 
2.5308

>  <Gold.PLP.Chemscore.CHOScore>  (127) 
0.0000

>  <Gold.PLP.Chemscore.Metal>  (127) 
0.0000

>  <Gold.Chemscore.Hbonds>  (127) 
donor molecule, donor type, donor heavy atom, donor atom, acceptor molecule, acceptor atom, score
      L1  H    15    36       P1  2691  0.58
      L1  H    15    38       P1  2902  1.95

>  <Gold.PLP.Chemscore.Internal.Correction>  (127) 
0.9502

>  <Gold.PLP.Constraint>  (127) 
-0.0000

>  <Gold.Protein.RotatedTorsions>  (127) 
[  681  677  676  673 ] final  138.82 input -179.99 | X-H torsion
[  702  698  697  694 ] final   63.06 input  179.99 | X-H torsion
[ 2577 2569 2568 2566 ] final  118.21 input   -0.13 | X-H torsion
[ 2891 2887 2886 2883 ] final -126.98 input  179.98 | X-H torsion
[ 3175 3171 3170 3167 ] final  -64.84 input -179.99 | X-H torsion
[ 5278 5270 5269 5267 ] final   57.68 input    0.55 | X-H torsion
[  641  637  636  633 ] final  139.83 input  179.99 | X-H torsion
[ 1886 1878 1877 1875 ] final  141.25 input    1.60 | X-H torsion
[  965  957  956  954 ] final  -58.74 input    0.45 | X-H torsion

>  <Gold.Protein.ActiveResidues>  (127) 
 LYS47   THR48   LEU49   GLY50   THR51   GLY52   SER53   PHE54   GLY55   ARG56  
 VAL57   MET58   LEU59   TYR69   ALA70   MET71   LYS72   ILE73   LEU74   GLU91  
 LEU95   VAL104  LYS105  MET118  VAL119  MET120  GLU121  TYR122  VAL123  PRO124 
 GLY125  GLY126  GLU127  MET128  PHE129  TYR164  ASP166  LEU167  LYS168  PRO169 
 GLU170  ASN171  LEU172  LEU173  ILE174  GLN181  VAL182  THR183  ASP184  PHE185 
 GLY186  PHE187  GLY200  THR201  ASN326  PHE327  TYR330  ARG18   ARG19   ASN20  
 ALA21   ILE22   HIS23  

>  <Gold.Protein.RotatedAtoms>  (127) 
   11.0491   19.6318    8.6859 H   0  0  0  0  0  0  0  0  0  0  0  0  # atno 641  bound_to 637 
   17.2487   13.5877    6.5433 H   0  0  0  0  0  0  0  0  0  0  0  0  # atno 681  bound_to 677 
   19.4663   11.8485   -1.5767 H   0  0  0  0  0  0  0  0  0  0  0  0  # atno 702  bound_to 698 
   -6.4519   16.0137   -1.5753 H   0  0  0  0  0  0  0  0  0  0  0  0  # atno 965  bound_to 957 
    0.9030   12.0638   11.0298 H   0  0  0  0  0  0  0  0  0  0  0  0  # atno 1886 bound_to 1878
    9.6790    2.0079   -2.5003 H   0  0  0  0  0  0  0  0  0  0  0  0  # atno 2577 bound_to 2569
    7.1539    5.9489    1.5582 H   0  0  0  0  0  0  0  0  0  0  0  0  # atno 2891 bound_to 2887
   19.3329    3.0200   -0.3166 H   0  0  0  0  0  0  0  0  0  0  0  0  # atno 3175 bound_to 3171
   12.8731   10.1650    9.0212 H   0  0  0  0  0  0  0  0  0  0  0  0  # atno 5278 bound_to 5270
   16.0814   12.5431    6.2564 LP  0  0  0  0  0  0  0  0  0  0  0  0  # atno 5914 bound_to 677 
   15.9380   13.6530    7.4456 LP  0  0  0  0  0  0  0  0  0  0  0  0  # atno 5915 bound_to 677 
   20.2343   11.6688   -0.1927 LP  0  0  0  0  0  0  0  0  0  0  0  0  # atno 5920 bound_to 698 
   21.0315   11.5549   -1.6133 LP  0  0  0  0  0  0  0  0  0  0  0  0  # atno 5921 bound_to 698 
    9.7634    3.3262   -3.3892 LP  0  0  0  0  0  0  0  0  0  0  0  0  # atno 5950 bound_to 2569
   11.1159    2.6239   -2.8024 LP  0  0  0  0  0  0  0  0  0  0  0  0  # atno 5951 bound_to 2569
    8.0983    6.9218    0.7227 LP  0  0  0  0  0  0  0  0  0  0  0  0  # atno 5982 bound_to 2887
    8.0475    5.3222    0.3984 LP  0  0  0  0  0  0  0  0  0  0  0  0  # atno 5983 bound_to 2887
   18.0746    2.1733    0.1685 LP  0  0  0  0  0  0  0  0  0  0  0  0  # atno 6000 bound_to 3171
   18.4676    2.2571   -1.4142 LP  0  0  0  0  0  0  0  0  0  0  0  0  # atno 6001 bound_to 3171
   13.3211    9.7872   10.5022 LP  0  0  0  0  0  0  0  0  0  0  0  0  # atno 6004 bound_to 5270
   14.4311   10.0849    9.3421 LP  0  0  0  0  0  0  0  0  0  0  0  0  # atno 6005 bound_to 5270
    9.5436   19.4814    8.1902 LP  0  0  0  0  0  0  0  0  0  0  0  0  # atno 6055 bound_to 637 
   10.7844   18.9444    7.2744 LP  0  0  0  0  0  0  0  0  0  0  0  0  # atno 6056 bound_to 637 
    2.2901   11.6498   10.3666 LP  0  0  0  0  0  0  0  0  0  0  0  0  # atno 6063 bound_to 1878
    1.1446   10.5292   10.6805 LP  0  0  0  0  0  0  0  0  0  0  0  0  # atno 6064 bound_to 1878
   -6.9039   17.1858   -0.5971 LP  0  0  0  0  0  0  0  0  0  0  0  0  # atno 6067 bound_to 957 
   -7.1090   15.6206   -0.1793 LP  0  0  0  0  0  0  0  0  0  0  0  0  # atno 6068 bound_to 957 

>  <STRIFE_LigEff_Score>  (127) 
2.608935294117647

$$$$
unknown|pharmsElabsTestPreDocking|sdf|128|dock7
     RDKit          3D

 18 19  0  0  0  0  0  0  0  0999 V2000
   14.4925    9.3313    1.1355 C   0  0  0  0  0  0  0  0  0  0  0  0
   13.6811    8.1142    1.5466 C   0  0  0  0  0  0  0  0  0  0  0  0
   13.9684    6.9021    0.7875 N   0  0  0  0  0  0  0  0  0  0  0  0
   12.2001    8.3615    1.9672 C   0  0  0  0  0  0  0  0  0  0  0  0
   11.5377    7.3301    2.8940 C   0  0  0  0  0  0  0  0  0  0  0  0
   10.0058    7.4967    2.9042 C   0  0  0  0  0  0  0  0  0  0  0  0
    9.5251    8.9105    2.5674 C   0  0  0  0  0  0  0  0  0  0  0  0
    8.0499    9.1178    2.7162 C   0  0  0  0  0  0  0  0  0  0  0  0
    7.5023    9.5422    1.6754 O   0  0  0  0  0  0  0  0  0  0  0  0
    7.2664    8.8710    3.9069 N   0  0  0  0  0  0  0  0  0  0  0  0
    5.8537    9.2059    4.0498 C   0  0  0  0  0  0  0  0  0  0  0  0
    4.9824    8.9955    2.9636 C   0  0  0  0  0  0  0  0  0  0  0  0
    3.6164    9.2945    3.0705 C   0  0  0  0  0  0  0  0  0  0  0  0
    3.0990    9.8163    4.2567 C   0  0  0  0  0  0  0  0  0  0  0  0
    3.9387   10.0306    5.3418 C   0  0  0  0  0  0  0  0  0  0  0  0
    5.2915    9.7194    5.2511 C   0  0  0  0  0  0  0  0  0  0  0  0
   10.4432   10.1067    2.7331 C   0  0  0  0  0  0  0  0  0  0  0  0
   11.9356    9.7858    2.5014 C   0  0  0  0  0  0  0  0  0  0  0  0
  1  2  1  0
  2  3  1  0
  2  4  1  0
  4  5  1  0
  5  6  1  0
  6  7  1  0
  7  8  1  0
  8  9  2  0
  8 10  1  0
 10 11  1  0
 11 12  2  0
 12 13  1  0
 13 14  2  0
 14 15  1  0
 15 16  2  0
  7 17  1  0
 17 18  1  0
 18  4  1  0
 16 11  1  0
M  CHG  1   3   1
M  END
>  <EmbedRMS>  (128) 
0.24964892458419108

>  <Gold.Version>  (128) 
2020.3.0

>  <Gold.Id.Protein>  (128) 
unknown|1q8t_protein|pdb

>  <Gold.PLP.Fitness>  (128) 
55.0877

>  <Gold.PLP.PLP>  (128) 
-47.3079

>  <Gold.PLP.part.hbond>  (128) 
-2.0000

>  <Gold.PLP.part.metal>  (128) 
0.0000

>  <Gold.PLP.part.buried>  (128) 
-1.3582

>  <Gold.PLP.part.nonpolar>  (128) 
-44.1814

>  <Gold.PLP.part.repulsive>  (128) 
0.0847

>  <Gold.PLP.ligand.clash>  (128) 
0.0000

>  <Gold.PLP.ligand.torsion>  (128) 
1.0413

>  <Gold.PLP.Chemscore.Hbond>  (128) 
2.9760

>  <Gold.PLP.Chemscore.CHOScore>  (128) 
0.0000

>  <Gold.PLP.Chemscore.Metal>  (128) 
0.0000

>  <Gold.Chemscore.Hbonds>  (128) 
donor molecule, donor type, donor heavy atom, donor atom, acceptor molecule, acceptor atom, score
      L1  H     3    23       P1  2691  0.99
      L1  H     3    25       P1  2902  1.98

>  <Gold.PLP.Chemscore.Internal.Correction>  (128) 
0.9344

>  <Gold.PLP.Constraint>  (128) 
-0.0000

>  <Gold.Protein.RotatedTorsions>  (128) 
[  681  677  676  673 ] final -170.81 input -179.99 | X-H torsion
[  702  698  697  694 ] final  -49.22 input  179.99 | X-H torsion
[ 2577 2569 2568 2566 ] final  148.56 input   -0.13 | X-H torsion
[ 2891 2887 2886 2883 ] final   64.75 input  179.98 | X-H torsion
[ 3175 3171 3170 3167 ] final  -15.63 input -179.99 | X-H torsion
[ 5278 5270 5269 5267 ] final   78.63 input    0.55 | X-H torsion
[  641  637  636  633 ] final -149.84 input  179.99 | X-H torsion
[ 1886 1878 1877 1875 ] final  -58.21 input    1.60 | X-H torsion
[  965  957  956  954 ] final -112.74 input    0.45 | X-H torsion

>  <Gold.Protein.ActiveResidues>  (128) 
 LYS47   THR48   LEU49   GLY50   THR51   GLY52   SER53   PHE54   GLY55   ARG56  
 VAL57   MET58   LEU59   TYR69   ALA70   MET71   LYS72   ILE73   LEU74   GLU91  
 LEU95   VAL104  LYS105  MET118  VAL119  MET120  GLU121  TYR122  VAL123  PRO124 
 GLY125  GLY126  GLU127  MET128  PHE129  TYR164  ASP166  LEU167  LYS168  PRO169 
 GLU170  ASN171  LEU172  LEU173  ILE174  GLN181  VAL182  THR183  ASP184  PHE185 
 GLY186  PHE187  GLY200  THR201  ASN326  PHE327  TYR330  ARG18   ARG19   ASN20  
 ALA21   ILE22   HIS23  

>  <Gold.Protein.RotatedAtoms>  (128) 
   11.3047   19.1662    7.8020 H   0  0  0  0  0  0  0  0  0  0  0  0  # atno 641  bound_to 637 
   16.8926   13.9430    7.1162 H   0  0  0  0  0  0  0  0  0  0  0  0  # atno 681  bound_to 677 
   20.1183   11.7073   -0.2461 H   0  0  0  0  0  0  0  0  0  0  0  0  # atno 702  bound_to 698 
   -6.5067   16.8131   -1.4383 H   0  0  0  0  0  0  0  0  0  0  0  0  # atno 965  bound_to 957 
    1.7217   10.6223   10.4230 H   0  0  0  0  0  0  0  0  0  0  0  0  # atno 1886 bound_to 1878
   10.1221    1.8993   -2.3924 H   0  0  0  0  0  0  0  0  0  0  0  0  # atno 2577 bound_to 2569
    8.3354    6.3551    0.2870 H   0  0  0  0  0  0  0  0  0  0  0  0  # atno 2891 bound_to 2887
   19.2572    2.8688   -1.0431 H   0  0  0  0  0  0  0  0  0  0  0  0  # atno 3175 bound_to 3171
   13.1343   10.2141    8.8328 H   0  0  0  0  0  0  0  0  0  0  0  0  # atno 5278 bound_to 5270
   16.8158   12.7774    6.0338 LP  0  0  0  0  0  0  0  0  0  0  0  0  # atno 5914 bound_to 677 
   15.5785   13.0448    7.0654 LP  0  0  0  0  0  0  0  0  0  0  0  0  # atno 5915 bound_to 677 
   21.0872   11.5429   -1.4997 LP  0  0  0  0  0  0  0  0  0  0  0  0  # atno 5920 bound_to 698 
   19.4928   11.8295   -1.7060 LP  0  0  0  0  0  0  0  0  0  0  0  0  # atno 5921 bound_to 698 
    9.3930    3.0462   -3.2219 LP  0  0  0  0  0  0  0  0  0  0  0  0  # atno 5950 bound_to 2569
   11.0198    3.0183   -3.0833 LP  0  0  0  0  0  0  0  0  0  0  0  0  # atno 5951 bound_to 2569
    7.5364    5.1465    0.9483 LP  0  0  0  0  0  0  0  0  0  0  0  0  # atno 5982 bound_to 2887
    7.3659    6.6701    1.5107 LP  0  0  0  0  0  0  0  0  0  0  0  0  # atno 5983 bound_to 2887
   18.6581    2.6377    0.4141 LP  0  0  0  0  0  0  0  0  0  0  0  0  # atno 6000 bound_to 3171
   17.9637    1.9519   -0.8952 LP  0  0  0  0  0  0  0  0  0  0  0  0  # atno 6001 bound_to 3171
   13.0063    9.8165   10.3698 LP  0  0  0  0  0  0  0  0  0  0  0  0  # atno 6004 bound_to 5270
   14.4711   10.0037    9.6727 LP  0  0  0  0  0  0  0  0  0  0  0  0  # atno 6005 bound_to 5270
   10.3189   19.7924    8.8841 LP  0  0  0  0  0  0  0  0  0  0  0  0  # atno 6055 bound_to 637 
    9.7399   19.1238    7.5113 LP  0  0  0  0  0  0  0  0  0  0  0  0  # atno 6056 bound_to 637 
    0.5857   11.5132   11.0947 LP  0  0  0  0  0  0  0  0  0  0  0  0  # atno 6063 bound_to 1878
    1.9871   12.1833   10.5911 LP  0  0  0  0  0  0  0  0  0  0  0  0  # atno 6064 bound_to 1878
   -7.1781   16.6304   -0.0062 LP  0  0  0  0  0  0  0  0  0  0  0  0  # atno 6067 bound_to 957 
   -6.7771   15.3340   -0.9146 LP  0  0  0  0  0  0  0  0  0  0  0  0  # atno 6068 bound_to 957 

>  <STRIFE_LigEff_Score>  (128) 
3.0604277777777775

$$$$
unknown|pharmsElabsTestPreDocking|sdf|129|dock6
     RDKit          3D

 18 19  0  0  0  0  0  0  0  0999 V2000
   14.5584    9.4861    1.1211 C   0  0  0  0  0  0  0  0  0  0  0  0
   13.7645    8.2576    1.5323 C   0  0  0  0  0  0  0  0  0  0  0  0
   14.0672    7.0503    0.7715 N   0  0  0  0  0  0  0  0  0  0  0  0
   12.2809    8.4840    1.9557 C   0  0  0  0  0  0  0  0  0  0  0  0
   11.5987    7.3866    2.7875 C   0  0  0  0  0  0  0  0  0  0  0  0
   10.0683    7.5667    2.7946 C   0  0  0  0  0  0  0  0  0  0  0  0
    9.6041    9.0080    2.5698 C   0  0  0  0  0  0  0  0  0  0  0  0
    8.1292    9.2167    2.7190 C   0  0  0  0  0  0  0  0  0  0  0  0
    7.5921    9.7008    1.6990 O   0  0  0  0  0  0  0  0  0  0  0  0
    7.3351    8.9108    3.8889 N   0  0  0  0  0  0  0  0  0  0  0  0
    5.9236    9.2468    4.0396 C   0  0  0  0  0  0  0  0  0  0  0  0
    5.4532    9.7033    5.2860 C   0  0  0  0  0  0  0  0  0  0  0  0
    4.1051   10.0471    5.4627 C   0  0  0  0  0  0  0  0  0  0  0  0
    3.2031    9.9326    4.4041 C   0  0  0  0  0  0  0  0  0  0  0  0
    3.6442    9.4864    3.1653 C   0  0  0  0  0  0  0  0  0  0  0  0
    4.9835    9.1610    2.9757 C   0  0  0  0  0  0  0  0  0  0  0  0
   10.5307   10.1776    2.8431 C   0  0  0  0  0  0  0  0  0  0  0  0
   12.0228    9.8622    2.6021 C   0  0  0  0  0  0  0  0  0  0  0  0
  1  2  1  0
  2  3  1  0
  2  4  1  0
  4  5  1  0
  5  6  1  0
  6  7  1  0
  7  8  1  0
  8  9  2  0
  8 10  1  0
 10 11  1  0
 11 12  2  0
 12 13  1  0
 13 14  2  0
 14 15  1  0
 15 16  2  0
  7 17  1  0
 17 18  1  0
 18  4  1  0
 16 11  1  0
M  CHG  1   3   1
M  END
>  <EmbedRMS>  (129) 
0.24964892458419108

>  <Gold.Version>  (129) 
2020.3.0

>  <Gold.Id.Protein>  (129) 
unknown|1q8t_protein|pdb

>  <Gold.PLP.Fitness>  (129) 
55.1122

>  <Gold.PLP.PLP>  (129) 
-47.0453

>  <Gold.PLP.part.hbond>  (129) 
-2.0000

>  <Gold.PLP.part.metal>  (129) 
0.0000

>  <Gold.PLP.part.buried>  (129) 
-2.5355

>  <Gold.PLP.part.nonpolar>  (129) 
-43.8197

>  <Gold.PLP.part.repulsive>  (129) 
0.0748

>  <Gold.PLP.ligand.clash>  (129) 
0.0000

>  <Gold.PLP.ligand.torsion>  (129) 
0.9333

>  <Gold.PLP.Chemscore.Hbond>  (129) 
3.0000

>  <Gold.PLP.Chemscore.CHOScore>  (129) 
0.0000

>  <Gold.PLP.Chemscore.Metal>  (129) 
0.0000

>  <Gold.Chemscore.Hbonds>  (129) 
donor molecule, donor type, donor heavy atom, donor atom, acceptor molecule, acceptor atom, score
      L1  H     3    24       P1  2902  2.00
      L1  H     3    25       P1  2691  1.00

>  <Gold.PLP.Chemscore.Internal.Correction>  (129) 
0.9335

>  <Gold.PLP.Constraint>  (129) 
-0.0000

>  <Gold.Protein.RotatedTorsions>  (129) 
[  681  677  676  673 ] final  140.15 input -179.99 | X-H torsion
[  702  698  697  694 ] final   74.50 input  179.99 | X-H torsion
[ 2577 2569 2568 2566 ] final   71.45 input   -0.13 | X-H torsion
[ 2891 2887 2886 2883 ] final  -83.46 input  179.98 | X-H torsion
[ 3175 3171 3170 3167 ] final -101.78 input -179.99 | X-H torsion
[ 5278 5270 5269 5267 ] final   -9.66 input    0.55 | X-H torsion
[  641  637  636  633 ] final   29.20 input  179.99 | X-H torsion
[ 1886 1878 1877 1875 ] final   84.54 input    1.60 | X-H torsion
[  965  957  956  954 ] final  119.16 input    0.45 | X-H torsion

>  <Gold.Protein.ActiveResidues>  (129) 
 LYS47   THR48   LEU49   GLY50   THR51   GLY52   SER53   PHE54   GLY55   ARG56  
 VAL57   MET58   LEU59   TYR69   ALA70   MET71   LYS72   ILE73   LEU74   GLU91  
 LEU95   VAL104  LYS105  MET118  VAL119  MET120  GLU121  TYR122  VAL123  PRO124 
 GLY125  GLY126  GLU127  MET128  PHE129  TYR164  ASP166  LEU167  LYS168  PRO169 
 GLU170  ASN171  LEU172  LEU173  ILE174  GLN181  VAL182  THR183  ASP184  PHE185 
 GLY186  PHE187  GLY200  THR201  ASN326  PHE327  TYR330  ARG18   ARG19   ASN20  
 ALA21   ILE22   HIS23  

>  <Gold.Protein.RotatedAtoms>  (129) 
    9.6276   19.5232    8.3177 H   0  0  0  0  0  0  0  0  0  0  0  0  # atno 641  bound_to 637 
   17.2466   13.6017    6.5585 H   0  0  0  0  0  0  0  0  0  0  0  0  # atno 681  bound_to 677 
   19.5684   11.8333   -1.7226 H   0  0  0  0  0  0  0  0  0  0  0  0  # atno 702  bound_to 698 
   -7.1628   16.4923   -0.0034 H   0  0  0  0  0  0  0  0  0  0  0  0  # atno 965  bound_to 957 
    1.6667   12.2903   10.7317 H   0  0  0  0  0  0  0  0  0  0  0  0  # atno 1886 bound_to 1878
    9.2959    2.4860   -2.8604 H   0  0  0  0  0  0  0  0  0  0  0  0  # atno 2577 bound_to 2569
    7.2980    5.3762    1.2540 H   0  0  0  0  0  0  0  0  0  0  0  0  # atno 2891 bound_to 2887
   19.0651    2.8847    0.1651 H   0  0  0  0  0  0  0  0  0  0  0  0  # atno 3175 bound_to 3171
   12.7150    9.9285    9.9732 H   0  0  0  0  0  0  0  0  0  0  0  0  # atno 5278 bound_to 5270
   16.0997   12.5425    6.2445 LP  0  0  0  0  0  0  0  0  0  0  0  0  # atno 5914 bound_to 677 
   15.9219   13.6388    7.4416 LP  0  0  0  0  0  0  0  0  0  0  0  0  # atno 5915 bound_to 677 
   20.0500   11.7018   -0.2099 LP  0  0  0  0  0  0  0  0  0  0  0  0  # atno 5920 bound_to 698 
   21.1085   11.5380   -1.4426 LP  0  0  0  0  0  0  0  0  0  0  0  0  # atno 5921 bound_to 698 
   10.5095    3.3807   -3.3723 LP  0  0  0  0  0  0  0  0  0  0  0  0  # atno 5950 bound_to 2569
   10.7732    2.0660   -2.4402 LP  0  0  0  0  0  0  0  0  0  0  0  0  # atno 5951 bound_to 2569
    7.6426    6.9311    1.2528 LP  0  0  0  0  0  0  0  0  0  0  0  0  # atno 5982 bound_to 2887
    8.3515    5.9157    0.1884 LP  0  0  0  0  0  0  0  0  0  0  0  0  # atno 5983 bound_to 2887
   17.8775    1.9591   -0.3531 LP  0  0  0  0  0  0  0  0  0  0  0  0  # atno 6000 bound_to 3171
   18.9465    2.6138   -1.3996 LP  0  0  0  0  0  0  0  0  0  0  0  0  # atno 6001 bound_to 3171
   14.2980    9.8858   10.1434 LP  0  0  0  0  0  0  0  0  0  0  0  0  # atno 6004 bound_to 5270
   13.6205   10.2350    8.6992 LP  0  0  0  0  0  0  0  0  0  0  0  0  # atno 6005 bound_to 5270
   10.6357   18.9331    7.2359 LP  0  0  0  0  0  0  0  0  0  0  0  0  # atno 6055 bound_to 637 
   11.1893   19.6071    8.6164 LP  0  0  0  0  0  0  0  0  0  0  0  0  # atno 6056 bound_to 637 
    2.0330   10.7928   10.3337 LP  0  0  0  0  0  0  0  0  0  0  0  0  # atno 6063 bound_to 1878
    0.5978   11.1478   11.0271 LP  0  0  0  0  0  0  0  0  0  0  0  0  # atno 6064 bound_to 1878
   -6.7228   15.3606   -1.0333 LP  0  0  0  0  0  0  0  0  0  0  0  0  # atno 6067 bound_to 957 
   -6.5414   16.9418   -1.3987 LP  0  0  0  0  0  0  0  0  0  0  0  0  # atno 6068 bound_to 957 

>  <STRIFE_LigEff_Score>  (129) 
3.061788888888889

$$$$
unknown|pharmsElabsTestPreDocking|sdf|130|dock10
     RDKit          3D

 15 15  0  0  0  0  0  0  0  0999 V2000
    4.5998    9.8701    5.4263 C   0  0  0  0  0  0  0  0  0  0  0  0
    5.2750    9.4536    4.1519 C   0  0  0  0  0  0  0  0  0  0  0  0
    4.5439    8.8616    2.9790 C   0  0  0  0  0  0  0  0  0  0  0  0
    6.6488    8.9459    4.3338 N   0  0  0  0  0  0  0  0  0  0  0  0
    7.5279    9.1994    3.2236 C   0  0  0  0  0  0  0  0  0  0  0  0
    7.0509    9.7073    2.1791 O   0  0  0  0  0  0  0  0  0  0  0  0
    8.9818    8.9266    3.1121 C   0  0  0  0  0  0  0  0  0  0  0  0
    9.2997    7.4718    2.8920 C   0  0  0  0  0  0  0  0  0  0  0  0
   10.7112    7.2591    2.3802 C   0  0  0  0  0  0  0  0  0  0  0  0
   11.7736    8.1403    3.0370 C   0  0  0  0  0  0  0  0  0  0  0  0
   13.2302    7.8636    2.5257 C   0  0  0  0  0  0  0  0  0  0  0  0
   14.2158    7.2846    3.5547 C   0  0  0  0  0  0  0  0  0  0  0  0
   13.2507    7.0607    1.2999 N   0  0  0  0  0  0  0  0  0  0  0  0
   11.3815    9.5992    3.3601 C   0  0  0  0  0  0  0  0  0  0  0  0
    9.9509    9.7695    3.8960 C   0  0  0  0  0  0  0  0  0  0  0  0
  1  2  1  0
  2  3  1  0
  2  4  1  0
  4  5  1  0
  5  6  2  0
  5  7  1  0
  7  8  1  0
  8  9  1  0
  9 10  1  0
 10 11  1  0
 11 12  1  0
 11 13  1  0
 10 14  1  0
 14 15  1  0
 15  7  1  0
M  CHG  1  13   1
M  END
>  <EmbedRMS>  (130) 
0.35838126622633487

>  <Gold.Version>  (130) 
2020.3.0

>  <Gold.Id.Protein>  (130) 
unknown|1q8t_protein|pdb

>  <Gold.PLP.Fitness>  (130) 
42.1991

>  <Gold.PLP.PLP>  (130) 
-36.1517

>  <Gold.PLP.part.hbond>  (130) 
-1.7702

>  <Gold.PLP.part.metal>  (130) 
0.0000

>  <Gold.PLP.part.buried>  (130) 
-4.2474

>  <Gold.PLP.part.nonpolar>  (130) 
-30.4305

>  <Gold.PLP.part.repulsive>  (130) 
0.0390

>  <Gold.PLP.ligand.clash>  (130) 
0.0000

>  <Gold.PLP.ligand.torsion>  (130) 
1.8603

>  <Gold.PLP.Chemscore.Hbond>  (130) 
2.8160

>  <Gold.PLP.Chemscore.CHOScore>  (130) 
0.0000

>  <Gold.PLP.Chemscore.Metal>  (130) 
0.0000

>  <Gold.Chemscore.Hbonds>  (130) 
donor molecule, donor type, donor heavy atom, donor atom, acceptor molecule, acceptor atom, score
      L1  H    13    35       P1  2902  1.98
      L1  H    13    36       P1  2691  0.83

>  <Gold.PLP.Chemscore.Internal.Correction>  (130) 
1.3200

>  <Gold.PLP.Constraint>  (130) 
-0.0000

>  <Gold.Protein.RotatedTorsions>  (130) 
[  681  677  676  673 ] final  -27.31 input -179.99 | X-H torsion
[  702  698  697  694 ] final  -10.59 input  179.99 | X-H torsion
[ 2577 2569 2568 2566 ] final  135.69 input   -0.13 | X-H torsion
[ 2891 2887 2886 2883 ] final -101.10 input  179.98 | X-H torsion
[ 3175 3171 3170 3167 ] final   29.25 input -179.99 | X-H torsion
[ 5278 5270 5269 5267 ] final  -28.11 input    0.55 | X-H torsion
[  641  637  636  633 ] final  -58.51 input  179.99 | X-H torsion
[ 1886 1878 1877 1875 ] final -173.30 input    1.60 | X-H torsion
[  965  957  956  954 ] final -168.52 input    0.45 | X-H torsion

>  <Gold.Protein.ActiveResidues>  (130) 
 LYS47   THR48   LEU49   GLY50   THR51   GLY52   SER53   PHE54   GLY55   ARG56  
 VAL57   MET58   LEU59   TYR69   ALA70   MET71   LYS72   ILE73   LEU74   GLU91  
 LEU95   VAL104  LYS105  MET118  VAL119  MET120  GLU121  TYR122  VAL123  PRO124 
 GLY125  GLY126  GLU127  MET128  PHE129  TYR164  ASP166  LEU167  LYS168  PRO169 
 GLU170  ASN171  LEU172  LEU173  ILE174  GLN181  VAL182  THR183  ASP184  PHE185 
 GLY186  PHE187  GLY200  THR201  ASN326  PHE327  TYR330  ARG18   ARG19   ASN20  
 ALA21   ILE22   HIS23  

>  <Gold.Protein.RotatedAtoms>  (130) 
   10.1319   18.9855    7.3199 H   0  0  0  0  0  0  0  0  0  0  0  0  # atno 641  bound_to 637 
   15.6590   12.8233    6.7703 H   0  0  0  0  0  0  0  0  0  0  0  0  # atno 681  bound_to 677 
   19.5971   11.8048   -0.5113 H   0  0  0  0  0  0  0  0  0  0  0  0  # atno 702  bound_to 698 
   -6.8193   17.1626   -0.7442 H   0  0  0  0  0  0  0  0  0  0  0  0  # atno 965  bound_to 957 
    0.6132   11.4359   11.0504 H   0  0  0  0  0  0  0  0  0  0  0  0  # atno 1886 bound_to 1878
    9.9249    1.9212   -2.4221 H   0  0  0  0  0  0  0  0  0  0  0  0  # atno 2577 bound_to 2569
    7.2013    5.5773    1.4142 H   0  0  0  0  0  0  0  0  0  0  0  0  # atno 2891 bound_to 2887
   18.8098    2.4912   -1.3962 H   0  0  0  0  0  0  0  0  0  0  0  0  # atno 3175 bound_to 3171
   12.8745    9.8729   10.2055 H   0  0  0  0  0  0  0  0  0  0  0  0  # atno 5278 bound_to 5270
   16.5984   13.9705    7.3514 LP  0  0  0  0  0  0  0  0  0  0  0  0  # atno 5914 bound_to 677 
   17.0942   13.0301    6.1118 LP  0  0  0  0  0  0  0  0  0  0  0  0  # atno 5915 bound_to 677 
   21.1218   11.5247   -0.8773 LP  0  0  0  0  0  0  0  0  0  0  0  0  # atno 5920 bound_to 698 
   20.0065   11.7451   -2.0495 LP  0  0  0  0  0  0  0  0  0  0  0  0  # atno 5921 bound_to 698 
    9.5286    3.1838   -3.3075 LP  0  0  0  0  0  0  0  0  0  0  0  0  # atno 5950 bound_to 2569
   11.0919    2.8576   -2.9665 LP  0  0  0  0  0  0  0  0  0  0  0  0  # atno 5951 bound_to 2569
    7.8344    6.9913    1.0451 LP  0  0  0  0  0  0  0  0  0  0  0  0  # atno 5982 bound_to 2887
    8.2615    5.6437    0.2276 LP  0  0  0  0  0  0  0  0  0  0  0  0  # atno 5983 bound_to 2887
   19.1868    2.9843    0.0702 LP  0  0  0  0  0  0  0  0  0  0  0  0  # atno 6000 bound_to 3171
   17.9058    2.0028   -0.1797 LP  0  0  0  0  0  0  0  0  0  0  0  0  # atno 6001 bound_to 3171
   14.4317    9.9521    9.8806 LP  0  0  0  0  0  0  0  0  0  0  0  0  # atno 6004 bound_to 5270
   13.3189   10.2273    8.7176 LP  0  0  0  0  0  0  0  0  0  0  0  0  # atno 6005 bound_to 5270
   11.4023   19.3799    8.1948 LP  0  0  0  0  0  0  0  0  0  0  0  0  # atno 6055 bound_to 637 
    9.8915   19.7265    8.7084 LP  0  0  0  0  0  0  0  0  0  0  0  0  # atno 6056 bound_to 637 
    1.9280   12.2267   10.6246 LP  0  0  0  0  0  0  0  0  0  0  0  0  # atno 6063 bound_to 1878
    1.8118   10.6134   10.4007 LP  0  0  0  0  0  0  0  0  0  0  0  0  # atno 6064 bound_to 1878
   -7.1511   15.7522   -0.0841 LP  0  0  0  0  0  0  0  0  0  0  0  0  # atno 6067 bound_to 957 
   -6.4750   15.8442   -1.5677 LP  0  0  0  0  0  0  0  0  0  0  0  0  # atno 6068 bound_to 957 

>  <STRIFE_LigEff_Score>  (130) 
2.8132733333333335

$$$$
unknown|pharmsElabsTestPreDocking|sdf|131|dock4
     RDKit          3D

 19 19  0  0  0  0  0  0  0  0999 V2000
    3.8536    9.4653    5.3155 C   0  0  0  0  0  0  0  0  0  0  0  0
    4.9926    9.7974    4.6996 C   0  0  0  0  0  0  0  0  0  0  0  0
    6.1668   10.0591    5.6011 C   0  0  0  0  0  0  0  0  0  0  0  0
    5.0948   10.0914    3.2290 C   0  0  0  0  0  0  0  0  0  0  0  0
    4.3373    9.5041    2.2739 C   0  0  0  0  0  0  0  0  0  0  0  0
    3.3250    8.4191    2.4819 C   0  0  0  0  0  0  0  0  0  0  0  0
    6.1391   11.0775    2.7467 C   0  0  0  0  0  0  0  0  0  0  0  0
    7.4708   10.5011    2.8762 N   0  0  0  0  0  0  0  0  0  0  0  0
    7.8011    9.2123    2.3502 C   0  0  0  0  0  0  0  0  0  0  0  0
    6.9516    8.5635    1.6758 O   0  0  0  0  0  0  0  0  0  0  0  0
    9.1784    8.6449    2.5795 C   0  0  0  0  0  0  0  0  0  0  0  0
    9.7824    8.2298    1.2431 C   0  0  0  0  0  0  0  0  0  0  0  0
   11.1251    7.5405    1.3999 C   0  0  0  0  0  0  0  0  0  0  0  0
   12.0442    8.1439    2.4787 C   0  0  0  0  0  0  0  0  0  0  0  0
   13.5850    7.9544    2.2475 C   0  0  0  0  0  0  0  0  0  0  0  0
   14.4283    7.6601    3.4973 C   0  0  0  0  0  0  0  0  0  0  0  0
   13.8740    6.9679    1.2005 N   0  0  0  0  0  0  0  0  0  0  0  0
   11.5657    9.3557    3.3055 C   0  0  0  0  0  0  0  0  0  0  0  0
   10.0612    9.6869    3.2751 C   0  0  0  0  0  0  0  0  0  0  0  0
  1  2  2  0
  2  3  1  0
  2  4  1  0
  4  5  2  0
  5  6  1  0
  4  7  1  0
  7  8  1  0
  8  9  1  0
  9 10  2  0
  9 11  1  0
 11 12  1  0
 12 13  1  0
 13 14  1  0
 14 15  1  0
 15 16  1  0
 15 17  1  0
 14 18  1  0
 18 19  1  0
 19 11  1  0
M  CHG  1  17   1
M  END
>  <EmbedRMS>  (131) 
0.16423161568044162

>  <Gold.Version>  (131) 
2020.3.0

>  <Gold.Id.Protein>  (131) 
unknown|1q8t_protein|pdb

>  <Gold.PLP.Fitness>  (131) 
51.1617

>  <Gold.PLP.PLP>  (131) 
-40.8473

>  <Gold.PLP.part.hbond>  (131) 
-3.0000

>  <Gold.PLP.part.metal>  (131) 
0.0000

>  <Gold.PLP.part.buried>  (131) 
2.6541

>  <Gold.PLP.part.nonpolar>  (131) 
-41.2799

>  <Gold.PLP.part.repulsive>  (131) 
0.0649

>  <Gold.PLP.ligand.clash>  (131) 
0.2010

>  <Gold.PLP.ligand.torsion>  (131) 
1.2275

>  <Gold.PLP.Chemscore.Hbond>  (131) 
3.9120

>  <Gold.PLP.Chemscore.CHOScore>  (131) 
0.0000

>  <Gold.PLP.Chemscore.Metal>  (131) 
0.0000

>  <Gold.Chemscore.Hbonds>  (131) 
donor molecule, donor type, donor heavy atom, donor atom, acceptor molecule, acceptor atom, score
      L1  H    17    42       P1  2691  1.00
      L1  H    17    43       P1  2902  2.00
      P1  H  2887  2891       L1    10  0.91

>  <Gold.PLP.Chemscore.Internal.Correction>  (131) 
1.2343

>  <Gold.PLP.Constraint>  (131) 
-0.0000

>  <Gold.Protein.RotatedTorsions>  (131) 
[  681  677  676  673 ] final  -93.52 input -179.99 | X-H torsion
[  702  698  697  694 ] final  -93.43 input  179.99 | X-H torsion
[ 2577 2569 2568 2566 ] final   91.54 input   -0.13 | X-H torsion
[ 2891 2887 2886 2883 ] final  162.30 input  179.98 | X-H torsion
[ 3175 3171 3170 3167 ] final -145.37 input -179.99 | X-H torsion
[ 5278 5270 5269 5267 ] final  -41.94 input    0.55 | X-H torsion
[  641  637  636  633 ] final   26.97 input  179.99 | X-H torsion
[ 1886 1878 1877 1875 ] final   52.99 input    1.60 | X-H torsion
[  965  957  956  954 ] final  -51.56 input    0.45 | X-H torsion

>  <Gold.Protein.ActiveResidues>  (131) 
 LYS47   THR48   LEU49   GLY50   THR51   GLY52   SER53   PHE54   GLY55   ARG56  
 VAL57   MET58   LEU59   TYR69   ALA70   MET71   LYS72   ILE73   LEU74   GLU91  
 LEU95   VAL104  LYS105  MET118  VAL119  MET120  GLU121  TYR122  VAL123  PRO124 
 GLY125  GLY126  GLU127  MET128  PHE129  TYR164  ASP166  LEU167  LYS168  PRO169 
 GLU170  ASN171  LEU172  LEU173  ILE174  GLN181  VAL182  THR183  ASP184  PHE185 
 GLY186  PHE187  GLY200  THR201  ASN326  PHE327  TYR330  ARG18   ARG19   ASN20  
 ALA21   ILE22   HIS23  

>  <Gold.Protein.RotatedAtoms>  (131) 
    9.6164   19.5087    8.2880 H   0  0  0  0  0  0  0  0  0  0  0  0  # atno 641  bound_to 637 
   15.8716   13.5642    7.3731 H   0  0  0  0  0  0  0  0  0  0  0  0  # atno 681  bound_to 677 
   20.7608   11.5967   -0.4189 H   0  0  0  0  0  0  0  0  0  0  0  0  # atno 702  bound_to 698 
   -6.4688   15.9085   -1.5406 H   0  0  0  0  0  0  0  0  0  0  0  0  # atno 965  bound_to 957 
    2.0439   12.0608   10.5263 H   0  0  0  0  0  0  0  0  0  0  0  0  # atno 1886 bound_to 1878
    9.3993    2.2474   -2.6871 H   0  0  0  0  0  0  0  0  0  0  0  0  # atno 2577 bound_to 2569
    7.5781    6.8543    1.2837 H   0  0  0  0  0  0  0  0  0  0  0  0  # atno 2891 bound_to 2887
   18.5446    2.5265    0.3731 H   0  0  0  0  0  0  0  0  0  0  0  0  # atno 3175 bound_to 3171
   13.0395    9.8412   10.3408 H   0  0  0  0  0  0  0  0  0  0  0  0  # atno 5278 bound_to 5270
   17.2795   13.6759    6.6373 LP  0  0  0  0  0  0  0  0  0  0  0  0  # atno 5914 bound_to 677 
   16.1893   12.5449    6.1915 LP  0  0  0  0  0  0  0  0  0  0  0  0  # atno 5915 bound_to 677 
   20.5962   11.6396   -2.0027 LP  0  0  0  0  0  0  0  0  0  0  0  0  # atno 5920 bound_to 698 
   19.3079   11.8490   -1.0213 LP  0  0  0  0  0  0  0  0  0  0  0  0  # atno 5921 bound_to 698 
   10.1868    3.4195   -3.4229 LP  0  0  0  0  0  0  0  0  0  0  0  0  # atno 5950 bound_to 2569
   10.9871    2.2784   -2.5720 LP  0  0  0  0  0  0  0  0  0  0  0  0  # atno 5951 bound_to 2569
    8.3691    6.0087    0.1903 LP  0  0  0  0  0  0  0  0  0  0  0  0  # atno 5982 bound_to 2887
    7.3302    5.2824    1.2197 LP  0  0  0  0  0  0  0  0  0  0  0  0  # atno 5983 bound_to 2887
   18.0340    1.9857   -1.0350 LP  0  0  0  0  0  0  0  0  0  0  0  0  # atno 6000 bound_to 3171
   19.3377    2.9642   -0.9366 LP  0  0  0  0  0  0  0  0  0  0  0  0  # atno 6001 bound_to 3171
   14.4716   10.0060    9.6637 LP  0  0  0  0  0  0  0  0  0  0  0  0  # atno 6004 bound_to 5270
   13.1055   10.2067    8.7920 LP  0  0  0  0  0  0  0  0  0  0  0  0  # atno 6005 bound_to 5270
   10.6717   18.9347    7.2431 LP  0  0  0  0  0  0  0  0  0  0  0  0  # atno 6055 bound_to 637 
   11.1650   19.6207    8.6405 LP  0  0  0  0  0  0  0  0  0  0  0  0  # atno 6056 bound_to 637 
    1.6164   10.5280   10.4723 LP  0  0  0  0  0  0  0  0  0  0  0  0  # atno 6063 bound_to 1878
    0.6173   11.6542   11.1048 LP  0  0  0  0  0  0  0  0  0  0  0  0  # atno 6064 bound_to 1878
   -6.8556   17.2060   -0.7029 LP  0  0  0  0  0  0  0  0  0  0  0  0  # atno 6067 bound_to 957 
   -7.1396   15.7112   -0.1101 LP  0  0  0  0  0  0  0  0  0  0  0  0  # atno 6068 bound_to 957 

>  <STRIFE_LigEff_Score>  (131) 
2.6927210526315792

$$$$
unknown|pharmsElabsTestPreDocking|sdf|132|dock9
     RDKit          3D

 18 19  0  0  0  0  0  0  0  0999 V2000
   14.4807    7.2280    2.9677 C   0  0  0  0  0  0  0  0  0  0  0  0
   13.1051    7.3706    2.3185 C   0  0  0  0  0  0  0  0  0  0  0  0
   13.1070    8.3472    1.2274 N   0  0  0  0  0  0  0  0  0  0  0  0
   11.8668    7.5114    3.2380 C   0  0  0  0  0  0  0  0  0  0  0  0
   10.5459    7.1234    2.5574 C   0  0  0  0  0  0  0  0  0  0  0  0
    9.2730    7.6489    3.2007 C   0  0  0  0  0  0  0  0  0  0  0  0
    9.4050    9.0750    3.6716 C   0  0  0  0  0  0  0  0  0  0  0  0
    8.0977    9.7264    4.0161 C   0  0  0  0  0  0  0  0  0  0  0  0
    7.5463   10.3371    3.0694 O   0  0  0  0  0  0  0  0  0  0  0  0
    7.4594    9.7105    5.3043 N   0  0  0  0  0  0  0  0  0  0  0  0
    6.2179   10.4655    5.5281 C   0  0  0  0  0  0  0  0  0  0  0  0
    5.0971    9.8955    4.7082 C   0  0  0  0  0  0  0  0  0  0  0  0
    3.9220    9.3420    5.1719 C   0  0  0  0  0  0  0  0  0  0  0  0
    3.1528    9.0014    4.1179 N   0  0  0  0  0  0  0  0  0  0  0  0
    3.8819    9.3604    3.0389 C   0  0  0  0  0  0  0  0  0  0  0  0
    5.0655    9.9094    3.3676 N   0  0  0  0  0  0  0  0  0  0  0  0
   10.5787    9.3795    4.5608 C   0  0  0  0  0  0  0  0  0  0  0  0
   11.8955    8.8783    3.9720 C   0  0  0  0  0  0  0  0  0  0  0  0
  1  2  1  0
  2  3  1  0
  2  4  1  0
  4  5  1  0
  5  6  1  0
  6  7  1  0
  7  8  1  0
  8  9  2  0
  8 10  1  0
 10 11  1  0
 11 12  1  0
 12 13  2  0
 13 14  1  0
 14 15  2  0
 15 16  1  0
  7 17  1  0
 17 18  1  0
 18  4  1  0
 16 12  1  0
M  CHG  1   3   1
M  END
>  <EmbedRMS>  (132) 
0.29359866989900446

>  <Gold.Version>  (132) 
2020.3.0

>  <Gold.Id.Protein>  (132) 
unknown|1q8t_protein|pdb

>  <Gold.PLP.Fitness>  (132) 
52.3725

>  <Gold.PLP.PLP>  (132) 
-41.4126

>  <Gold.PLP.part.hbond>  (132) 
-2.0000

>  <Gold.PLP.part.metal>  (132) 
0.0000

>  <Gold.PLP.part.buried>  (132) 
-2.9420

>  <Gold.PLP.part.nonpolar>  (132) 
-38.1642

>  <Gold.PLP.part.repulsive>  (132) 
0.1369

>  <Gold.PLP.ligand.clash>  (132) 
0.0000

>  <Gold.PLP.ligand.torsion>  (132) 
0.6252

>  <Gold.PLP.Chemscore.Hbond>  (132) 
2.8640

>  <Gold.PLP.Chemscore.CHOScore>  (132) 
1.0000

>  <Gold.PLP.Chemscore.Metal>  (132) 
0.0000

>  <Gold.Chemscore.Hbonds>  (132) 
donor molecule, donor type, donor heavy atom, donor atom, acceptor molecule, acceptor atom, score
      L1  H     3    23       P1  2902  2.00
      P1  H  1888  1903       L1    14  0.86
      L1  C    13    35       P1  1891  1.00

>  <Gold.PLP.Chemscore.Internal.Correction>  (132) 
0.6182

>  <Gold.PLP.Constraint>  (132) 
-0.0000

>  <Gold.Protein.RotatedTorsions>  (132) 
[  681  677  676  673 ] final -111.15 input -179.99 | X-H torsion
[  702  698  697  694 ] final -143.97 input  179.99 | X-H torsion
[ 2577 2569 2568 2566 ] final   61.56 input   -0.13 | X-H torsion
[ 2891 2887 2886 2883 ] final  -21.98 input  179.98 | X-H torsion
[ 3175 3171 3170 3167 ] final  -93.35 input -179.99 | X-H torsion
[ 5278 5270 5269 5267 ] final  -15.74 input    0.55 | X-H torsion
[  641  637  636  633 ] final -151.22 input  179.99 | X-H torsion
[ 1886 1878 1877 1875 ] final  174.72 input    1.60 | X-H torsion
[  965  957  956  954 ] final -125.50 input    0.45 | X-H torsion

>  <Gold.Protein.ActiveResidues>  (132) 
 LYS47   THR48   LEU49   GLY50   THR51   GLY52   SER53   PHE54   GLY55   ARG56  
 VAL57   MET58   LEU59   TYR69   ALA70   MET71   LYS72   ILE73   LEU74   GLU91  
 LEU95   VAL104  LYS105  MET118  VAL119  MET120  GLU121  TYR122  VAL123  PRO124 
 GLY125  GLY126  GLU127  MET128  PHE129  TYR164  ASP166  LEU167  LYS168  PRO169 
 GLU170  ASN171  LEU172  LEU173  ILE174  GLN181  VAL182  THR183  ASP184  PHE185 
 GLY186  PHE187  GLY200  THR201  ASN326  PHE327  TYR330  ARG18   ARG19   ASN20  
 ALA21   ILE22   HIS23  

>  <Gold.Protein.RotatedAtoms>  (132) 
   11.3121   19.1750    7.8201 H   0  0  0  0  0  0  0  0  0  0  0  0  # atno 641  bound_to 637 
   16.0791   13.7384    7.4173 H   0  0  0  0  0  0  0  0  0  0  0  0  # atno 681  bound_to 677 
   21.1142   11.5471   -1.0958 H   0  0  0  0  0  0  0  0  0  0  0  0  # atno 702  bound_to 698 
   -6.5626   16.9566   -1.3124 H   0  0  0  0  0  0  0  0  0  0  0  0  # atno 965  bound_to 957 
    0.6443   11.6193   11.0680 H   0  0  0  0  0  0  0  0  0  0  0  0  # atno 1886 bound_to 1878
    9.2842    2.6120   -2.9487 H   0  0  0  0  0  0  0  0  0  0  0  0  # atno 2577 bound_to 2569
    7.8748    5.2461    0.5547 H   0  0  0  0  0  0  0  0  0  0  0  0  # atno 2891 bound_to 2887
   19.1465    2.9330    0.0736 H   0  0  0  0  0  0  0  0  0  0  0  0  # atno 3175 bound_to 3171
   12.7590    9.9088   10.0551 H   0  0  0  0  0  0  0  0  0  0  0  0  # atno 5278 bound_to 5270
   17.2996   13.4775    6.4282 LP  0  0  0  0  0  0  0  0  0  0  0  0  # atno 5914 bound_to 677 
   15.9509   12.5599    6.3540 LP  0  0  0  0  0  0  0  0  0  0  0  0  # atno 5915 bound_to 677 
   19.8040   11.7794   -1.9715 LP  0  0  0  0  0  0  0  0  0  0  0  0  # atno 5920 bound_to 698 
   19.7283   11.7614   -0.3404 LP  0  0  0  0  0  0  0  0  0  0  0  0  # atno 5921 bound_to 698 
   10.6558    3.3279   -3.3250 LP  0  0  0  0  0  0  0  0  0  0  0  0  # atno 5950 bound_to 2569
   10.6393    1.9861   -2.3945 LP  0  0  0  0  0  0  0  0  0  0  0  0  # atno 5951 bound_to 2569
    7.1639    6.1835    1.6282 LP  0  0  0  0  0  0  0  0  0  0  0  0  # atno 5982 bound_to 2887
    8.2231    6.8002    0.5491 LP  0  0  0  0  0  0  0  0  0  0  0  0  # atno 5983 bound_to 2887
   17.8967    1.9908   -0.2195 LP  0  0  0  0  0  0  0  0  0  0  0  0  # atno 6000 bound_to 3171
   18.8416    2.5312   -1.4368 LP  0  0  0  0  0  0  0  0  0  0  0  0  # atno 6001 bound_to 3171
   14.3517    9.9066   10.0616 LP  0  0  0  0  0  0  0  0  0  0  0  0  # atno 6004 bound_to 5270
   13.5206   10.2350    8.6948 LP  0  0  0  0  0  0  0  0  0  0  0  0  # atno 6005 bound_to 5270
   10.2966   19.7916    8.8801 LP  0  0  0  0  0  0  0  0  0  0  0  0  # atno 6055 bound_to 637 
    9.7544   19.1152    7.4962 LP  0  0  0  0  0  0  0  0  0  0  0  0  # atno 6056 bound_to 637 
    2.0653   12.1110   10.5444 LP  0  0  0  0  0  0  0  0  0  0  0  0  # atno 6063 bound_to 1878
    1.6418   10.5360   10.4624 LP  0  0  0  0  0  0  0  0  0  0  0  0  # atno 6064 bound_to 1878
   -7.2039   16.4293    0.0462 LP  0  0  0  0  0  0  0  0  0  0  0  0  # atno 6067 bound_to 957 
   -6.6924   15.3841   -1.0995 LP  0  0  0  0  0  0  0  0  0  0  0  0  # atno 6068 bound_to 957 

>  <STRIFE_LigEff_Score>  (132) 
2.9095833333333334

$$$$
unknown|pharmsElabsTestPreDocking|sdf|133|dock8
     RDKit          3D

 19 20  0  0  0  0  0  0  0  0999 V2000
   13.8502    7.5377    2.8624 C   0  0  0  0  0  0  0  0  0  0  0  0
   13.5918    8.8736    2.1422 C   0  0  0  0  0  0  0  0  0  0  0  0
   14.1975    8.8261    0.8044 N   0  0  0  0  0  0  0  0  0  0  0  0
   12.0583    9.1826    2.0951 C   0  0  0  0  0  0  0  0  0  0  0  0
   11.3405    8.0501    1.3383 C   0  0  0  0  0  0  0  0  0  0  0  0
    9.8494    8.2965    1.1378 C   0  0  0  0  0  0  0  0  0  0  0  0
    9.2176    9.1902    2.1941 C   0  0  0  0  0  0  0  0  0  0  0  0
    7.7182    9.2212    2.1377 C   0  0  0  0  0  0  0  0  0  0  0  0
    7.1521    8.1953    2.5887 O   0  0  0  0  0  0  0  0  0  0  0  0
    6.9071   10.2929    1.6239 N   0  0  0  0  0  0  0  0  0  0  0  0
    5.4518   10.0882    1.5496 C   0  0  0  0  0  0  0  0  0  0  0  0
    4.8297    9.9643    2.9070 C   0  0  0  0  0  0  0  0  0  0  0  0
    5.6044   10.1328    4.0621 C   0  0  0  0  0  0  0  0  0  0  0  0
    5.0090   10.0298    5.3195 C   0  0  0  0  0  0  0  0  0  0  0  0
    3.6416    9.7609    5.4085 C   0  0  0  0  0  0  0  0  0  0  0  0
    2.9034    9.5990    4.2782 N   0  0  0  0  0  0  0  0  0  0  0  0
    3.4607    9.6940    3.0419 C   0  0  0  0  0  0  0  0  0  0  0  0
    9.8870    9.4199    3.5355 C   0  0  0  0  0  0  0  0  0  0  0  0
   11.4287    9.3259    3.5043 C   0  0  0  0  0  0  0  0  0  0  0  0
  1  2  1  0
  2  3  1  0
  2  4  1  0
  4  5  1  0
  5  6  1  0
  6  7  1  0
  7  8  1  0
  8  9  2  0
  8 10  1  0
 10 11  1  0
 11 12  1  0
 12 13  2  0
 13 14  1  0
 14 15  2  0
 15 16  1  0
 16 17  2  0
  7 18  1  0
 18 19  1  0
 19  4  1  0
 17 12  1  0
M  CHG  1   3   1
M  END
>  <EmbedRMS>  (133) 
0.17084101544492625

>  <Gold.Version>  (133) 
2020.3.0

>  <Gold.Id.Protein>  (133) 
unknown|1q8t_protein|pdb

>  <Gold.PLP.Fitness>  (133) 
62.5115

>  <Gold.PLP.PLP>  (133) 
-44.9487

>  <Gold.PLP.part.hbond>  (133) 
-3.0000

>  <Gold.PLP.part.metal>  (133) 
0.0000

>  <Gold.PLP.part.buried>  (133) 
-2.0105

>  <Gold.PLP.part.nonpolar>  (133) 
-41.2250

>  <Gold.PLP.part.repulsive>  (133) 
0.1552

>  <Gold.PLP.ligand.clash>  (133) 
0.0000

>  <Gold.PLP.ligand.torsion>  (133) 
0.4405

>  <Gold.PLP.Chemscore.Hbond>  (133) 
4.0000

>  <Gold.PLP.Chemscore.CHOScore>  (133) 
1.9106

>  <Gold.PLP.Chemscore.Metal>  (133) 
0.0000

>  <Gold.Chemscore.Hbonds>  (133) 
donor molecule, donor type, donor heavy atom, donor atom, acceptor molecule, acceptor atom, score
      L1  H     3    25       P1  2902  2.00
      P1  H  2887  2891       L1     9  1.00
      P1  H  1888  1903       L1    16  1.00
      L1  C    15    38       P1  1891  0.91
      L1  C    17    39       P1  1855  1.00

>  <Gold.PLP.Chemscore.Internal.Correction>  (133) 
0.7119

>  <Gold.PLP.Constraint>  (133) 
-0.0000

>  <Gold.Protein.RotatedTorsions>  (133) 
[  681  677  676  673 ] final -116.16 input -179.99 | X-H torsion
[  702  698  697  694 ] final -125.92 input  179.99 | X-H torsion
[ 2577 2569 2568 2566 ] final  174.94 input   -0.13 | X-H torsion
[ 2891 2887 2886 2883 ] final  167.03 input  179.98 | X-H torsion
[ 3175 3171 3170 3167 ] final -167.46 input -179.99 | X-H torsion
[ 5278 5270 5269 5267 ] final  -54.97 input    0.55 | X-H torsion
[  641  637  636  633 ] final   -8.56 input  179.99 | X-H torsion
[ 1886 1878 1877 1875 ] final  110.39 input    1.60 | X-H torsion
[  965  957  956  954 ] final  136.53 input    0.45 | X-H torsion

>  <Gold.Protein.ActiveResidues>  (133) 
 LYS47   THR48   LEU49   GLY50   THR51   GLY52   SER53   PHE54   GLY55   ARG56  
 VAL57   MET58   LEU59   TYR69   ALA70   MET71   LYS72   ILE73   LEU74   GLU91  
 LEU95   VAL104  LYS105  MET118  VAL119  MET120  GLU121  TYR122  VAL123  PRO124 
 GLY125  GLY126  GLU127  MET128  PHE129  TYR164  ASP166  LEU167  LYS168  PRO169 
 GLU170  ASN171  LEU172  LEU173  ILE174  GLN181  VAL182  THR183  ASP184  PHE185 
 GLY186  PHE187  GLY200  THR201  ASN326  PHE327  TYR330  ARG18   ARG19   ASN20  
 ALA21   ILE22   HIS23  

>  <Gold.Protein.RotatedAtoms>  (133) 
    9.6180   19.2601    7.8014 H   0  0  0  0  0  0  0  0  0  0  0  0  # atno 641  bound_to 637 
   16.1452   13.7807    7.4183 H   0  0  0  0  0  0  0  0  0  0  0  0  # atno 681  bound_to 677 
   21.0580   11.5518   -0.8203 H   0  0  0  0  0  0  0  0  0  0  0  0  # atno 702  bound_to 698 
   -7.1169   16.7408   -0.0992 H   0  0  0  0  0  0  0  0  0  0  0  0  # atno 965  bound_to 957 
    1.3001   12.2889   10.8931 H   0  0  0  0  0  0  0  0  0  0  0  0  # atno 1886 bound_to 1878
   10.5243    1.9691   -2.4114 H   0  0  0  0  0  0  0  0  0  0  0  0  # atno 2577 bound_to 2569
    7.5317    6.8188    1.3290 H   0  0  0  0  0  0  0  0  0  0  0  0  # atno 2891 bound_to 2887
   18.2830    2.3215    0.2875 H   0  0  0  0  0  0  0  0  0  0  0  0  # atno 3175 bound_to 3171
   13.2211    9.8211   10.4300 H   0  0  0  0  0  0  0  0  0  0  0  0  # atno 5278 bound_to 5270
   17.2904   13.4165    6.3734 LP  0  0  0  0  0  0  0  0  0  0  0  0  # atno 5914 bound_to 677 
   15.8905   12.5765    6.4078 LP  0  0  0  0  0  0  0  0  0  0  0  0  # atno 5915 bound_to 677 
   20.0806   11.7322   -2.0652 LP  0  0  0  0  0  0  0  0  0  0  0  0  # atno 5920 bound_to 698 
   19.5109   11.8037   -0.5365 LP  0  0  0  0  0  0  0  0  0  0  0  0  # atno 5921 bound_to 698 
    9.2433    2.7098   -2.9993 LP  0  0  0  0  0  0  0  0  0  0  0  0  # atno 5950 bound_to 2569
   10.7460    3.2811   -3.2859 LP  0  0  0  0  0  0  0  0  0  0  0  0  # atno 5951 bound_to 2569
    8.3790    6.0855    0.1972 LP  0  0  0  0  0  0  0  0  0  0  0  0  # atno 5982 bound_to 2887
    7.3691    5.2430    1.1651 LP  0  0  0  0  0  0  0  0  0  0  0  0  # atno 5983 bound_to 2887
   18.2535    2.1147   -1.2911 LP  0  0  0  0  0  0  0  0  0  0  0  0  # atno 6000 bound_to 3171
   19.3935    3.0508   -0.5904 LP  0  0  0  0  0  0  0  0  0  0  0  0  # atno 6001 bound_to 3171
   14.4593   10.0570    9.4563 LP  0  0  0  0  0  0  0  0  0  0  0  0  # atno 6004 bound_to 5270
   12.9266   10.1768    8.9057 LP  0  0  0  0  0  0  0  0  0  0  0  0  # atno 6005 bound_to 5270
   11.1686   19.0442    7.5118 LP  0  0  0  0  0  0  0  0  0  0  0  0  # atno 6055 bound_to 637 
   10.6665   19.7730    8.8842 LP  0  0  0  0  0  0  0  0  0  0  0  0  # atno 6056 bound_to 637 
    2.2474   11.1544   10.3009 LP  0  0  0  0  0  0  0  0  0  0  0  0  # atno 6063 bound_to 1878
    0.7692   10.7877   10.8900 LP  0  0  0  0  0  0  0  0  0  0  0  0  # atno 6064 bound_to 1878
   -6.8401   15.3266   -0.7762 LP  0  0  0  0  0  0  0  0  0  0  0  0  # atno 6067 bound_to 957 
   -6.4725   16.7140   -1.5549 LP  0  0  0  0  0  0  0  0  0  0  0  0  # atno 6068 bound_to 957 

>  <STRIFE_LigEff_Score>  (133) 
3.290078947368421

$$$$
unknown|pharmsElabsTestPreDocking|sdf|134|dock10
     RDKit          3D

 16 16  0  0  0  0  0  0  0  0999 V2000
   13.8410    6.9285    3.6678 C   0  0  0  0  0  0  0  0  0  0  0  0
   13.0416    7.7164    2.6190 C   0  0  0  0  0  0  0  0  0  0  0  0
   13.1865    7.0905    1.2998 N   0  0  0  0  0  0  0  0  0  0  0  0
   11.5430    8.0200    2.9728 C   0  0  0  0  0  0  0  0  0  0  0  0
   10.4949    7.1505    2.2530 C   0  0  0  0  0  0  0  0  0  0  0  0
    9.1420    7.8087    2.0582 C   0  0  0  0  0  0  0  0  0  0  0  0
    8.7113    8.6282    3.2689 C   0  0  0  0  0  0  0  0  0  0  0  0
    7.3139    9.1504    3.0472 C   0  0  0  0  0  0  0  0  0  0  0  0
    7.0401    9.7868    1.9909 O   0  0  0  0  0  0  0  0  0  0  0  0
    6.3146    8.9403    4.0539 N   0  0  0  0  0  0  0  0  0  0  0  0
    4.9135    9.3792    3.9489 C   0  0  0  0  0  0  0  0  0  0  0  0
    4.1961    9.2079    5.2999 C   0  0  0  0  0  0  0  0  0  0  0  0
    4.8913   10.8696    3.5677 C   0  0  0  0  0  0  0  0  0  0  0  0
    4.1861    8.5810    2.8528 C   0  0  0  0  0  0  0  0  0  0  0  0
    9.6720    9.7991    3.5045 C   0  0  0  0  0  0  0  0  0  0  0  0
   11.1694    9.4411    3.4438 C   0  0  0  0  0  0  0  0  0  0  0  0
  1  2  1  0
  2  3  1  0
  2  4  1  0
  4  5  1  0
  5  6  1  0
  6  7  1  0
  7  8  1  0
  8  9  2  0
  8 10  1  0
 10 11  1  0
 11 12  1  0
 11 13  1  0
 11 14  1  0
  7 15  1  0
 15 16  1  0
 16  4  1  0
M  CHG  1   3   1
M  END
>  <EmbedRMS>  (134) 
0.17423024192686873

>  <Gold.Version>  (134) 
2020.3.0

>  <Gold.Id.Protein>  (134) 
unknown|1q8t_protein|pdb

>  <Gold.PLP.Fitness>  (134) 
40.3604

>  <Gold.PLP.PLP>  (134) 
-34.8730

>  <Gold.PLP.part.hbond>  (134) 
-1.8057

>  <Gold.PLP.part.metal>  (134) 
0.0000

>  <Gold.PLP.part.buried>  (134) 
-1.8506

>  <Gold.PLP.part.nonpolar>  (134) 
-31.4764

>  <Gold.PLP.part.repulsive>  (134) 
0.0380

>  <Gold.PLP.ligand.clash>  (134) 
0.0000

>  <Gold.PLP.ligand.torsion>  (134) 
1.4787

>  <Gold.PLP.Chemscore.Hbond>  (134) 
2.6240

>  <Gold.PLP.Chemscore.CHOScore>  (134) 
0.0000

>  <Gold.PLP.Chemscore.Metal>  (134) 
0.0000

>  <Gold.Chemscore.Hbonds>  (134) 
donor molecule, donor type, donor heavy atom, donor atom, acceptor molecule, acceptor atom, score
      L1  H     3    22       P1  2902  1.70
      L1  H     3    23       P1  2691  0.93

>  <Gold.PLP.Chemscore.Internal.Correction>  (134) 
0.5728

>  <Gold.PLP.Constraint>  (134) 
-0.0000

>  <Gold.Protein.RotatedTorsions>  (134) 
[  681  677  676  673 ] final   45.46 input -179.99 | X-H torsion
[  702  698  697  694 ] final  -52.50 input  179.99 | X-H torsion
[ 2577 2569 2568 2566 ] final   56.16 input   -0.13 | X-H torsion
[ 2891 2887 2886 2883 ] final -113.02 input  179.98 | X-H torsion
[ 3175 3171 3170 3167 ] final   23.75 input -179.99 | X-H torsion
[ 5278 5270 5269 5267 ] final -172.90 input    0.55 | X-H torsion
[  641  637  636  633 ] final  147.08 input  179.99 | X-H torsion
[ 1886 1878 1877 1875 ] final   89.79 input    1.60 | X-H torsion
[  965  957  956  954 ] final  175.16 input    0.45 | X-H torsion

>  <Gold.Protein.ActiveResidues>  (134) 
 LYS47   THR48   LEU49   GLY50   THR51   GLY52   SER53   PHE54   GLY55   ARG56  
 VAL57   MET58   LEU59   TYR69   ALA70   MET71   LYS72   ILE73   LEU74   GLU91  
 LEU95   VAL104  LYS105  MET118  VAL119  MET120  GLU121  TYR122  VAL123  PRO124 
 GLY125  GLY126  GLU127  MET128  PHE129  TYR164  ASP166  LEU167  LYS168  PRO169 
 GLU170  ASN171  LEU172  LEU173  ILE174  GLN181  VAL182  THR183  ASP184  PHE185 
 GLY186  PHE187  GLY200  THR201  ASN326  PHE327  TYR330  ARG18   ARG19   ASN20  
 ALA21   ILE22   HIS23  

>  <Gold.Protein.RotatedAtoms>  (134) 
   11.1302   19.5924    8.6176 H   0  0  0  0  0  0  0  0  0  0  0  0  # atno 641  bound_to 637 
   16.4632   12.6477    6.0980 H   0  0  0  0  0  0  0  0  0  0  0  0  # atno 681  bound_to 677 
   20.1685   11.6983   -0.2411 H   0  0  0  0  0  0  0  0  0  0  0  0  # atno 702  bound_to 698 
   -6.9229   17.1125   -0.5176 H   0  0  0  0  0  0  0  0  0  0  0  0  # atno 965  bound_to 957 
    1.5937   12.3045   10.7663 H   0  0  0  0  0  0  0  0  0  0  0  0  # atno 1886 bound_to 1878
    9.2890    2.6813   -2.9965 H   0  0  0  0  0  0  0  0  0  0  0  0  # atno 2577 bound_to 2569
    7.1647    5.7406    1.4957 H   0  0  0  0  0  0  0  0  0  0  0  0  # atno 2891 bound_to 2887
   18.8763    2.5427   -1.3791 H   0  0  0  0  0  0  0  0  0  0  0  0  # atno 3175 bound_to 3171
   14.4180   10.0632    9.4989 H   0  0  0  0  0  0  0  0  0  0  0  0  # atno 5278 bound_to 5270
   15.6763   13.3397    7.2972 LP  0  0  0  0  0  0  0  0  0  0  0  0  # atno 5914 bound_to 677 
   17.1699   13.8457    6.8736 LP  0  0  0  0  0  0  0  0  0  0  0  0  # atno 5915 bound_to 677 
   21.0654   11.5477   -1.5488 LP  0  0  0  0  0  0  0  0  0  0  0  0  # atno 5920 bound_to 698 
   19.4618   11.8341   -1.6622 LP  0  0  0  0  0  0  0  0  0  0  0  0  # atno 5921 bound_to 698 
   10.7299    3.2904   -3.2935 LP  0  0  0  0  0  0  0  0  0  0  0  0  # atno 5950 bound_to 2569
   10.5601    1.9506   -2.3756 LP  0  0  0  0  0  0  0  0  0  0  0  0  # atno 5951 bound_to 2569
    7.9612    6.9825    0.8961 LP  0  0  0  0  0  0  0  0  0  0  0  0  # atno 5982 bound_to 2887
    8.1732    5.4808    0.2908 LP  0  0  0  0  0  0  0  0  0  0  0  0  # atno 5983 bound_to 2887
   19.1344    2.9542    0.1374 LP  0  0  0  0  0  0  0  0  0  0  0  0  # atno 6000 bound_to 3171
   17.8883    1.9786   -0.2650 LP  0  0  0  0  0  0  0  0  0  0  0  0  # atno 6001 bound_to 3171
   12.9531   10.1822    8.8851 LP  0  0  0  0  0  0  0  0  0  0  0  0  # atno 6004 bound_to 5270
   13.1735    9.7969   10.4566 LP  0  0  0  0  0  0  0  0  0  0  0  0  # atno 6005 bound_to 5270
    9.5725   19.5326    8.2937 LP  0  0  0  0  0  0  0  0  0  0  0  0  # atno 6055 bound_to 637 
   10.6699   18.9346    7.2427 LP  0  0  0  0  0  0  0  0  0  0  0  0  # atno 6056 bound_to 637 
    2.0880   10.8580   10.3206 LP  0  0  0  0  0  0  0  0  0  0  0  0  # atno 6063 bound_to 1878
    0.6196   11.0676   11.0037 LP  0  0  0  0  0  0  0  0  0  0  0  0  # atno 6064 bound_to 1878
   -7.0794   15.5515   -0.2459 LP  0  0  0  0  0  0  0  0  0  0  0  0  # atno 6067 bound_to 957 
   -6.4376   16.0977   -1.6445 LP  0  0  0  0  0  0  0  0  0  0  0  0  # atno 6068 bound_to 957 

>  <STRIFE_LigEff_Score>  (134) 
2.522525

$$$$
unknown|pharmsElabsTestPreDocking|sdf|135|dock10
     RDKit          3D

 17 17  0  0  0  0  0  0  0  0999 V2000
   14.4149    7.4213    2.7733 C   0  0  0  0  0  0  0  0  0  0  0  0
   13.6415    8.4403    1.9538 C   0  0  0  0  0  0  0  0  0  0  0  0
   14.3972    9.6223    1.5594 N   0  0  0  0  0  0  0  0  0  0  0  0
   12.1434    8.6427    2.3231 C   0  0  0  0  0  0  0  0  0  0  0  0
   11.2629    7.3971    2.5317 C   0  0  0  0  0  0  0  0  0  0  0  0
    9.7924    7.8272    2.3976 C   0  0  0  0  0  0  0  0  0  0  0  0
    9.4473    8.9155    3.4298 C   0  0  0  0  0  0  0  0  0  0  0  0
    8.0286    9.3814    3.2623 C   0  0  0  0  0  0  0  0  0  0  0  0
    7.6415    9.9188    2.1870 O   0  0  0  0  0  0  0  0  0  0  0  0
    7.1266    9.2269    4.3517 N   0  0  0  0  0  0  0  0  0  0  0  0
    5.7926    9.6398    4.2526 N   0  0  0  0  0  0  0  0  0  0  0  0
    5.0377    9.6245    5.3001 C   0  0  0  0  0  0  0  0  0  0  0  0
    3.6409   10.0585    5.2111 C   0  0  0  0  0  0  0  0  0  0  0  0
    2.8910    9.8021    4.1816 N   0  0  0  0  0  0  0  0  0  0  0  0
    3.2942    9.0285    3.0796 N   0  0  0  0  0  0  0  0  0  0  0  0
   10.4147   10.1136    3.3910 C   0  0  0  0  0  0  0  0  0  0  0  0
   11.8793    9.6573    3.4493 C   0  0  0  0  0  0  0  0  0  0  0  0
  1  2  1  0
  2  3  1  0
  2  4  1  0
  4  5  1  0
  5  6  1  0
  6  7  1  0
  7  8  1  0
  8  9  2  0
  8 10  1  0
 10 11  1  0
 11 12  2  0
 12 13  1  0
 13 14  2  0
 14 15  1  0
  7 16  1  0
 16 17  1  0
 17  4  1  0
M  CHG  1   3   1
M  END
>  <EmbedRMS>  (135) 
0.1883840412854219

>  <Gold.Version>  (135) 
2020.3.0

>  <Gold.Id.Protein>  (135) 
unknown|1q8t_protein|pdb

>  <Gold.PLP.Fitness>  (135) 
41.1732

>  <Gold.PLP.PLP>  (135) 
-35.5823

>  <Gold.PLP.part.hbond>  (135) 
-2.0000

>  <Gold.PLP.part.metal>  (135) 
0.0000

>  <Gold.PLP.part.buried>  (135) 
-8.4184

>  <Gold.PLP.part.nonpolar>  (135) 
-26.0525

>  <Gold.PLP.part.repulsive>  (135) 
0.2741

>  <Gold.PLP.ligand.clash>  (135) 
0.0000

>  <Gold.PLP.ligand.torsion>  (135) 
0.3942

>  <Gold.PLP.Chemscore.Hbond>  (135) 
2.0000

>  <Gold.PLP.Chemscore.CHOScore>  (135) 
0.0000

>  <Gold.PLP.Chemscore.Metal>  (135) 
0.0000

>  <Gold.Chemscore.Hbonds>  (135) 
donor molecule, donor type, donor heavy atom, donor atom, acceptor molecule, acceptor atom, score
      L1  H     3    22       P1   675  1.00
      P1  H  1888  1903       L1    14  1.00

>  <Gold.PLP.Chemscore.Internal.Correction>  (135) 
0.3793

>  <Gold.PLP.Constraint>  (135) 
-0.0000

>  <Gold.Protein.RotatedTorsions>  (135) 
[  681  677  676  673 ] final   16.73 input -179.99 | X-H torsion
[  702  698  697  694 ] final   57.67 input  179.99 | X-H torsion
[ 2577 2569 2568 2566 ] final -162.49 input   -0.13 | X-H torsion
[ 2891 2887 2886 2883 ] final  -15.71 input  179.98 | X-H torsion
[ 3175 3171 3170 3167 ] final  144.59 input -179.99 | X-H torsion
[ 5278 5270 5269 5267 ] final  -31.00 input    0.55 | X-H torsion
[  641  637  636  633 ] final   86.06 input  179.99 | X-H torsion
[ 1886 1878 1877 1875 ] final  117.72 input    1.60 | X-H torsion
[  965  957  956  954 ] final  123.91 input    0.45 | X-H torsion

>  <Gold.Protein.ActiveResidues>  (135) 
 LYS47   THR48   LEU49   GLY50   THR51   GLY52   SER53   PHE54   GLY55   ARG56  
 VAL57   MET58   LEU59   TYR69   ALA70   MET71   LYS72   ILE73   LEU74   GLU91  
 LEU95   VAL104  LYS105  MET118  VAL119  MET120  GLU121  TYR122  VAL123  PRO124 
 GLY125  GLY126  GLU127  MET128  PHE129  TYR164  ASP166  LEU167  LYS168  PRO169 
 GLU170  ASN171  LEU172  LEU173  ILE174  GLN181  VAL182  THR183  ASP184  PHE185 
 GLY186  PHE187  GLY200  THR201  ASN326  PHE327  TYR330  ARG18   ARG19   ASN20  
 ALA21   ILE22   HIS23  

>  <Gold.Protein.RotatedAtoms>  (135) 
   10.2630   19.7531    8.8375 H   0  0  0  0  0  0  0  0  0  0  0  0  # atno 641  bound_to 637 
   16.0655   12.5914    6.2886 H   0  0  0  0  0  0  0  0  0  0  0  0  # atno 681  bound_to 677 
   19.4286   11.8538   -1.5015 H   0  0  0  0  0  0  0  0  0  0  0  0  # atno 702  bound_to 698 
   -7.1534   16.5633   -0.0227 H   0  0  0  0  0  0  0  0  0  0  0  0  # atno 965  bound_to 957 
    1.1978   12.2562   10.9326 H   0  0  0  0  0  0  0  0  0  0  0  0  # atno 1886 bound_to 1878
   10.8141    2.1404   -2.5091 H   0  0  0  0  0  0  0  0  0  0  0  0  # atno 2577 bound_to 2569
    7.9375    5.2879    0.4921 H   0  0  0  0  0  0  0  0  0  0  0  0  # atno 2891 bound_to 2887
   17.9379    1.9938   -0.2632 H   0  0  0  0  0  0  0  0  0  0  0  0  # atno 3175 bound_to 3171
   12.9061    9.8655   10.2368 H   0  0  0  0  0  0  0  0  0  0  0  0  # atno 5278 bound_to 5270
   15.9641   13.6749    7.4512 LP  0  0  0  0  0  0  0  0  0  0  0  0  # atno 5914 bound_to 677 
   17.3007   13.5698    6.5190 LP  0  0  0  0  0  0  0  0  0  0  0  0  # atno 5915 bound_to 677 
   20.3215   11.6535   -0.1976 LP  0  0  0  0  0  0  0  0  0  0  0  0  # atno 5920 bound_to 698 
   20.9840   11.5648   -1.6875 LP  0  0  0  0  0  0  0  0  0  0  0  0  # atno 5921 bound_to 698 
    9.2695    2.4084   -2.7881 LP  0  0  0  0  0  0  0  0  0  0  0  0  # atno 5950 bound_to 2569
   10.4147    3.4022   -3.3942 LP  0  0  0  0  0  0  0  0  0  0  0  0  # atno 5951 bound_to 2569
    7.1467    6.0820    1.6238 LP  0  0  0  0  0  0  0  0  0  0  0  0  # atno 5982 bound_to 2887
    8.1743    6.8577    0.6193 LP  0  0  0  0  0  0  0  0  0  0  0  0  # atno 5983 bound_to 2887
   18.8676    2.5514   -1.4296 LP  0  0  0  0  0  0  0  0  0  0  0  0  # atno 6000 bound_to 3171
   19.1426    2.9590    0.1276 LP  0  0  0  0  0  0  0  0  0  0  0  0  # atno 6001 bound_to 3171
   14.4445    9.9631    9.8362 LP  0  0  0  0  0  0  0  0  0  0  0  0  # atno 6004 bound_to 5270
   13.2729   10.2240    8.7290 LP  0  0  0  0  0  0  0  0  0  0  0  0  # atno 6005 bound_to 5270
    9.7843   19.0987    7.4672 LP  0  0  0  0  0  0  0  0  0  0  0  0  # atno 6055 bound_to 637 
   11.3715   19.1993    7.8377 LP  0  0  0  0  0  0  0  0  0  0  0  0  # atno 6056 bound_to 637 
    2.2799   11.2703   10.3063 LP  0  0  0  0  0  0  0  0  0  0  0  0  # atno 6063 bound_to 1878
    0.8445   10.7062   10.8430 LP  0  0  0  0  0  0  0  0  0  0  0  0  # atno 6064 bound_to 1878
   -6.7545   15.3428   -0.9641 LP  0  0  0  0  0  0  0  0  0  0  0  0  # atno 6067 bound_to 957 
   -6.5197   16.8848   -1.4476 LP  0  0  0  0  0  0  0  0  0  0  0  0  # atno 6068 bound_to 957 

>  <STRIFE_LigEff_Score>  (135) 
2.4219529411764706

$$$$
unknown|pharmsElabsTestPreDocking|sdf|136|dock2
     RDKit          3D

 17 17  0  0  0  0  0  0  0  0999 V2000
    3.3031    8.6164    2.2303 C   0  0  0  0  0  0  0  0  0  0  0  0
    4.6060    8.9041    2.1804 C   0  0  0  0  0  0  0  0  0  0  0  0
    5.4818    9.1681    3.3482 C   0  0  0  0  0  0  0  0  0  0  0  0
    4.9740    9.7816    4.4446 C   0  0  0  0  0  0  0  0  0  0  0  0
    5.7842   10.1571    5.6477 C   0  0  0  0  0  0  0  0  0  0  0  0
    6.9055    8.8973    3.2898 N   0  0  0  0  0  0  0  0  0  0  0  0
    7.9488    9.2912    2.3676 C   0  0  0  0  0  0  0  0  0  0  0  0
    7.6230   10.0833    1.4461 O   0  0  0  0  0  0  0  0  0  0  0  0
    9.4165    8.9608    2.3835 C   0  0  0  0  0  0  0  0  0  0  0  0
    9.7260    7.5004    2.6666 C   0  0  0  0  0  0  0  0  0  0  0  0
   11.1729    7.1255    2.4207 C   0  0  0  0  0  0  0  0  0  0  0  0
   12.2425    8.1810    2.7195 C   0  0  0  0  0  0  0  0  0  0  0  0
   13.5807    7.9019    1.9917 C   0  0  0  0  0  0  0  0  0  0  0  0
   14.5305    9.0737    1.7426 C   0  0  0  0  0  0  0  0  0  0  0  0
   13.4109    7.0635    0.8040 N   0  0  0  0  0  0  0  0  0  0  0  0
   11.8328    9.6621    2.5269 C   0  0  0  0  0  0  0  0  0  0  0  0
   10.3852   10.0231    2.8318 C   0  0  0  0  0  0  0  0  0  0  0  0
  1  2  2  0
  2  3  1  0
  3  4  2  0
  4  5  1  0
  3  6  1  0
  6  7  1  0
  7  8  2  0
  7  9  1  0
  9 10  1  0
 10 11  1  0
 11 12  1  0
 12 13  1  0
 13 14  1  0
 13 15  1  0
 12 16  1  0
 16 17  1  0
 17  9  1  0
M  CHG  1  15   1
M  END
>  <EmbedRMS>  (136) 
0.29216731409503444

>  <Gold.Version>  (136) 
2020.3.0

>  <Gold.Id.Protein>  (136) 
unknown|1q8t_protein|pdb

>  <Gold.PLP.Fitness>  (136) 
45.1569

>  <Gold.PLP.PLP>  (136) 
-39.4381

>  <Gold.PLP.part.hbond>  (136) 
-1.6946

>  <Gold.PLP.part.metal>  (136) 
0.0000

>  <Gold.PLP.part.buried>  (136) 
-2.2457

>  <Gold.PLP.part.nonpolar>  (136) 
-35.7319

>  <Gold.PLP.part.repulsive>  (136) 
0.0545

>  <Gold.PLP.ligand.clash>  (136) 
0.0000

>  <Gold.PLP.ligand.torsion>  (136) 
2.0587

>  <Gold.PLP.Chemscore.Hbond>  (136) 
2.9675

>  <Gold.PLP.Chemscore.CHOScore>  (136) 
0.0000

>  <Gold.PLP.Chemscore.Metal>  (136) 
0.0000

>  <Gold.Chemscore.Hbonds>  (136) 
donor molecule, donor type, donor heavy atom, donor atom, acceptor molecule, acceptor atom, score
      L1  H    15    36       P1  2691  0.97
      L1  H    15    38       P1  2902  2.00

>  <Gold.PLP.Chemscore.Internal.Correction>  (136) 
0.9339

>  <Gold.PLP.Constraint>  (136) 
-0.0000

>  <Gold.Protein.RotatedTorsions>  (136) 
[  681  677  676  673 ] final -117.16 input -179.99 | X-H torsion
[  702  698  697  694 ] final  136.70 input  179.99 | X-H torsion
[ 2577 2569 2568 2566 ] final   72.52 input   -0.13 | X-H torsion
[ 2891 2887 2886 2883 ] final -128.78 input  179.98 | X-H torsion
[ 3175 3171 3170 3167 ] final -122.52 input -179.99 | X-H torsion
[ 5278 5270 5269 5267 ] final  160.66 input    0.55 | X-H torsion
[  641  637  636  633 ] final -135.10 input  179.99 | X-H torsion
[ 1886 1878 1877 1875 ] final   75.69 input    1.60 | X-H torsion
[  965  957  956  954 ] final  -69.78 input    0.45 | X-H torsion

>  <Gold.Protein.ActiveResidues>  (136) 
 LYS47   THR48   LEU49   GLY50   THR51   GLY52   SER53   PHE54   GLY55   ARG56  
 VAL57   MET58   LEU59   TYR69   ALA70   MET71   LYS72   ILE73   LEU74   GLU91  
 LEU95   VAL104  LYS105  MET118  VAL119  MET120  GLU121  TYR122  VAL123  PRO124 
 GLY125  GLY126  GLU127  MET128  PHE129  TYR164  ASP166  LEU167  LYS168  PRO169 
 GLU170  ASN171  LEU172  LEU173  ILE174  GLN181  VAL182  THR183  ASP184  PHE185 
 GLY186  PHE187  GLY200  THR201  ASN326  PHE327  TYR330  ARG18   ARG19   ASN20  
 ALA21   ILE22   HIS23  

>  <Gold.Protein.RotatedAtoms>  (136) 
   11.1964   19.0789    7.6192 H   0  0  0  0  0  0  0  0  0  0  0  0  # atno 641  bound_to 637 
   16.1585   13.7886    7.4179 H   0  0  0  0  0  0  0  0  0  0  0  0  # atno 681  bound_to 677 
   20.4367   11.6848   -2.0075 H   0  0  0  0  0  0  0  0  0  0  0  0  # atno 702  bound_to 698 
   -6.4370   16.1828   -1.6047 H   0  0  0  0  0  0  0  0  0  0  0  0  # atno 965  bound_to 957 
    1.7851   12.2501   10.6727 H   0  0  0  0  0  0  0  0  0  0  0  0  # atno 1886 bound_to 1878
    9.2988    2.4725   -2.8508 H   0  0  0  0  0  0  0  0  0  0  0  0  # atno 2577 bound_to 2569
    7.1550    5.9764    1.5634 H   0  0  0  0  0  0  0  0  0  0  0  0  # atno 2891 bound_to 2887
   18.8301    2.7315    0.3242 H   0  0  0  0  0  0  0  0  0  0  0  0  # atno 3175 bound_to 3171
   14.2713   10.1534    9.1270 H   0  0  0  0  0  0  0  0  0  0  0  0  # atno 5278 bound_to 5270
   17.2878   13.4042    6.3628 LP  0  0  0  0  0  0  0  0  0  0  0  0  # atno 5914 bound_to 677 
   15.8790   12.5804    6.4188 LP  0  0  0  0  0  0  0  0  0  0  0  0  # atno 5915 bound_to 677 
   19.3403   11.8402   -0.8624 LP  0  0  0  0  0  0  0  0  0  0  0  0  # atno 5920 bound_to 698 
   20.9047   11.5557   -0.4904 LP  0  0  0  0  0  0  0  0  0  0  0  0  # atno 5921 bound_to 698 
   10.4929    3.3851   -3.3766 LP  0  0  0  0  0  0  0  0  0  0  0  0  # atno 5950 bound_to 2569
   10.7867    2.0758   -2.4460 LP  0  0  0  0  0  0  0  0  0  0  0  0  # atno 5951 bound_to 2569
    8.1146    6.9102    0.7011 LP  0  0  0  0  0  0  0  0  0  0  0  0  # atno 5982 bound_to 2887
    8.0299    5.3048    0.4146 LP  0  0  0  0  0  0  0  0  0  0  0  0  # atno 5983 bound_to 2887
   17.8998    1.9314   -0.6906 LP  0  0  0  0  0  0  0  0  0  0  0  0  # atno 6000 bound_to 3171
   19.1714    2.8027   -1.2295 LP  0  0  0  0  0  0  0  0  0  0  0  0  # atno 6001 bound_to 3171
   12.6816   10.0993    9.2097 LP  0  0  0  0  0  0  0  0  0  0  0  0  # atno 6004 bound_to 5270
   13.5994    9.7849   10.5233 LP  0  0  0  0  0  0  0  0  0  0  0  0  # atno 6005 bound_to 5270
   10.5603   19.7852    8.8965 LP  0  0  0  0  0  0  0  0  0  0  0  0  # atno 6055 bound_to 637 
    9.6124   19.2229    7.6915 LP  0  0  0  0  0  0  0  0  0  0  0  0  # atno 6056 bound_to 637 
    1.9292   10.6949   10.3628 LP  0  0  0  0  0  0  0  0  0  0  0  0  # atno 6063 bound_to 1878
    0.5770   11.2880   11.0601 LP  0  0  0  0  0  0  0  0  0  0  0  0  # atno 6064 bound_to 1878
   -6.9754   17.1269   -0.4412 LP  0  0  0  0  0  0  0  0  0  0  0  0  # atno 6067 bound_to 957 
   -7.0532   15.5015   -0.3043 LP  0  0  0  0  0  0  0  0  0  0  0  0  # atno 6068 bound_to 957 

>  <STRIFE_LigEff_Score>  (136) 
2.6562882352941175

$$$$
unknown|pharmsElabsTestPreDocking|sdf|137|dock6
     RDKit          3D

 16 16  0  0  0  0  0  0  0  0999 V2000
    3.3000    9.4675    3.1947 C   0  0  0  0  0  0  0  0  0  0  0  0
    3.6574    8.7526    4.4183 N   0  0  0  0  0  0  0  0  0  0  0  0
    4.3437    9.6629    5.3451 C   0  0  0  0  0  0  0  0  0  0  0  0
    5.4367   10.4519    4.6276 C   0  0  0  0  0  0  0  0  0  0  0  0
    6.6981    9.7201    4.6537 N   0  0  0  0  0  0  0  0  0  0  0  0
    7.4130    9.4207    3.4555 C   0  0  0  0  0  0  0  0  0  0  0  0
    6.9684    9.8038    2.3373 O   0  0  0  0  0  0  0  0  0  0  0  0
    8.7060    8.6584    3.5410 C   0  0  0  0  0  0  0  0  0  0  0  0
    9.0343    8.0166    2.1962 C   0  0  0  0  0  0  0  0  0  0  0  0
   10.2557    7.1148    2.2943 C   0  0  0  0  0  0  0  0  0  0  0  0
   11.4609    7.7026    3.0763 C   0  0  0  0  0  0  0  0  0  0  0  0
   12.8304    7.8324    2.3815 C   0  0  0  0  0  0  0  0  0  0  0  0
   14.0826    7.8637    3.2575 C   0  0  0  0  0  0  0  0  0  0  0  0
   12.8522    8.9202    1.3941 N   0  0  0  0  0  0  0  0  0  0  0  0
   11.1674    8.8434    4.0986 C   0  0  0  0  0  0  0  0  0  0  0  0
    9.8438    9.5895    3.9436 C   0  0  0  0  0  0  0  0  0  0  0  0
  1  2  1  0
  2  3  1  0
  3  4  1  0
  4  5  1  0
  5  6  1  0
  6  7  2  0
  6  8  1  0
  8  9  1  0
  9 10  1  0
 10 11  1  0
 11 12  1  0
 12 13  1  0
 12 14  1  0
 11 15  1  0
 15 16  1  0
 16  8  1  0
M  CHG  2   2   1  14   1
M  END
>  <EmbedRMS>  (137) 
0.2153162907233524

>  <Gold.Version>  (137) 
2020.3.0

>  <Gold.Id.Protein>  (137) 
unknown|1q8t_protein|pdb

>  <Gold.PLP.Fitness>  (137) 
40.6947

>  <Gold.PLP.PLP>  (137) 
-36.2927

>  <Gold.PLP.part.hbond>  (137) 
-1.0000

>  <Gold.PLP.part.metal>  (137) 
0.0000

>  <Gold.PLP.part.buried>  (137) 
-2.9929

>  <Gold.PLP.part.nonpolar>  (137) 
-32.8636

>  <Gold.PLP.part.repulsive>  (137) 
0.0897

>  <Gold.PLP.ligand.clash>  (137) 
0.0000

>  <Gold.PLP.ligand.torsion>  (137) 
1.0166

>  <Gold.PLP.Chemscore.Hbond>  (137) 
2.0000

>  <Gold.PLP.Chemscore.CHOScore>  (137) 
0.0000

>  <Gold.PLP.Chemscore.Metal>  (137) 
0.0000

>  <Gold.Chemscore.Hbonds>  (137) 
donor molecule, donor type, donor heavy atom, donor atom, acceptor molecule, acceptor atom, score
      L1  H    14    39       P1  2902  2.00

>  <Gold.PLP.Chemscore.Internal.Correction>  (137) 
0.4352

>  <Gold.PLP.Constraint>  (137) 
-0.0000

>  <Gold.Protein.RotatedTorsions>  (137) 
[  681  677  676  673 ] final  168.88 input -179.99 | X-H torsion
[  702  698  697  694 ] final  137.47 input  179.99 | X-H torsion
[ 2577 2569 2568 2566 ] final   90.93 input   -0.13 | X-H torsion
[ 2891 2887 2886 2883 ] final  144.83 input  179.98 | X-H torsion
[ 3175 3171 3170 3167 ] final   97.71 input -179.99 | X-H torsion
[ 5278 5270 5269 5267 ] final  -99.60 input    0.55 | X-H torsion
[  641  637  636  633 ] final   -7.36 input  179.99 | X-H torsion
[ 1886 1878 1877 1875 ] final -106.31 input    1.60 | X-H torsion
[  965  957  956  954 ] final -137.56 input    0.45 | X-H torsion

>  <Gold.Protein.ActiveResidues>  (137) 
 LYS47   THR48   LEU49   GLY50   THR51   GLY52   SER53   PHE54   GLY55   ARG56  
 VAL57   MET58   LEU59   TYR69   ALA70   MET71   LYS72   ILE73   LEU74   GLU91  
 LEU95   VAL104  LYS105  MET118  VAL119  MET120  GLU121  TYR122  VAL123  PRO124 
 GLY125  GLY126  GLU127  MET128  PHE129  TYR164  ASP166  LEU167  LYS168  PRO169 
 GLU170  ASN171  LEU172  LEU173  ILE174  GLN181  VAL182  THR183  ASP184  PHE185 
 GLY186  PHE187  GLY200  THR201  ASN326  PHE327  TYR330  ARG18   ARG19   ASN20  
 ALA21   ILE22   HIS23  

>  <Gold.Protein.RotatedAtoms>  (137) 
    9.6124   19.2685    7.8173 H   0  0  0  0  0  0  0  0  0  0  0  0  # atno 641  bound_to 637 
   17.0996   13.8504    6.8962 H   0  0  0  0  0  0  0  0  0  0  0  0  # atno 681  bound_to 677 
   20.4483   11.6827   -2.0047 H   0  0  0  0  0  0  0  0  0  0  0  0  # atno 702  bound_to 698 
   -6.6266   17.0612   -1.1697 H   0  0  0  0  0  0  0  0  0  0  0  0  # atno 965  bound_to 957 
    1.0534   10.6162   10.7166 H   0  0  0  0  0  0  0  0  0  0  0  0  # atno 1886 bound_to 1878
    9.3947    2.2541   -2.6921 H   0  0  0  0  0  0  0  0  0  0  0  0  # atno 2577 bound_to 2569
    7.7571    6.9375    1.0963 H   0  0  0  0  0  0  0  0  0  0  0  0  # atno 2891 bound_to 2887
   18.0513    1.9856   -0.9667 H   0  0  0  0  0  0  0  0  0  0  0  0  # atno 3175 bound_to 3171
   13.9011    9.8339   10.4070 H   0  0  0  0  0  0  0  0  0  0  0  0  # atno 5278 bound_to 5270
   16.5228   12.6227    6.0619 LP  0  0  0  0  0  0  0  0  0  0  0  0  # atno 5914 bound_to 677 
   15.6536   13.2969    7.2688 LP  0  0  0  0  0  0  0  0  0  0  0  0  # atno 5915 bound_to 677 
   19.3368   11.8411   -0.8746 LP  0  0  0  0  0  0  0  0  0  0  0  0  # atno 5920 bound_to 698 
   20.8961   11.5571   -0.4812 LP  0  0  0  0  0  0  0  0  0  0  0  0  # atno 5921 bound_to 698 
   10.1968    3.4197   -3.4223 LP  0  0  0  0  0  0  0  0  0  0  0  0  # atno 5950 bound_to 2569
   10.9819    2.2712   -2.5673 LP  0  0  0  0  0  0  0  0  0  0  0  0  # atno 5951 bound_to 2569
    8.2975    5.7319    0.2070 LP  0  0  0  0  0  0  0  0  0  0  0  0  # atno 5982 bound_to 2887
    7.2135    5.4717    1.4002 LP  0  0  0  0  0  0  0  0  0  0  0  0  # atno 5983 bound_to 2887
   19.3212    2.9461   -0.9813 LP  0  0  0  0  0  0  0  0  0  0  0  0  # atno 6000 bound_to 3171
   18.5697    2.5730    0.4197 LP  0  0  0  0  0  0  0  0  0  0  0  0  # atno 6001 bound_to 3171
   14.0785   10.1984    8.8667 LP  0  0  0  0  0  0  0  0  0  0  0  0  # atno 6004 bound_to 5270
   12.5920   10.0220    9.5194 LP  0  0  0  0  0  0  0  0  0  0  0  0  # atno 6005 bound_to 5270
   11.1552   19.0382    7.4985 LP  0  0  0  0  0  0  0  0  0  0  0  0  # atno 6055 bound_to 637 
   10.6858   19.7702    8.8808 LP  0  0  0  0  0  0  0  0  0  0  0  0  # atno 6056 bound_to 637 
    0.9737   12.1740   11.0363 LP  0  0  0  0  0  0  0  0  0  0  0  0  # atno 6063 bound_to 1878
    2.3027   11.5289   10.3404 LP  0  0  0  0  0  0  0  0  0  0  0  0  # atno 6064 bound_to 1878
   -7.2109   16.2316    0.0573 LP  0  0  0  0  0  0  0  0  0  0  0  0  # atno 6067 bound_to 957 
   -6.6181   15.4716   -1.2609 LP  0  0  0  0  0  0  0  0  0  0  0  0  # atno 6068 bound_to 957 

>  <STRIFE_LigEff_Score>  (137) 
2.54341875

$$$$
unknown|pharmsElabsTestPreDocking|sdf|138|dock9
     RDKit          3D

 19 20  0  0  0  0  0  0  0  0999 V2000
   14.7297    9.1538    2.0895 C   0  0  0  0  0  0  0  0  0  0  0  0
   13.7796    7.9731    1.9801 C   0  0  0  0  0  0  0  0  0  0  0  0
   14.1880    6.9455    1.0283 N   0  0  0  0  0  0  0  0  0  0  0  0
   12.2541    8.2797    2.0942 C   0  0  0  0  0  0  0  0  0  0  0  0
   11.2977    7.0937    2.2961 C   0  0  0  0  0  0  0  0  0  0  0  0
    9.8377    7.5000    2.0078 C   0  0  0  0  0  0  0  0  0  0  0  0
    9.5481    8.9920    2.1932 C   0  0  0  0  0  0  0  0  0  0  0  0
    8.1004    9.3727    2.0871 C   0  0  0  0  0  0  0  0  0  0  0  0
    7.5356    9.0295    1.0184 O   0  0  0  0  0  0  0  0  0  0  0  0
    7.3434   10.0999    3.0696 N   0  0  0  0  0  0  0  0  0  0  0  0
    5.9604   10.4803    2.7444 C   0  0  0  0  0  0  0  0  0  0  0  0
    4.9887    9.9740    3.7612 C   0  0  0  0  0  0  0  0  0  0  0  0
    5.0393   10.3070    5.0652 N   0  0  0  0  0  0  0  0  0  0  0  0
    3.9669    9.6564    5.5688 C   0  0  0  0  0  0  0  0  0  0  0  0
    3.2932    8.9641    4.6283 N   0  0  0  0  0  0  0  0  0  0  0  0
    3.9404    9.1745    3.4976 N   0  0  0  0  0  0  0  0  0  0  0  0
    3.5601    8.5997    2.2129 C   0  0  0  0  0  0  0  0  0  0  0  0
   10.4432    9.8478    3.0747 C   0  0  0  0  0  0  0  0  0  0  0  0
   11.9185    9.3936    3.1070 C   0  0  0  0  0  0  0  0  0  0  0  0
  1  2  1  0
  2  3  1  0
  2  4  1  0
  4  5  1  0
  5  6  1  0
  6  7  1  0
  7  8  1  0
  8  9  2  0
  8 10  1  0
 10 11  1  0
 11 12  1  0
 12 13  2  0
 13 14  1  0
 14 15  2  0
 15 16  1  0
 16 17  1  0
  7 18  1  0
 18 19  1  0
 19  4  1  0
 16 12  1  0
M  CHG  1   3   1
M  END
>  <EmbedRMS>  (138) 
0.24309368491659913

>  <Gold.Version>  (138) 
2020.3.0

>  <Gold.Id.Protein>  (138) 
unknown|1q8t_protein|pdb

>  <Gold.PLP.Fitness>  (138) 
53.8462

>  <Gold.PLP.PLP>  (138) 
-38.7086

>  <Gold.PLP.part.hbond>  (138) 
-4.0000

>  <Gold.PLP.part.metal>  (138) 
0.0000

>  <Gold.PLP.part.buried>  (138) 
0.7678

>  <Gold.PLP.part.nonpolar>  (138) 
-37.1366

>  <Gold.PLP.part.repulsive>  (138) 
0.2308

>  <Gold.PLP.ligand.clash>  (138) 
0.0000

>  <Gold.PLP.ligand.torsion>  (138) 
0.5872

>  <Gold.PLP.Chemscore.Hbond>  (138) 
4.8080

>  <Gold.PLP.Chemscore.CHOScore>  (138) 
0.2928

>  <Gold.PLP.Chemscore.Metal>  (138) 
0.0000

>  <Gold.Chemscore.Hbonds>  (138) 
donor molecule, donor type, donor heavy atom, donor atom, acceptor molecule, acceptor atom, score
      L1  H     3    24       P1  2902  2.00
      L1  H     3    25       P1  2691  1.00
      P1  H  2887  2891       L1     9  0.90
      P1  H  1888  1903       L1    15  0.90
      L1  C    14    36       P1  1891  0.29

>  <Gold.PLP.Chemscore.Internal.Correction>  (138) 
1.0094

>  <Gold.PLP.Constraint>  (138) 
-0.0000

>  <Gold.Protein.RotatedTorsions>  (138) 
[  681  677  676  673 ] final  -11.73 input -179.99 | X-H torsion
[  702  698  697  694 ] final  119.87 input  179.99 | X-H torsion
[ 2577 2569 2568 2566 ] final  -62.01 input   -0.13 | X-H torsion
[ 2891 2887 2886 2883 ] final  143.98 input  179.98 | X-H torsion
[ 3175 3171 3170 3167 ] final  -62.83 input -179.99 | X-H torsion
[ 5278 5270 5269 5267 ] final  -35.89 input    0.55 | X-H torsion
[  641  637  636  633 ] final  -18.86 input  179.99 | X-H torsion
[ 1886 1878 1877 1875 ] final -124.94 input    1.60 | X-H torsion
[  965  957  956  954 ] final -147.92 input    0.45 | X-H torsion

>  <Gold.Protein.ActiveResidues>  (138) 
 LYS47   THR48   LEU49   GLY50   THR51   GLY52   SER53   PHE54   GLY55   ARG56  
 VAL57   MET58   LEU59   TYR69   ALA70   MET71   LYS72   ILE73   LEU74   GLU91  
 LEU95   VAL104  LYS105  MET118  VAL119  MET120  GLU121  TYR122  VAL123  PRO124 
 GLY125  GLY126  GLU127  MET128  PHE129  TYR164  ASP166  LEU167  LYS168  PRO169 
 GLU170  ASN171  LEU172  LEU173  ILE174  GLN181  VAL182  THR183  ASP184  PHE185 
 GLY186  PHE187  GLY200  THR201  ASN326  PHE327  TYR330  ARG18   ARG19   ASN20  
 ALA21   ILE22   HIS23  

>  <Gold.Protein.RotatedAtoms>  (138) 
    9.6808   19.1901    7.6712 H   0  0  0  0  0  0  0  0  0  0  0  0  # atno 641  bound_to 637 
   15.7604   12.7013    6.5865 H   0  0  0  0  0  0  0  0  0  0  0  0  # atno 681  bound_to 677 
   20.1795   11.7308   -2.0293 H   0  0  0  0  0  0  0  0  0  0  0  0  # atno 702  bound_to 698 
   -6.6880   17.1232   -1.0335 H   0  0  0  0  0  0  0  0  0  0  0  0  # atno 965  bound_to 957 
    0.8405   10.7717   10.8370 H   0  0  0  0  0  0  0  0  0  0  0  0  # atno 1886 bound_to 1878
   10.6798    3.2612   -3.2972 H   0  0  0  0  0  0  0  0  0  0  0  0  # atno 2577 bound_to 2569
    7.7658    6.9395    1.0866 H   0  0  0  0  0  0  0  0  0  0  0  0  # atno 2891 bound_to 2887
   19.3400    3.0213   -0.3472 H   0  0  0  0  0  0  0  0  0  0  0  0  # atno 3175 bound_to 3171
   12.9633    9.8538   10.2865 H   0  0  0  0  0  0  0  0  0  0  0  0  # atno 5278 bound_to 5270
   16.3648   13.9071    7.4333 LP  0  0  0  0  0  0  0  0  0  0  0  0  # atno 5914 bound_to 677 
   17.2210   13.2218    6.2234 LP  0  0  0  0  0  0  0  0  0  0  0  0  # atno 5915 bound_to 677 
   19.4553   11.8150   -0.6130 LP  0  0  0  0  0  0  0  0  0  0  0  0  # atno 5920 bound_to 698 
   21.0603   11.5325   -0.7170 LP  0  0  0  0  0  0  0  0  0  0  0  0  # atno 5921 bound_to 698 
   10.5872    1.9619   -2.3815 LP  0  0  0  0  0  0  0  0  0  0  0  0  # atno 5950 bound_to 2569
    9.2383    2.6686   -2.9710 LP  0  0  0  0  0  0  0  0  0  0  0  0  # atno 5951 bound_to 2569
    8.2927    5.7191    0.2095 LP  0  0  0  0  0  0  0  0  0  0  0  0  # atno 5982 bound_to 2887
    7.2090    5.4824    1.4079 LP  0  0  0  0  0  0  0  0  0  0  0  0  # atno 5983 bound_to 2887
   18.0930    2.1899    0.1905 LP  0  0  0  0  0  0  0  0  0  0  0  0  # atno 6000 bound_to 3171
   18.4416    2.2393   -1.4040 LP  0  0  0  0  0  0  0  0  0  0  0  0  # atno 6001 bound_to 3171
   14.4609    9.9822    9.7596 LP  0  0  0  0  0  0  0  0  0  0  0  0  # atno 6004 bound_to 5270
   13.1964   10.2172    8.7534 LP  0  0  0  0  0  0  0  0  0  0  0  0  # atno 6005 bound_to 5270
   11.2701   19.1012    7.6345 LP  0  0  0  0  0  0  0  0  0  0  0  0  # atno 6055 bound_to 637 
   10.4988   19.7897    8.8986 LP  0  0  0  0  0  0  0  0  0  0  0  0  # atno 6056 bound_to 637 
    1.2308   12.3114   10.9464 LP  0  0  0  0  0  0  0  0  0  0  0  0  # atno 6063 bound_to 1878
    2.2697   11.2279   10.3036 LP  0  0  0  0  0  0  0  0  0  0  0  0  # atno 6064 bound_to 1878
   -7.2030   16.0627    0.0366 LP  0  0  0  0  0  0  0  0  0  0  0  0  # atno 6067 bound_to 957 
   -6.5613   15.5752   -1.3837 LP  0  0  0  0  0  0  0  0  0  0  0  0  # atno 6068 bound_to 957 

>  <STRIFE_LigEff_Score>  (138) 
2.8340105263157898

$$$$
unknown|pharmsElabsTestPreDocking|sdf|139|dock7
     RDKit          3D

 14 14  0  0  0  0  0  0  0  0999 V2000
   14.7576    7.7837    3.2055 C   0  0  0  0  0  0  0  0  0  0  0  0
   13.6215    7.9811    2.1878 C   0  0  0  0  0  0  0  0  0  0  0  0
   13.7365    6.9973    1.1071 N   0  0  0  0  0  0  0  0  0  0  0  0
   12.1665    8.0643    2.7744 C   0  0  0  0  0  0  0  0  0  0  0  0
   11.1028    7.4068    1.8963 C   0  0  0  0  0  0  0  0  0  0  0  0
    9.6912    7.4299    2.4632 C   0  0  0  0  0  0  0  0  0  0  0  0
    9.3359    8.7438    3.1175 C   0  0  0  0  0  0  0  0  0  0  0  0
    7.8720    8.8977    3.4211 C   0  0  0  0  0  0  0  0  0  0  0  0
    7.1074    8.5169    2.5010 O   0  0  0  0  0  0  0  0  0  0  0  0
    7.2977    9.4254    4.6315 N   0  0  0  0  0  0  0  0  0  0  0  0
    5.8669    9.5916    4.7130 C   0  0  0  0  0  0  0  0  0  0  0  0
    4.8795    9.1910    3.4755 S   0  0  0  0  0  0  0  0  0  0  0  0
   10.3316    9.3251    4.0958 C   0  0  0  0  0  0  0  0  0  0  0  0
   11.7537    9.3531    3.5123 C   0  0  0  0  0  0  0  0  0  0  0  0
  1  2  1  0
  2  3  1  0
  2  4  1  0
  4  5  1  0
  5  6  1  0
  6  7  1  0
  7  8  1  0
  8  9  2  0
  8 10  1  0
 10 11  1  0
 11 12  2  0
  7 13  1  0
 13 14  1  0
 14  4  1  0
M  CHG  1   3   1
M  END
>  <EmbedRMS>  (139) 
0.2961184258862318

>  <Gold.Version>  (139) 
2020.3.0

>  <Gold.Id.Protein>  (139) 
unknown|1q8t_protein|pdb

>  <Gold.PLP.Fitness>  (139) 
39.3158

>  <Gold.PLP.PLP>  (139) 
-28.5430

>  <Gold.PLP.part.hbond>  (139) 
-3.0000

>  <Gold.PLP.part.metal>  (139) 
0.0000

>  <Gold.PLP.part.buried>  (139) 
-2.7749

>  <Gold.PLP.part.nonpolar>  (139) 
-22.4458

>  <Gold.PLP.part.repulsive>  (139) 
0.0617

>  <Gold.PLP.ligand.clash>  (139) 
0.0000

>  <Gold.PLP.ligand.torsion>  (139) 
1.0000

>  <Gold.PLP.Chemscore.Hbond>  (139) 
3.9913

>  <Gold.PLP.Chemscore.CHOScore>  (139) 
0.0000

>  <Gold.PLP.Chemscore.Metal>  (139) 
0.0000

>  <Gold.Chemscore.Hbonds>  (139) 
donor molecule, donor type, donor heavy atom, donor atom, acceptor molecule, acceptor atom, score
      L1  H     3    20       P1  2691  1.00
      L1  H     3    21       P1  2902  2.00
      P1  H  2887  2891       L1     9  0.99

>  <Gold.PLP.Chemscore.Internal.Correction>  (139) 
0.7990

>  <Gold.PLP.Constraint>  (139) 
-0.0000

>  <Gold.Protein.RotatedTorsions>  (139) 
[  681  677  676  673 ] final  -44.04 input -179.99 | X-H torsion
[  702  698  697  694 ] final   90.90 input  179.99 | X-H torsion
[ 2577 2569 2568 2566 ] final  118.42 input   -0.13 | X-H torsion
[ 2891 2887 2886 2883 ] final  170.39 input  179.98 | X-H torsion
[ 3175 3171 3170 3167 ] final  119.74 input -179.99 | X-H torsion
[ 5278 5270 5269 5267 ] final   67.07 input    0.55 | X-H torsion
[  641  637  636  633 ] final   98.27 input  179.99 | X-H torsion
[ 1886 1878 1877 1875 ] final   43.81 input    1.60 | X-H torsion
[  965  957  956  954 ] final  -69.29 input    0.45 | X-H torsion

>  <Gold.Protein.ActiveResidues>  (139) 
 LYS47   THR48   LEU49   GLY50   THR51   GLY52   SER53   PHE54   GLY55   ARG56  
 VAL57   MET58   LEU59   TYR69   ALA70   MET71   LYS72   ILE73   LEU74   GLU91  
 LEU95   VAL104  LYS105  MET118  VAL119  MET120  GLU121  TYR122  VAL123  PRO124 
 GLY125  GLY126  GLU127  MET128  PHE129  TYR164  ASP166  LEU167  LYS168  PRO169 
 GLU170  ASN171  LEU172  LEU173  ILE174  GLN181  VAL182  THR183  ASP184  PHE185 
 GLY186  PHE187  GLY200  THR201  ASN326  PHE327  TYR330  ARG18   ARG19   ASN20  
 ALA21   ILE22   HIS23  

>  <Gold.Protein.RotatedAtoms>  (139) 
   10.4517   19.7556    8.8630 H   0  0  0  0  0  0  0  0  0  0  0  0  # atno 641  bound_to 637 
   15.6134   12.9909    6.9647 H   0  0  0  0  0  0  0  0  0  0  0  0  # atno 681  bound_to 677 
   19.7595   11.8026   -1.8898 H   0  0  0  0  0  0  0  0  0  0  0  0  # atno 702  bound_to 698 
   -6.4373   16.1751   -1.6041 H   0  0  0  0  0  0  0  0  0  0  0  0  # atno 965  bound_to 957 
    2.1235   11.9542   10.4730 H   0  0  0  0  0  0  0  0  0  0  0  0  # atno 1886 bound_to 1878
    9.6818    2.0065   -2.4991 H   0  0  0  0  0  0  0  0  0  0  0  0  # atno 2577 bound_to 2569
    7.4996    6.7905    1.3593 H   0  0  0  0  0  0  0  0  0  0  0  0  # atno 2891 bound_to 2887
   17.9399    1.9452   -0.6455 H   0  0  0  0  0  0  0  0  0  0  0  0  # atno 3175 bound_to 3171
   12.9813   10.1897    8.9252 H   0  0  0  0  0  0  0  0  0  0  0  0  # atno 5278 bound_to 5270
   16.8359   13.9807    7.2143 LP  0  0  0  0  0  0  0  0  0  0  0  0  # atno 5914 bound_to 677 
   16.9047   12.8435    6.0443 LP  0  0  0  0  0  0  0  0  0  0  0  0  # atno 5915 bound_to 677 
   19.8001   11.7478   -0.2983 LP  0  0  0  0  0  0  0  0  0  0  0  0  # atno 5920 bound_to 698 
   21.1573   11.5242   -1.1784 LP  0  0  0  0  0  0  0  0  0  0  0  0  # atno 5921 bound_to 698 
    9.7603    3.3248   -3.3885 LP  0  0  0  0  0  0  0  0  0  0  0  0  # atno 5950 bound_to 2569
   11.1161    2.6268   -2.8044 LP  0  0  0  0  0  0  0  0  0  0  0  0  # atno 5951 bound_to 2569
    8.3835    6.1400    0.2051 LP  0  0  0  0  0  0  0  0  0  0  0  0  # atno 5982 bound_to 2887
    7.3984    5.2183    1.1253 LP  0  0  0  0  0  0  0  0  0  0  0  0  # atno 5983 bound_to 2887
   19.1497    2.7835   -1.2532 LP  0  0  0  0  0  0  0  0  0  0  0  0  # atno 6000 bound_to 3171
   18.8584    2.7781    0.3536 LP  0  0  0  0  0  0  0  0  0  0  0  0  # atno 6001 bound_to 3171
   13.1738    9.7968   10.4567 LP  0  0  0  0  0  0  0  0  0  0  0  0  # atno 6004 bound_to 5270
   14.4644   10.0491    9.4885 LP  0  0  0  0  0  0  0  0  0  0  0  0  # atno 6005 bound_to 5270
    9.6632   19.1768    7.6067 LP  0  0  0  0  0  0  0  0  0  0  0  0  # atno 6055 bound_to 637 
   11.2939   19.1187    7.6713 LP  0  0  0  0  0  0  0  0  0  0  0  0  # atno 6056 bound_to 637 
    1.4792   10.4992   10.5278 LP  0  0  0  0  0  0  0  0  0  0  0  0  # atno 6063 bound_to 1878
    0.6708   11.7952   11.1053 LP  0  0  0  0  0  0  0  0  0  0  0  0  # atno 6064 bound_to 1878
   -6.9724   17.1302   -0.4479 LP  0  0  0  0  0  0  0  0  0  0  0  0  # atno 6067 bound_to 957 
   -7.0559   15.5062   -0.2983 LP  0  0  0  0  0  0  0  0  0  0  0  0  # atno 6068 bound_to 957 

>  <STRIFE_LigEff_Score>  (139) 
2.808271428571429

$$$$
unknown|pharmsElabsTestPreDocking|sdf|140|dock3
     RDKit          3D

 18 18  0  0  0  0  0  0  0  0999 V2000
    5.3338   10.3918    5.8960 C   0  0  0  0  0  0  0  0  0  0  0  0
    4.7189   10.0052    4.5855 C   0  0  0  0  0  0  0  0  0  0  0  0
    5.4289    9.4826    3.5689 C   0  0  0  0  0  0  0  0  0  0  0  0
    6.8319    9.2190    3.7513 N   0  0  0  0  0  0  0  0  0  0  0  0
    7.8465    9.4510    2.7680 C   0  0  0  0  0  0  0  0  0  0  0  0
    7.6019   10.1353    1.7347 O   0  0  0  0  0  0  0  0  0  0  0  0
    9.2237    8.8983    3.0143 C   0  0  0  0  0  0  0  0  0  0  0  0
    9.5198    7.7193    2.0697 C   0  0  0  0  0  0  0  0  0  0  0  0
   10.9493    7.1930    2.2870 C   0  0  0  0  0  0  0  0  0  0  0  0
   11.9280    8.3531    2.0292 C   0  0  0  0  0  0  0  0  0  0  0  0
   13.4186    8.0166    1.7317 C   0  0  0  0  0  0  0  0  0  0  0  0
   14.3864    9.1865    1.6836 C   0  0  0  0  0  0  0  0  0  0  0  0
   13.6840    6.9514    0.7729 N   0  0  0  0  0  0  0  0  0  0  0  0
   11.7036    9.4609    3.0735 C   0  0  0  0  0  0  0  0  0  0  0  0
   10.2794   10.0172    2.9300 C   0  0  0  0  0  0  0  0  0  0  0  0
    4.7257    9.0694    2.3225 C   0  0  0  0  0  0  0  0  0  0  0  0
    3.3097    8.5689    2.3576 C   0  0  0  0  0  0  0  0  0  0  0  0
    5.3169    9.2013    1.1750 N   0  0  0  0  0  0  0  0  0  0  0  0
  1  2  1  0
  2  3  2  0
  3  4  1  0
  4  5  1  0
  5  6  2  0
  5  7  1  0
  7  8  1  0
  8  9  1  0
  9 10  1  0
 10 11  1  0
 11 12  1  0
 11 13  1  0
 10 14  1  0
 14 15  1  0
  3 16  1  0
 16 17  1  0
 16 18  2  0
 15  7  1  0
M  CHG  1  13   1
M  END
>  <EmbedRMS>  (140) 
0.18298173008130458

>  <Gold.Version>  (140) 
2020.3.0

>  <Gold.Id.Protein>  (140) 
unknown|1q8t_protein|pdb

>  <Gold.PLP.Fitness>  (140) 
44.2770

>  <Gold.PLP.PLP>  (140) 
-36.4295

>  <Gold.PLP.part.hbond>  (140) 
-1.8348

>  <Gold.PLP.part.metal>  (140) 
0.0000

>  <Gold.PLP.part.buried>  (140) 
0.4646

>  <Gold.PLP.part.nonpolar>  (140) 
-35.7494

>  <Gold.PLP.part.repulsive>  (140) 
0.0733

>  <Gold.PLP.ligand.clash>  (140) 
0.0064

>  <Gold.PLP.ligand.torsion>  (140) 
1.1954

>  <Gold.PLP.Chemscore.Hbond>  (140) 
2.9833

>  <Gold.PLP.Chemscore.CHOScore>  (140) 
0.0000

>  <Gold.PLP.Chemscore.Metal>  (140) 
0.0000

>  <Gold.Chemscore.Hbonds>  (140) 
donor molecule, donor type, donor heavy atom, donor atom, acceptor molecule, acceptor atom, score
      L1  H    13    34       P1  2691  0.98
      L1  H    13    35       P1  2902  2.00

>  <Gold.PLP.Chemscore.Internal.Correction>  (140) 
1.2948

>  <Gold.PLP.Constraint>  (140) 
-0.0000

>  <Gold.Protein.RotatedTorsions>  (140) 
[  681  677  676  673 ] final  101.20 input -179.99 | X-H torsion
[  702  698  697  694 ] final  172.42 input  179.99 | X-H torsion
[ 2577 2569 2568 2566 ] final -109.42 input   -0.13 | X-H torsion
[ 2891 2887 2886 2883 ] final  130.86 input  179.98 | X-H torsion
[ 3175 3171 3170 3167 ] final  154.37 input -179.99 | X-H torsion
[ 5278 5270 5269 5267 ] final -133.07 input    0.55 | X-H torsion
[  641  637  636  633 ] final  128.74 input  179.99 | X-H torsion
[ 1886 1878 1877 1875 ] final -138.05 input    1.60 | X-H torsion
[  965  957  956  954 ] final    5.45 input    0.45 | X-H torsion

>  <Gold.Protein.ActiveResidues>  (140) 
 LYS47   THR48   LEU49   GLY50   THR51   GLY52   SER53   PHE54   GLY55   ARG56  
 VAL57   MET58   LEU59   TYR69   ALA70   MET71   LYS72   ILE73   LEU74   GLU91  
 LEU95   VAL104  LYS105  MET118  VAL119  MET120  GLU121  TYR122  VAL123  PRO124 
 GLY125  GLY126  GLU127  MET128  PHE129  TYR164  ASP166  LEU167  LYS168  PRO169 
 GLU170  ASN171  LEU172  LEU173  ILE174  GLN181  VAL182  THR183  ASP184  PHE185 
 GLY186  PHE187  GLY200  THR201  ASN326  PHE327  TYR330  ARG18   ARG19   ASN20  
 ALA21   ILE22   HIS23  

>  <Gold.Protein.RotatedAtoms>  (140) 
   10.9074   19.6831    8.7709 H   0  0  0  0  0  0  0  0  0  0  0  0  # atno 641  bound_to 637 
   17.1269   13.1508    6.1855 H   0  0  0  0  0  0  0  0  0  0  0  0  # atno 681  bound_to 677 
   20.8996   11.5973   -1.7241 H   0  0  0  0  0  0  0  0  0  0  0  0  # atno 702  bound_to 698 
   -6.7528   15.3851   -0.9275 H   0  0  0  0  0  0  0  0  0  0  0  0  # atno 965  bound_to 957 
    0.7266   10.9236   10.9131 H   0  0  0  0  0  0  0  0  0  0  0  0  # atno 1886 bound_to 1878
   11.0621    2.7736   -2.9306 H   0  0  0  0  0  0  0  0  0  0  0  0  # atno 2577 bound_to 2569
    7.9003    6.9461    0.9324 H   0  0  0  0  0  0  0  0  0  0  0  0  # atno 2891 bound_to 2887
   17.9738    2.0389   -0.1217 H   0  0  0  0  0  0  0  0  0  0  0  0  # atno 3175 bound_to 3171
   14.2894    9.9191   10.0780 H   0  0  0  0  0  0  0  0  0  0  0  0  # atno 5278 bound_to 5270
   15.6764   12.7138    6.6766 LP  0  0  0  0  0  0  0  0  0  0  0  0  # atno 5914 bound_to 677 
   16.4712   13.9421    7.4020 LP  0  0  0  0  0  0  0  0  0  0  0  0  # atno 5915 bound_to 677 
   19.3525   11.8492   -1.4406 LP  0  0  0  0  0  0  0  0  0  0  0  0  # atno 5920 bound_to 698 
   20.4056   11.6388   -0.2104 LP  0  0  0  0  0  0  0  0  0  0  0  0  # atno 5921 bound_to 698 
    9.8311    1.9127   -2.4027 LP  0  0  0  0  0  0  0  0  0  0  0  0  # atno 5950 bound_to 2569
    9.5919    3.2313   -3.3358 LP  0  0  0  0  0  0  0  0  0  0  0  0  # atno 5951 bound_to 2569
    8.2041    5.5313    0.2671 LP  0  0  0  0  0  0  0  0  0  0  0  0  # atno 5982 bound_to 2887
    7.1561    5.6631    1.5126 LP  0  0  0  0  0  0  0  0  0  0  0  0  # atno 5983 bound_to 2887
   18.7414    2.4548   -1.4535 LP  0  0  0  0  0  0  0  0  0  0  0  0  # atno 6000 bound_to 3171
   19.2310    3.0082    0.0027 LP  0  0  0  0  0  0  0  0  0  0  0  0  # atno 6001 bound_to 3171
   13.5645   10.2353    8.6955 LP  0  0  0  0  0  0  0  0  0  0  0  0  # atno 6004 bound_to 5270
   12.6974    9.8954   10.0368 LP  0  0  0  0  0  0  0  0  0  0  0  0  # atno 6005 bound_to 5270
    9.5280   19.3995    8.0282 LP  0  0  0  0  0  0  0  0  0  0  0  0  # atno 6055 bound_to 637 
   10.9492   18.9722    7.3468 LP  0  0  0  0  0  0  0  0  0  0  0  0  # atno 6056 bound_to 637 
    1.4267   12.3530   10.8671 LP  0  0  0  0  0  0  0  0  0  0  0  0  # atno 6063 bound_to 1878
    2.1937   11.0264   10.3027 LP  0  0  0  0  0  0  0  0  0  0  0  0  # atno 6064 bound_to 1878
   -6.5132   16.8655   -1.4624 LP  0  0  0  0  0  0  0  0  0  0  0  0  # atno 6067 bound_to 957 
   -7.1829   16.6029    0.0036 LP  0  0  0  0  0  0  0  0  0  0  0  0  # atno 6068 bound_to 957 

>  <STRIFE_LigEff_Score>  (140) 
2.4598333333333335

$$$$
unknown|pharmsElabsTestPreDocking|sdf|141|dock3
     RDKit          3D

 19 20  0  0  0  0  0  0  0  0999 V2000
   13.7012    6.4409    3.4581 C   0  0  0  0  0  0  0  0  0  0  0  0
   13.6660    7.5945    2.4362 C   0  0  0  0  0  0  0  0  0  0  0  0
   13.9647    7.0629    1.1000 N   0  0  0  0  0  0  0  0  0  0  0  0
   12.2856    8.3138    2.4877 C   0  0  0  0  0  0  0  0  0  0  0  0
   11.1749    7.3565    2.0081 C   0  0  0  0  0  0  0  0  0  0  0  0
    9.8501    8.0992    1.9028 C   0  0  0  0  0  0  0  0  0  0  0  0
    9.4534    8.6689    3.2681 C   0  0  0  0  0  0  0  0  0  0  0  0
    8.1376    9.3849    3.1708 C   0  0  0  0  0  0  0  0  0  0  0  0
    7.9270   10.4380    3.8360 O   0  0  0  0  0  0  0  0  0  0  0  0
    7.1227    8.8556    2.3175 N   0  0  0  0  0  0  0  0  0  0  0  0
    5.8440    9.5290    2.1388 C   0  0  0  0  0  0  0  0  0  0  0  0
    5.0166    9.3743    3.3752 C   0  0  0  0  0  0  0  0  0  0  0  0
    5.3516    9.8393    4.6288 C   0  0  0  0  0  0  0  0  0  0  0  0
    4.2473    9.5478    5.4071 C   0  0  0  0  0  0  0  0  0  0  0  0
    3.2976    8.9609    4.6505 N   0  0  0  0  0  0  0  0  0  0  0  0
    3.7678    8.8706    3.4175 N   0  0  0  0  0  0  0  0  0  0  0  0
    3.0157    8.3068    2.3024 C   0  0  0  0  0  0  0  0  0  0  0  0
   10.5477    9.5891    3.8350 C   0  0  0  0  0  0  0  0  0  0  0  0
   11.9060    8.8688    3.8832 C   0  0  0  0  0  0  0  0  0  0  0  0
  1  2  1  0
  2  3  1  0
  2  4  1  0
  4  5  1  0
  5  6  1  0
  6  7  1  0
  7  8  1  0
  8  9  2  0
  8 10  1  0
 10 11  1  0
 11 12  1  0
 12 13  2  0
 13 14  1  0
 14 15  2  0
 15 16  1  0
 16 17  1  0
  7 18  1  0
 18 19  1  0
 19  4  1  0
 16 12  1  0
M  CHG  1   3   1
M  END
>  <EmbedRMS>  (141) 
0.027804703519808214

>  <Gold.Version>  (141) 
2020.3.0

>  <Gold.Id.Protein>  (141) 
unknown|1q8t_protein|pdb

>  <Gold.PLP.Fitness>  (141) 
59.1262

>  <Gold.PLP.PLP>  (141) 
-46.6518

>  <Gold.PLP.part.hbond>  (141) 
-3.6294

>  <Gold.PLP.part.metal>  (141) 
0.0000

>  <Gold.PLP.part.buried>  (141) 
-4.0359

>  <Gold.PLP.part.nonpolar>  (141) 
-39.3125

>  <Gold.PLP.part.repulsive>  (141) 
0.1980

>  <Gold.PLP.ligand.clash>  (141) 
0.0000

>  <Gold.PLP.ligand.torsion>  (141) 
0.6906

>  <Gold.PLP.Chemscore.Hbond>  (141) 
4.5779

>  <Gold.PLP.Chemscore.CHOScore>  (141) 
0.0000

>  <Gold.PLP.Chemscore.Metal>  (141) 
0.0000

>  <Gold.Chemscore.Hbonds>  (141) 
donor molecule, donor type, donor heavy atom, donor atom, acceptor molecule, acceptor atom, score
      L1  H     3    24       P1  2902  2.00
      L1  H     3    25       P1  2691  0.93
      L1  H    10    33       P1  2887  0.75
      P1  H  1888  1903       L1    15  0.90

>  <Gold.PLP.Chemscore.Internal.Correction>  (141) 
0.1219

>  <Gold.PLP.Constraint>  (141) 
-0.0000

>  <Gold.Protein.RotatedTorsions>  (141) 
[  681  677  676  673 ] final  156.99 input -179.99 | X-H torsion
[  702  698  697  694 ] final -166.35 input  179.99 | X-H torsion
[ 2577 2569 2568 2566 ] final   96.91 input   -0.13 | X-H torsion
[ 2891 2887 2886 2883 ] final  -34.74 input  179.98 | X-H torsion
[ 3175 3171 3170 3167 ] final  130.82 input -179.99 | X-H torsion
[ 5278 5270 5269 5267 ] final  -53.44 input    0.55 | X-H torsion
[  641  637  636  633 ] final  -52.50 input  179.99 | X-H torsion
[ 1886 1878 1877 1875 ] final -126.61 input    1.60 | X-H torsion
[  965  957  956  954 ] final   86.42 input    0.45 | X-H torsion

>  <Gold.Protein.ActiveResidues>  (141) 
 LYS47   THR48   LEU49   GLY50   THR51   GLY52   SER53   PHE54   GLY55   ARG56  
 VAL57   MET58   LEU59   TYR69   ALA70   MET71   LYS72   ILE73   LEU74   GLU91  
 LEU95   VAL104  LYS105  MET118  VAL119  MET120  GLU121  TYR122  VAL123  PRO124 
 GLY125  GLY126  GLU127  MET128  PHE129  TYR164  ASP166  LEU167  LYS168  PRO169 
 GLU170  ASN171  LEU172  LEU173  ILE174  GLN181  VAL182  THR183  ASP184  PHE185 
 GLY186  PHE187  GLY200  THR201  ASN326  PHE327  TYR330  ARG18   ARG19   ASN20  
 ALA21   ILE22   HIS23  

>  <Gold.Protein.RotatedAtoms>  (141) 
   10.0471   19.0074    7.3534 H   0  0  0  0  0  0  0  0  0  0  0  0  # atno 641  bound_to 637 
   17.1835   13.7619    6.7564 H   0  0  0  0  0  0  0  0  0  0  0  0  # atno 681  bound_to 677 
   21.0637   11.5627   -1.4396 H   0  0  0  0  0  0  0  0  0  0  0  0  # atno 702  bound_to 698 
   -7.1598   15.9879   -0.0205 H   0  0  0  0  0  0  0  0  0  0  0  0  # atno 965  bound_to 957 
    0.8241   10.7893   10.8472 H   0  0  0  0  0  0  0  0  0  0  0  0  # atno 1886 bound_to 1878
    9.4438    2.1906   -2.6444 H   0  0  0  0  0  0  0  0  0  0  0  0  # atno 2577 bound_to 2569
    7.7434    5.1916    0.6939 H   0  0  0  0  0  0  0  0  0  0  0  0  # atno 2891 bound_to 2887
   17.9223    1.9547   -0.4737 H   0  0  0  0  0  0  0  0  0  0  0  0  # atno 3175 bound_to 3171
   13.1988    9.8229   10.4216 H   0  0  0  0  0  0  0  0  0  0  0  0  # atno 5278 bound_to 5270
   16.3441   12.5683    6.1187 LP  0  0  0  0  0  0  0  0  0  0  0  0  # atno 5914 bound_to 677 
   15.7440   13.4445    7.3591 LP  0  0  0  0  0  0  0  0  0  0  0  0  # atno 5915 bound_to 677 
   19.5221   11.8250   -1.7429 LP  0  0  0  0  0  0  0  0  0  0  0  0  # atno 5920 bound_to 698 
   20.0635   11.6994   -0.2074 LP  0  0  0  0  0  0  0  0  0  0  0  0  # atno 5921 bound_to 698 
   10.0987    3.4138   -3.4254 LP  0  0  0  0  0  0  0  0  0  0  0  0  # atno 5950 bound_to 2569
   11.0283    2.3439   -2.6144 LP  0  0  0  0  0  0  0  0  0  0  0  0  # atno 5951 bound_to 2569
    7.2206    6.3844    1.6106 LP  0  0  0  0  0  0  0  0  0  0  0  0  # atno 5982 bound_to 2887
    8.3047    6.6566    0.4201 LP  0  0  0  0  0  0  0  0  0  0  0  0  # atno 5983 bound_to 2887
   19.0329    2.6841   -1.3513 LP  0  0  0  0  0  0  0  0  0  0  0  0  # atno 6000 bound_to 3171
   18.9937    2.8675    0.2709 LP  0  0  0  0  0  0  0  0  0  0  0  0  # atno 6001 bound_to 3171
   14.4633   10.0511    9.4804 LP  0  0  0  0  0  0  0  0  0  0  0  0  # atno 6004 bound_to 5270
   12.9462   10.1808    8.8903 LP  0  0  0  0  0  0  0  0  0  0  0  0  # atno 6005 bound_to 5270
   11.4107   19.3347    8.1073 LP  0  0  0  0  0  0  0  0  0  0  0  0  # atno 6055 bound_to 637 
    9.9724   19.7486    8.7605 LP  0  0  0  0  0  0  0  0  0  0  0  0  # atno 6056 bound_to 637 
    1.2554   12.3194   10.9369 LP  0  0  0  0  0  0  0  0  0  0  0  0  # atno 6063 bound_to 1878
    2.2624   11.2014   10.3023 LP  0  0  0  0  0  0  0  0  0  0  0  0  # atno 6064 bound_to 1878
   -6.5337   15.6416   -1.4429 LP  0  0  0  0  0  0  0  0  0  0  0  0  # atno 6067 bound_to 957 
   -6.7337   17.1920   -0.9710 LP  0  0  0  0  0  0  0  0  0  0  0  0  # atno 6068 bound_to 957 

>  <STRIFE_LigEff_Score>  (141) 
3.1119052631578947

$$$$
unknown|pharmsElabsTestPreDocking|sdf|142|dock6
     RDKit          3D

 18 19  0  0  0  0  0  0  0  0999 V2000
   14.4790    9.5102    1.0996 C   0  0  0  0  0  0  0  0  0  0  0  0
   13.7241    8.2679    1.5418 C   0  0  0  0  0  0  0  0  0  0  0  0
   14.0560    7.0546    0.8032 N   0  0  0  0  0  0  0  0  0  0  0  0
   12.2378    8.4601    1.9723 C   0  0  0  0  0  0  0  0  0  0  0  0
   11.5930    7.3595    2.8294 C   0  0  0  0  0  0  0  0  0  0  0  0
   10.0582    7.4964    2.8450 C   0  0  0  0  0  0  0  0  0  0  0  0
    9.5516    8.9195    2.5972 C   0  0  0  0  0  0  0  0  0  0  0  0
    8.0724    9.0892    2.7539 C   0  0  0  0  0  0  0  0  0  0  0  0
    7.4981    9.4264    1.6958 O   0  0  0  0  0  0  0  0  0  0  0  0
    7.3126    8.8968    3.9697 N   0  0  0  0  0  0  0  0  0  0  0  0
    5.8916    9.1953    4.1113 C   0  0  0  0  0  0  0  0  0  0  0  0
    5.4271    9.7875    5.3015 C   0  0  0  0  0  0  0  0  0  0  0  0
    4.0698   10.0994    5.4663 C   0  0  0  0  0  0  0  0  0  0  0  0
    3.1530    9.8178    4.4527 C   0  0  0  0  0  0  0  0  0  0  0  0
    3.5880    9.2357    3.2693 C   0  0  0  0  0  0  0  0  0  0  0  0
    4.9355    8.9400    3.0898 C   0  0  0  0  0  0  0  0  0  0  0  0
   10.4465   10.1197    2.8419 C   0  0  0  0  0  0  0  0  0  0  0  0
   11.9452    9.8422    2.5953 C   0  0  0  0  0  0  0  0  0  0  0  0
  1  2  1  0
  2  3  1  0
  2  4  1  0
  4  5  1  0
  5  6  1  0
  6  7  1  0
  7  8  1  0
  8  9  2  0
  8 10  1  0
 10 11  1  0
 11 12  2  0
 12 13  1  0
 13 14  2  0
 14 15  1  0
 15 16  2  0
  7 17  1  0
 17 18  1  0
 18  4  1  0
 16 11  1  0
M  CHG  1   3   1
M  END
>  <EmbedRMS>  (142) 
0.24964892458419108

>  <Gold.Version>  (142) 
2020.3.0

>  <Gold.Id.Protein>  (142) 
unknown|1q8t_protein|pdb

>  <Gold.PLP.Fitness>  (142) 
55.6627

>  <Gold.PLP.PLP>  (142) 
-47.6689

>  <Gold.PLP.part.hbond>  (142) 
-2.0000

>  <Gold.PLP.part.metal>  (142) 
0.0000

>  <Gold.PLP.part.buried>  (142) 
-1.8114

>  <Gold.PLP.part.nonpolar>  (142) 
-44.3257

>  <Gold.PLP.part.repulsive>  (142) 
0.0734

>  <Gold.PLP.ligand.clash>  (142) 
0.0000

>  <Gold.PLP.ligand.torsion>  (142) 
0.9707

>  <Gold.PLP.Chemscore.Hbond>  (142) 
3.0000

>  <Gold.PLP.Chemscore.CHOScore>  (142) 
0.0000

>  <Gold.PLP.Chemscore.Metal>  (142) 
0.0000

>  <Gold.Chemscore.Hbonds>  (142) 
donor molecule, donor type, donor heavy atom, donor atom, acceptor molecule, acceptor atom, score
      L1  H     3    23       P1  2902  2.00
      L1  H     3    24       P1  2691  1.00

>  <Gold.PLP.Chemscore.Internal.Correction>  (142) 
0.9352

>  <Gold.PLP.Constraint>  (142) 
-0.0000

>  <Gold.Protein.RotatedTorsions>  (142) 
[  681  677  676  673 ] final -107.55 input -179.99 | X-H torsion
[  702  698  697  694 ] final -122.93 input  179.99 | X-H torsion
[ 2577 2569 2568 2566 ] final -116.92 input   -0.13 | X-H torsion
[ 2891 2887 2886 2883 ] final  -44.31 input  179.98 | X-H torsion
[ 3175 3171 3170 3167 ] final -166.11 input -179.99 | X-H torsion
[ 5278 5270 5269 5267 ] final  114.93 input    0.55 | X-H torsion
[  641  637  636  633 ] final -156.18 input  179.99 | X-H torsion
[ 1886 1878 1877 1875 ] final  -46.89 input    1.60 | X-H torsion
[  965  957  956  954 ] final  108.78 input    0.45 | X-H torsion

>  <Gold.Protein.ActiveResidues>  (142) 
 LYS47   THR48   LEU49   GLY50   THR51   GLY52   SER53   PHE54   GLY55   ARG56  
 VAL57   MET58   LEU59   TYR69   ALA70   MET71   LYS72   ILE73   LEU74   GLU91  
 LEU95   VAL104  LYS105  MET118  VAL119  MET120  GLU121  TYR122  VAL123  PRO124 
 GLY125  GLY126  GLU127  MET128  PHE129  TYR164  ASP166  LEU167  LYS168  PRO169 
 GLU170  ASN171  LEU172  LEU173  ILE174  GLN181  VAL182  THR183  ASP184  PHE185 
 GLY186  PHE187  GLY200  THR201  ASN326  PHE327  TYR330  ARG18   ARG19   ASN20  
 ALA21   ILE22   HIS23  

>  <Gold.Protein.RotatedAtoms>  (142) 
   11.3347   19.2078    7.8867 H   0  0  0  0  0  0  0  0  0  0  0  0  # atno 641  bound_to 637 
   16.0333   13.7059    7.4134 H   0  0  0  0  0  0  0  0  0  0  0  0  # atno 681  bound_to 677 
   21.0406   11.5540   -0.7771 H   0  0  0  0  0  0  0  0  0  0  0  0  # atno 702  bound_to 698 
   -7.1749   16.3324    0.0198 H   0  0  0  0  0  0  0  0  0  0  0  0  # atno 965  bound_to 957 
    1.8669   10.7101   10.3739 H   0  0  0  0  0  0  0  0  0  0  0  0  # atno 1886 bound_to 1878
   11.0717    2.6780   -2.8636 H   0  0  0  0  0  0  0  0  0  0  0  0  # atno 2577 bound_to 2569
    7.6446    5.1789    0.8053 H   0  0  0  0  0  0  0  0  0  0  0  0  # atno 2891 bound_to 2887
   18.2979    2.3337    0.2963 H   0  0  0  0  0  0  0  0  0  0  0  0  # atno 3175 bound_to 3171
   13.6869   10.2384    8.7580 H   0  0  0  0  0  0  0  0  0  0  0  0  # atno 5278 bound_to 5270
   17.3021   13.5203    6.4691 LP  0  0  0  0  0  0  0  0  0  0  0  0  # atno 5914 bound_to 677 
   15.9965   12.5513    6.3172 LP  0  0  0  0  0  0  0  0  0  0  0  0  # atno 5915 bound_to 677 
   20.1285   11.7238   -2.0720 LP  0  0  0  0  0  0  0  0  0  0  0  0  # atno 5920 bound_to 698 
   19.4813   11.8097   -0.5752 LP  0  0  0  0  0  0  0  0  0  0  0  0  # atno 5921 bound_to 698 
    9.7198    1.9522   -2.4383 LP  0  0  0  0  0  0  0  0  0  0  0  0  # atno 5950 bound_to 2569
    9.6931    3.2924   -3.3708 LP  0  0  0  0  0  0  0  0  0  0  0  0  # atno 5951 bound_to 2569
    7.2809    6.5252    1.5746 LP  0  0  0  0  0  0  0  0  0  0  0  0  # atno 5982 bound_to 2887
    8.3485    6.5292    0.3389 LP  0  0  0  0  0  0  0  0  0  0  0  0  # atno 5983 bound_to 2887
   18.2381    2.1050   -1.2784 LP  0  0  0  0  0  0  0  0  0  0  0  0  # atno 6000 bound_to 3171
   19.3932    3.0478   -0.6124 LP  0  0  0  0  0  0  0  0  0  0  0  0  # atno 6001 bound_to 3171
   12.6441    9.9237    9.9200 LP  0  0  0  0  0  0  0  0  0  0  0  0  # atno 6004 bound_to 5270
   14.2518    9.8711   10.2012 LP  0  0  0  0  0  0  0  0  0  0  0  0  # atno 6005 bound_to 5270
   10.2171   19.7867    8.8619 LP  0  0  0  0  0  0  0  0  0  0  0  0  # atno 6055 bound_to 637 
    9.8101   19.0856    7.4443 LP  0  0  0  0  0  0  0  0  0  0  0  0  # atno 6056 bound_to 637 
    0.5747   11.3295   11.0682 LP  0  0  0  0  0  0  0  0  0  0  0  0  # atno 6063 bound_to 1878
    1.8453   12.2746   10.6692 LP  0  0  0  0  0  0  0  0  0  0  0  0  # atno 6064 bound_to 1878
   -6.6563   15.4210   -1.1782 LP  0  0  0  0  0  0  0  0  0  0  0  0  # atno 6067 bound_to 957 
   -6.5953   17.0497   -1.2781 LP  0  0  0  0  0  0  0  0  0  0  0  0  # atno 6068 bound_to 957 

>  <STRIFE_LigEff_Score>  (142) 
3.092372222222222

$$$$
unknown|pharmsElabsTestPreDocking|sdf|143|dock5
     RDKit          3D

 18 19  0  0  0  0  0  0  0  0999 V2000
   14.5135    9.2897    1.1550 C   0  0  0  0  0  0  0  0  0  0  0  0
   13.6909    8.0819    1.5709 C   0  0  0  0  0  0  0  0  0  0  0  0
   13.9687    6.8634    0.8184 N   0  0  0  0  0  0  0  0  0  0  0  0
   12.2115    8.3441    1.9880 C   0  0  0  0  0  0  0  0  0  0  0  0
   11.5283    7.3064    2.8926 C   0  0  0  0  0  0  0  0  0  0  0  0
    9.9990    7.4962    2.8976 C   0  0  0  0  0  0  0  0  0  0  0  0
    9.5417    8.9230    2.5837 C   0  0  0  0  0  0  0  0  0  0  0  0
    8.0691    9.1500    2.7284 C   0  0  0  0  0  0  0  0  0  0  0  0
    7.5325    9.5944    1.6902 O   0  0  0  0  0  0  0  0  0  0  0  0
    7.2766    8.9010    3.9126 N   0  0  0  0  0  0  0  0  0  0  0  0
    5.8683    9.2548    4.0531 C   0  0  0  0  0  0  0  0  0  0  0  0
    5.0016    9.0814    2.9568 C   0  0  0  0  0  0  0  0  0  0  0  0
    3.6397    9.3994    3.0608 C   0  0  0  0  0  0  0  0  0  0  0  0
    3.1219    9.9037    4.2545 C   0  0  0  0  0  0  0  0  0  0  0  0
    3.9571   10.0815    5.3496 C   0  0  0  0  0  0  0  0  0  0  0  0
    5.3056    9.7512    5.2614 C   0  0  0  0  0  0  0  0  0  0  0  0
   10.4770   10.1019    2.7759 C   0  0  0  0  0  0  0  0  0  0  0  0
   11.9655    9.7624    2.5465 C   0  0  0  0  0  0  0  0  0  0  0  0
  1  2  1  0
  2  3  1  0
  2  4  1  0
  4  5  1  0
  5  6  1  0
  6  7  1  0
  7  8  1  0
  8  9  2  0
  8 10  1  0
 10 11  1  0
 11 12  2  0
 12 13  1  0
 13 14  2  0
 14 15  1  0
 15 16  2  0
  7 17  1  0
 17 18  1  0
 18  4  1  0
 16 11  1  0
M  CHG  1   3   1
M  END
>  <EmbedRMS>  (143) 
0.24964892458419108

>  <Gold.Version>  (143) 
2020.3.0

>  <Gold.Id.Protein>  (143) 
unknown|1q8t_protein|pdb

>  <Gold.PLP.Fitness>  (143) 
55.2064

>  <Gold.PLP.PLP>  (143) 
-47.2988

>  <Gold.PLP.part.hbond>  (143) 
-2.0000

>  <Gold.PLP.part.metal>  (143) 
0.0000

>  <Gold.PLP.part.buried>  (143) 
-1.6906

>  <Gold.PLP.part.nonpolar>  (143) 
-44.1624

>  <Gold.PLP.part.repulsive>  (143) 
0.0872

>  <Gold.PLP.ligand.clash>  (143) 
0.0000

>  <Gold.PLP.ligand.torsion>  (143) 
1.0021

>  <Gold.PLP.Chemscore.Hbond>  (143) 
2.9920

>  <Gold.PLP.Chemscore.CHOScore>  (143) 
0.0000

>  <Gold.PLP.Chemscore.Metal>  (143) 
0.0000

>  <Gold.Chemscore.Hbonds>  (143) 
donor molecule, donor type, donor heavy atom, donor atom, acceptor molecule, acceptor atom, score
      L1  H     3    23       P1  2902  2.00
      L1  H     3    24       P1  2691  0.99

>  <Gold.PLP.Chemscore.Internal.Correction>  (143) 
0.9358

>  <Gold.PLP.Constraint>  (143) 
-0.0000

>  <Gold.Protein.RotatedTorsions>  (143) 
[  681  677  676  673 ] final  -93.56 input -179.99 | X-H torsion
[  702  698  697  694 ] final  115.52 input  179.99 | X-H torsion
[ 2577 2569 2568 2566 ] final  -98.59 input   -0.13 | X-H torsion
[ 2891 2887 2886 2883 ] final   -7.33 input  179.98 | X-H torsion
[ 3175 3171 3170 3167 ] final   60.12 input -179.99 | X-H torsion
[ 5278 5270 5269 5267 ] final  -88.79 input    0.55 | X-H torsion
[  641  637  636  633 ] final  123.14 input  179.99 | X-H torsion
[ 1886 1878 1877 1875 ] final  -10.58 input    1.60 | X-H torsion
[  965  957  956  954 ] final  -57.70 input    0.45 | X-H torsion

>  <Gold.Protein.ActiveResidues>  (143) 
 LYS47   THR48   LEU49   GLY50   THR51   GLY52   SER53   PHE54   GLY55   ARG56  
 VAL57   MET58   LEU59   TYR69   ALA70   MET71   LYS72   ILE73   LEU74   GLU91  
 LEU95   VAL104  LYS105  MET118  VAL119  MET120  GLU121  TYR122  VAL123  PRO124 
 GLY125  GLY126  GLU127  MET128  PHE129  TYR164  ASP166  LEU167  LYS168  PRO169 
 GLU170  ASN171  LEU172  LEU173  ILE174  GLN181  VAL182  THR183  ASP184  PHE185 
 GLY186  PHE187  GLY200  THR201  ASN326  PHE327  TYR330  ARG18   ARG19   ASN20  
 ALA21   ILE22   HIS23  

>  <Gold.Protein.RotatedAtoms>  (143) 
   10.8293   19.7044    8.8040 H   0  0  0  0  0  0  0  0  0  0  0  0  # atno 641  bound_to 637 
   15.8721   13.5647    7.3733 H   0  0  0  0  0  0  0  0  0  0  0  0  # atno 681  bound_to 677 
   20.1127   11.7425   -2.0224 H   0  0  0  0  0  0  0  0  0  0  0  0  # atno 702  bound_to 698 
   -6.4541   15.9981   -1.5710 H   0  0  0  0  0  0  0  0  0  0  0  0  # atno 965  bound_to 957 
    2.1951   11.1563   10.3054 H   0  0  0  0  0  0  0  0  0  0  0  0  # atno 1886 bound_to 1878
   11.0217    2.9070   -3.0262 H   0  0  0  0  0  0  0  0  0  0  0  0  # atno 2577 bound_to 2569
    8.0177    5.3583    0.4161 H   0  0  0  0  0  0  0  0  0  0  0  0  # atno 2891 bound_to 2887
   18.4258    2.2138   -1.3418 H   0  0  0  0  0  0  0  0  0  0  0  0  # atno 3175 bound_to 3171
   13.7416    9.8191   10.4601 H   0  0  0  0  0  0  0  0  0  0  0  0  # atno 5278 bound_to 5270
   17.2797   13.6754    6.6367 LP  0  0  0  0  0  0  0  0  0  0  0  0  # atno 5914 bound_to 677 
   16.1886   12.5449    6.1918 LP  0  0  0  0  0  0  0  0  0  0  0  0  # atno 5915 bound_to 677 
   19.4964   11.8066   -0.5549 LP  0  0  0  0  0  0  0  0  0  0  0  0  # atno 5920 bound_to 698 
   21.0894   11.5286   -0.7823 LP  0  0  0  0  0  0  0  0  0  0  0  0  # atno 5921 bound_to 698 
   10.0018    1.8779   -2.3660 LP  0  0  0  0  0  0  0  0  0  0  0  0  # atno 5950 bound_to 2569
    9.4638    3.1256   -3.2718 LP  0  0  0  0  0  0  0  0  0  0  0  0  # atno 5951 bound_to 2569
    7.1352    5.9460    1.6045 LP  0  0  0  0  0  0  0  0  0  0  0  0  # atno 5982 bound_to 2887
    8.1015    6.9197    0.7186 LP  0  0  0  0  0  0  0  0  0  0  0  0  # atno 5983 bound_to 2887
   19.3757    3.0642   -0.3879 LP  0  0  0  0  0  0  0  0  0  0  0  0  # atno 6000 bound_to 3171
   18.1211    2.2147    0.2211 LP  0  0  0  0  0  0  0  0  0  0  0  0  # atno 6001 bound_to 3171
   14.2126   10.1719    8.9801 LP  0  0  0  0  0  0  0  0  0  0  0  0  # atno 6004 bound_to 5270
   12.6258   10.0640    9.3502 LP  0  0  0  0  0  0  0  0  0  0  0  0  # atno 6005 bound_to 5270
    9.5335   19.3575    7.9464 LP  0  0  0  0  0  0  0  0  0  0  0  0  # atno 6055 bound_to 637 
   11.0260   18.9919    7.3938 LP  0  0  0  0  0  0  0  0  0  0  0  0  # atno 6056 bound_to 637 
    0.7602   10.7992   10.8960 LP  0  0  0  0  0  0  0  0  0  0  0  0  # atno 6063 bound_to 1878
    1.3144   12.3352   10.9136 LP  0  0  0  0  0  0  0  0  0  0  0  0  # atno 6064 bound_to 1878
   -6.8970   17.1897   -0.6123 LP  0  0  0  0  0  0  0  0  0  0  0  0  # atno 6067 bound_to 957 
   -7.1137   15.6331   -0.1686 LP  0  0  0  0  0  0  0  0  0  0  0  0  # atno 6068 bound_to 957 

>  <STRIFE_LigEff_Score>  (143) 
3.0670222222222225

$$$$
unknown|pharmsElabsTestPreDocking|sdf|144|dock2
     RDKit          3D

 19 20  0  0  0  0  0  0  0  0999 V2000
   13.7638    7.1042    3.0756 C   0  0  0  0  0  0  0  0  0  0  0  0
   13.6155    8.4607    2.3627 C   0  0  0  0  0  0  0  0  0  0  0  0
   14.2342    8.3773    1.0325 N   0  0  0  0  0  0  0  0  0  0  0  0
   12.1102    8.8836    2.2980 C   0  0  0  0  0  0  0  0  0  0  0  0
   11.3325    7.8478    1.4654 C   0  0  0  0  0  0  0  0  0  0  0  0
    9.8689    8.2133    1.2452 C   0  0  0  0  0  0  0  0  0  0  0  0
    9.2757    9.0948    2.3337 C   0  0  0  0  0  0  0  0  0  0  0  0
    7.7845    9.2389    2.2454 C   0  0  0  0  0  0  0  0  0  0  0  0
    7.1338    8.2416    2.6433 O   0  0  0  0  0  0  0  0  0  0  0  0
    7.0671   10.3862    1.7562 N   0  0  0  0  0  0  0  0  0  0  0  0
    5.6030   10.2928    1.6419 C   0  0  0  0  0  0  0  0  0  0  0  0
    4.9440   10.1069    2.9746 C   0  0  0  0  0  0  0  0  0  0  0  0
    5.6795   10.2531    4.1580 C   0  0  0  0  0  0  0  0  0  0  0  0
    5.0496   10.0923    5.3923 C   0  0  0  0  0  0  0  0  0  0  0  0
    3.6872    9.7883    5.4301 C   0  0  0  0  0  0  0  0  0  0  0  0
    2.9872    9.6487    4.2728 N   0  0  0  0  0  0  0  0  0  0  0  0
    3.5786    9.7999    3.0582 C   0  0  0  0  0  0  0  0  0  0  0  0
    9.9246    9.2046    3.7001 C   0  0  0  0  0  0  0  0  0  0  0  0
   11.4558    8.9992    3.6984 C   0  0  0  0  0  0  0  0  0  0  0  0
  1  2  1  0
  2  3  1  0
  2  4  1  0
  4  5  1  0
  5  6  1  0
  6  7  1  0
  7  8  1  0
  8  9  2  0
  8 10  1  0
 10 11  1  0
 11 12  1  0
 12 13  2  0
 13 14  1  0
 14 15  2  0
 15 16  1  0
 16 17  2  0
  7 18  1  0
 18 19  1  0
 19  4  1  0
 17 12  1  0
M  CHG  1   3   1
M  END
>  <EmbedRMS>  (144) 
0.17084101544492625

>  <Gold.Version>  (144) 
2020.3.0

>  <Gold.Id.Protein>  (144) 
unknown|1q8t_protein|pdb

>  <Gold.PLP.Fitness>  (144) 
62.0991

>  <Gold.PLP.PLP>  (144) 
-45.2634

>  <Gold.PLP.part.hbond>  (144) 
-3.0000

>  <Gold.PLP.part.metal>  (144) 
0.0000

>  <Gold.PLP.part.buried>  (144) 
-2.9053

>  <Gold.PLP.part.nonpolar>  (144) 
-41.3750

>  <Gold.PLP.part.repulsive>  (144) 
0.1449

>  <Gold.PLP.ligand.clash>  (144) 
0.0000

>  <Gold.PLP.ligand.torsion>  (144) 
0.5005

>  <Gold.PLP.Chemscore.Hbond>  (144) 
4.0000

>  <Gold.PLP.Chemscore.CHOScore>  (144) 
1.6938

>  <Gold.PLP.Chemscore.Metal>  (144) 
0.0000

>  <Gold.Chemscore.Hbonds>  (144) 
donor molecule, donor type, donor heavy atom, donor atom, acceptor molecule, acceptor atom, score
      L1  H     3    24       P1  2902  2.00
      P1  H  2887  2891       L1     9  1.00
      P1  H  1888  1903       L1    16  1.00
      L1  C    15    38       P1  1891  0.97
      L1  C    17    39       P1  1855  0.72

>  <Gold.PLP.Chemscore.Internal.Correction>  (144) 
0.7551

>  <Gold.PLP.Constraint>  (144) 
-0.0000

>  <Gold.Protein.RotatedTorsions>  (144) 
[  681  677  676  673 ] final  -72.83 input -179.99 | X-H torsion
[  702  698  697  694 ] final   74.38 input  179.99 | X-H torsion
[ 2577 2569 2568 2566 ] final  139.34 input   -0.13 | X-H torsion
[ 2891 2887 2886 2883 ] final -167.95 input  179.98 | X-H torsion
[ 3175 3171 3170 3167 ] final   15.71 input -179.99 | X-H torsion
[ 5278 5270 5269 5267 ] final    3.34 input    0.55 | X-H torsion
[  641  637  636  633 ] final    0.72 input  179.99 | X-H torsion
[ 1886 1878 1877 1875 ] final   75.59 input    1.60 | X-H torsion
[  965  957  956  954 ] final  164.64 input    0.45 | X-H torsion

>  <Gold.Protein.ActiveResidues>  (144) 
 LYS47   THR48   LEU49   GLY50   THR51   GLY52   SER53   PHE54   GLY55   ARG56  
 VAL57   MET58   LEU59   TYR69   ALA70   MET71   LYS72   ILE73   LEU74   GLU91  
 LEU95   VAL104  LYS105  MET118  VAL119  MET120  GLU121  TYR122  VAL123  PRO124 
 GLY125  GLY126  GLU127  MET128  PHE129  TYR164  ASP166  LEU167  LYS168  PRO169 
 GLU170  ASN171  LEU172  LEU173  ILE174  GLN181  VAL182  THR183  ASP184  PHE185 
 GLY186  PHE187  GLY200  THR201  ASN326  PHE327  TYR330  ARG18   ARG19   ASN20  
 ALA21   ILE22   HIS23  

>  <Gold.Protein.RotatedAtoms>  (144) 
    9.5847   19.3257    7.9263 H   0  0  0  0  0  0  0  0  0  0  0  0  # atno 641  bound_to 637 
   15.6965   13.3263    7.2457 H   0  0  0  0  0  0  0  0  0  0  0  0  # atno 681  bound_to 677 
   19.5672   11.8334   -1.7212 H   0  0  0  0  0  0  0  0  0  0  0  0  # atno 702  bound_to 698 
   -6.9852   17.0436   -0.3822 H   0  0  0  0  0  0  0  0  0  0  0  0  # atno 965  bound_to 957 
    1.7864   12.2495   10.6720 H   0  0  0  0  0  0  0  0  0  0  0  0  # atno 1886 bound_to 1878
    9.9799    1.9112   -2.4112 H   0  0  0  0  0  0  0  0  0  0  0  0  # atno 2577 bound_to 2569
    7.3177    6.5525    1.5130 H   0  0  0  0  0  0  0  0  0  0  0  0  # atno 2891 bound_to 2887
   18.9697    2.6170   -1.3397 H   0  0  0  0  0  0  0  0  0  0  0  0  # atno 3175 bound_to 3171
   12.6523    9.9741    9.7857 H   0  0  0  0  0  0  0  0  0  0  0  0  # atno 5278 bound_to 5270
   17.1559   13.8581    6.8945 LP  0  0  0  0  0  0  0  0  0  0  0  0  # atno 5914 bound_to 677 
   16.4972   12.6131    6.0683 LP  0  0  0  0  0  0  0  0  0  0  0  0  # atno 5915 bound_to 677 
   20.0519   11.7015   -0.2096 LP  0  0  0  0  0  0  0  0  0  0  0  0  # atno 5920 bound_to 698 
   21.1078   11.5381   -1.4445 LP  0  0  0  0  0  0  0  0  0  0  0  0  # atno 5921 bound_to 698 
    9.4865    3.1473   -3.2852 LP  0  0  0  0  0  0  0  0  0  0  0  0  # atno 5950 bound_to 2569
   11.0760    2.9046   -3.0002 LP  0  0  0  0  0  0  0  0  0  0  0  0  # atno 5951 bound_to 2569
    8.3609    6.4770    0.3120 LP  0  0  0  0  0  0  0  0  0  0  0  0  # atno 5982 bound_to 2887
    7.6125    5.1317    0.8566 LP  0  0  0  0  0  0  0  0  0  0  0  0  # atno 5983 bound_to 2887
   19.0494    2.9028    0.2248 LP  0  0  0  0  0  0  0  0  0  0  0  0  # atno 6000 bound_to 3171
   17.8749    1.9518   -0.3939 LP  0  0  0  0  0  0  0  0  0  0  0  0  # atno 6001 bound_to 3171
   14.1553    9.8464   10.2971 LP  0  0  0  0  0  0  0  0  0  0  0  0  # atno 6004 bound_to 5270
   13.8292   10.2264    8.7427 LP  0  0  0  0  0  0  0  0  0  0  0  0  # atno 6005 bound_to 5270
   11.0577   19.0015    7.4161 LP  0  0  0  0  0  0  0  0  0  0  0  0  # atno 6055 bound_to 637 
   10.8125   19.7466    8.8484 LP  0  0  0  0  0  0  0  0  0  0  0  0  # atno 6056 bound_to 637 
    1.9280   10.6939   10.3632 LP  0  0  0  0  0  0  0  0  0  0  0  0  # atno 6063 bound_to 1878
    0.5768   11.2896   11.0605 LP  0  0  0  0  0  0  0  0  0  0  0  0  # atno 6064 bound_to 1878
   -7.0216   15.4518   -0.3749 LP  0  0  0  0  0  0  0  0  0  0  0  0  # atno 6067 bound_to 957 
   -6.4297   16.2700   -1.6582 LP  0  0  0  0  0  0  0  0  0  0  0  0  # atno 6068 bound_to 957 

>  <STRIFE_LigEff_Score>  (144) 
3.2683736842105264

$$$$
unknown|pharmsElabsTestPreDocking|sdf|145|dock4
     RDKit          3D

 17 17  0  0  0  0  0  0  0  0999 V2000
    3.3237    8.6444    2.0359 C   0  0  0  0  0  0  0  0  0  0  0  0
    4.5994    9.0387    2.0411 C   0  0  0  0  0  0  0  0  0  0  0  0
    5.4425    9.2339    3.2459 C   0  0  0  0  0  0  0  0  0  0  0  0
    4.9076    9.7951    4.3573 C   0  0  0  0  0  0  0  0  0  0  0  0
    5.6852   10.1004    5.6012 C   0  0  0  0  0  0  0  0  0  0  0  0
    6.8651    8.9526    3.2149 N   0  0  0  0  0  0  0  0  0  0  0  0
    7.9157    9.2767    2.2739 C   0  0  0  0  0  0  0  0  0  0  0  0
    7.5994   10.0048    1.2981 O   0  0  0  0  0  0  0  0  0  0  0  0
    9.3814    8.9409    2.3215 C   0  0  0  0  0  0  0  0  0  0  0  0
    9.6790    7.4723    2.5733 C   0  0  0  0  0  0  0  0  0  0  0  0
   11.1312    7.0992    2.3574 C   0  0  0  0  0  0  0  0  0  0  0  0
   12.1949    8.1425    2.7142 C   0  0  0  0  0  0  0  0  0  0  0  0
   13.5521    7.8786    2.0163 C   0  0  0  0  0  0  0  0  0  0  0  0
   14.5109    9.0537    1.8242 C   0  0  0  0  0  0  0  0  0  0  0  0
   13.4131    7.0720    0.8029 N   0  0  0  0  0  0  0  0  0  0  0  0
   11.7948    9.6297    2.5506 C   0  0  0  0  0  0  0  0  0  0  0  0
   10.3402    9.9873    2.8250 C   0  0  0  0  0  0  0  0  0  0  0  0
  1  2  2  0
  2  3  1  0
  3  4  2  0
  4  5  1  0
  3  6  1  0
  6  7  1  0
  7  8  2  0
  7  9  1  0
  9 10  1  0
 10 11  1  0
 11 12  1  0
 12 13  1  0
 13 14  1  0
 13 15  1  0
 12 16  1  0
 16 17  1  0
 17  9  1  0
M  CHG  1  15   1
M  END
>  <EmbedRMS>  (145) 
0.29216731409503444

>  <Gold.Version>  (145) 
2020.3.0

>  <Gold.Id.Protein>  (145) 
unknown|1q8t_protein|pdb

>  <Gold.PLP.Fitness>  (145) 
45.2052

>  <Gold.PLP.PLP>  (145) 
-39.4203

>  <Gold.PLP.part.hbond>  (145) 
-1.7126

>  <Gold.PLP.part.metal>  (145) 
0.0000

>  <Gold.PLP.part.buried>  (145) 
-1.3257

>  <Gold.PLP.part.nonpolar>  (145) 
-36.1820

>  <Gold.PLP.part.repulsive>  (145) 
0.0539

>  <Gold.PLP.ligand.clash>  (145) 
0.0000

>  <Gold.PLP.ligand.torsion>  (145) 
2.0489

>  <Gold.PLP.Chemscore.Hbond>  (145) 
2.9760

>  <Gold.PLP.Chemscore.CHOScore>  (145) 
0.0000

>  <Gold.PLP.Chemscore.Metal>  (145) 
0.0000

>  <Gold.Chemscore.Hbonds>  (145) 
donor molecule, donor type, donor heavy atom, donor atom, acceptor molecule, acceptor atom, score
      L1  H    15    36       P1  2902  2.00
      L1  H    15    37       P1  2691  0.98

>  <Gold.PLP.Chemscore.Internal.Correction>  (145) 
0.9547

>  <Gold.PLP.Constraint>  (145) 
-0.0000

>  <Gold.Protein.RotatedTorsions>  (145) 
[  681  677  676  673 ] final   -0.23 input -179.99 | X-H torsion
[  702  698  697  694 ] final -159.07 input  179.99 | X-H torsion
[ 2577 2569 2568 2566 ] final  154.19 input   -0.13 | X-H torsion
[ 2891 2887 2886 2883 ] final   90.32 input  179.98 | X-H torsion
[ 3175 3171 3170 3167 ] final   -6.34 input -179.99 | X-H torsion
[ 5278 5270 5269 5267 ] final  161.07 input    0.55 | X-H torsion
[  641  637  636  633 ] final   90.93 input  179.99 | X-H torsion
[ 1886 1878 1877 1875 ] final -170.94 input    1.60 | X-H torsion
[  965  957  956  954 ] final  160.70 input    0.45 | X-H torsion

>  <Gold.Protein.ActiveResidues>  (145) 
 LYS47   THR48   LEU49   GLY50   THR51   GLY52   SER53   PHE54   GLY55   ARG56  
 VAL57   MET58   LEU59   TYR69   ALA70   MET71   LYS72   ILE73   LEU74   GLU91  
 LEU95   VAL104  LYS105  MET118  VAL119  MET120  GLU121  TYR122  VAL123  PRO124 
 GLY125  GLY126  GLU127  MET128  PHE129  TYR164  ASP166  LEU167  LYS168  PRO169 
 GLU170  ASN171  LEU172  LEU173  ILE174  GLN181  VAL182  THR183  ASP184  PHE185 
 GLY186  PHE187  GLY200  THR201  ASN326  PHE327  TYR330  ARG18   ARG19   ASN20  
 ALA21   ILE22   HIS23  

>  <Gold.Protein.RotatedAtoms>  (145) 
   10.3375   19.7563    8.8519 H   0  0  0  0  0  0  0  0  0  0  0  0  # atno 641  bound_to 637 
   15.8676   12.6379    6.4572 H   0  0  0  0  0  0  0  0  0  0  0  0  # atno 681  bound_to 677 
   21.0946   11.5551   -1.3304 H   0  0  0  0  0  0  0  0  0  0  0  0  # atno 702  bound_to 698 
   -7.0070   17.0109   -0.3348 H   0  0  0  0  0  0  0  0  0  0  0  0  # atno 965  bound_to 957 
    0.6113   11.3994   11.0450 H   0  0  0  0  0  0  0  0  0  0  0  0  # atno 1886 bound_to 1878
   10.2099    1.9013   -2.3874 H   0  0  0  0  0  0  0  0  0  0  0  0  # atno 2577 bound_to 2569
    8.2375    6.6874    0.4800 H   0  0  0  0  0  0  0  0  0  0  0  0  # atno 2891 bound_to 2887
   19.1877    2.8030   -1.1521 H   0  0  0  0  0  0  0  0  0  0  0  0  # atno 3175 bound_to 3171
   14.2749   10.1522    9.1322 H   0  0  0  0  0  0  0  0  0  0  0  0  # atno 5278 bound_to 5270
   16.1948   13.8296    7.4616 LP  0  0  0  0  0  0  0  0  0  0  0  0  # atno 5914 bound_to 677 
   17.2782   13.3662    6.3311 LP  0  0  0  0  0  0  0  0  0  0  0  0  # atno 5915 bound_to 677 
   19.6039   11.8122   -1.8293 LP  0  0  0  0  0  0  0  0  0  0  0  0  # atno 5920 bound_to 698 
   19.9491   11.7202   -0.2359 LP  0  0  0  0  0  0  0  0  0  0  0  0  # atno 5921 bound_to 698 
    9.3457    2.9792   -3.1789 LP  0  0  0  0  0  0  0  0  0  0  0  0  # atno 5950 bound_to 2569
   10.9746    3.0831   -3.1316 LP  0  0  0  0  0  0  0  0  0  0  0  0  # atno 5951 bound_to 2569
    7.8106    5.1608    0.6341 LP  0  0  0  0  0  0  0  0  0  0  0  0  # atno 5982 bound_to 2887
    7.1947    6.3060    1.6218 LP  0  0  0  0  0  0  0  0  0  0  0  0  # atno 5983 bound_to 2887
   18.7803    2.7245    0.3853 LP  0  0  0  0  0  0  0  0  0  0  0  0  # atno 6000 bound_to 3171
   17.9146    1.9343   -0.7518 LP  0  0  0  0  0  0  0  0  0  0  0  0  # atno 6001 bound_to 3171
   12.6846   10.1008    9.2038 LP  0  0  0  0  0  0  0  0  0  0  0  0  # atno 6004 bound_to 5270
   13.5927    9.7847   10.5237 LP  0  0  0  0  0  0  0  0  0  0  0  0  # atno 6005 bound_to 5270
    9.7320   19.1286    7.5199 LP  0  0  0  0  0  0  0  0  0  0  0  0  # atno 6055 bound_to 637 
   11.3453   19.1661    7.7698 LP  0  0  0  0  0  0  0  0  0  0  0  0  # atno 6056 bound_to 637 
    1.8981   12.2456   10.6410 LP  0  0  0  0  0  0  0  0  0  0  0  0  # atno 6063 bound_to 1878
    1.8437   10.6329   10.3900 LP  0  0  0  0  0  0  0  0  0  0  0  0  # atno 6064 bound_to 1878
   -6.9981   15.4214   -0.4271 LP  0  0  0  0  0  0  0  0  0  0  0  0  # atno 6067 bound_to 957 
   -6.4302   16.3347   -1.6559 LP  0  0  0  0  0  0  0  0  0  0  0  0  # atno 6068 bound_to 957 

>  <STRIFE_LigEff_Score>  (145) 
2.659129411764706

$$$$
unknown|pharmsElabsTestPreDocking|sdf|146|dock4
     RDKit          3D

 19 20  0  0  0  0  0  0  0  0999 V2000
   14.1079    6.8816    2.9673 C   0  0  0  0  0  0  0  0  0  0  0  0
   14.0316    8.2502    2.2665 C   0  0  0  0  0  0  0  0  0  0  0  0
   14.5862    8.1303    0.9111 N   0  0  0  0  0  0  0  0  0  0  0  0
   12.5606    8.7844    2.2669 C   0  0  0  0  0  0  0  0  0  0  0  0
   11.6307    7.6967    1.6988 C   0  0  0  0  0  0  0  0  0  0  0  0
   10.1809    8.1456    1.5526 C   0  0  0  0  0  0  0  0  0  0  0  0
    9.7667    9.2424    2.5216 C   0  0  0  0  0  0  0  0  0  0  0  0
    8.2876    9.4971    2.5465 C   0  0  0  0  0  0  0  0  0  0  0  0
    7.7523    9.3928    3.6772 O   0  0  0  0  0  0  0  0  0  0  0  0
    7.4648    9.8364    1.4168 N   0  0  0  0  0  0  0  0  0  0  0  0
    6.0101    9.9493    1.6181 C   0  0  0  0  0  0  0  0  0  0  0  0
    5.4197    8.7426    2.3416 C   0  0  0  0  0  0  0  0  0  0  0  0
    4.6015    9.1718    3.4678 N   0  0  0  0  0  0  0  0  0  0  0  0
    3.3007    9.5082    3.4661 C   0  0  0  0  0  0  0  0  0  0  0  0
    2.9110    9.9023    4.6929 N   0  0  0  0  0  0  0  0  0  0  0  0
    3.9732    9.8257    5.4842 N   0  0  0  0  0  0  0  0  0  0  0  0
    4.9980    9.3857    4.7320 C   0  0  0  0  0  0  0  0  0  0  0  0
   10.5598    9.5182    3.7849 C   0  0  0  0  0  0  0  0  0  0  0  0
   12.0646    9.1843    3.6800 C   0  0  0  0  0  0  0  0  0  0  0  0
  1  2  1  0
  2  3  1  0
  2  4  1  0
  4  5  1  0
  5  6  1  0
  6  7  1  0
  7  8  1  0
  8  9  2  0
  8 10  1  0
 10 11  1  0
 11 12  1  0
 12 13  1  0
 13 14  1  0
 14 15  2  0
 15 16  1  0
 16 17  2  0
  7 18  1  0
 18 19  1  0
 19  4  1  0
 17 13  1  0
M  CHG  1   3   1
M  END
>  <EmbedRMS>  (146) 
0.17151622795060717

>  <Gold.Version>  (146) 
2020.3.0

>  <Gold.Id.Protein>  (146) 
unknown|1q8t_protein|pdb

>  <Gold.PLP.Fitness>  (146) 
52.2313

>  <Gold.PLP.PLP>  (146) 
-41.9885

>  <Gold.PLP.part.hbond>  (146) 
-2.0000

>  <Gold.PLP.part.metal>  (146) 
0.0000

>  <Gold.PLP.part.buried>  (146) 
-7.6628

>  <Gold.PLP.part.nonpolar>  (146) 
-33.0179

>  <Gold.PLP.part.repulsive>  (146) 
0.2379

>  <Gold.PLP.ligand.clash>  (146) 
0.0000

>  <Gold.PLP.ligand.torsion>  (146) 
1.2499

>  <Gold.PLP.Chemscore.Hbond>  (146) 
3.0000

>  <Gold.PLP.Chemscore.CHOScore>  (146) 
1.0000

>  <Gold.PLP.Chemscore.Metal>  (146) 
0.0000

>  <Gold.Chemscore.Hbonds>  (146) 
donor molecule, donor type, donor heavy atom, donor atom, acceptor molecule, acceptor atom, score
      L1  H     3    26       P1  2902  2.00
      P1  H  1888  1903       L1    15  1.00
      L1  C    14    38       P1  1855  1.00

>  <Gold.PLP.Chemscore.Internal.Correction>  (146) 
0.7425

>  <Gold.PLP.Constraint>  (146) 
-0.0000

>  <Gold.Protein.RotatedTorsions>  (146) 
[  681  677  676  673 ] final -127.33 input -179.99 | X-H torsion
[  702  698  697  694 ] final -166.06 input  179.99 | X-H torsion
[ 2577 2569 2568 2566 ] final  -87.55 input   -0.13 | X-H torsion
[ 2891 2887 2886 2883 ] final   20.61 input  179.98 | X-H torsion
[ 3175 3171 3170 3167 ] final  -92.37 input -179.99 | X-H torsion
[ 5278 5270 5269 5267 ] final   58.75 input    0.55 | X-H torsion
[  641  637  636  633 ] final    7.35 input  179.99 | X-H torsion
[ 1886 1878 1877 1875 ] final  134.74 input    1.60 | X-H torsion
[  965  957  956  954 ] final  113.39 input    0.45 | X-H torsion

>  <Gold.Protein.ActiveResidues>  (146) 
 LYS47   THR48   LEU49   GLY50   THR51   GLY52   SER53   PHE54   GLY55   ARG56  
 VAL57   MET58   LEU59   TYR69   ALA70   MET71   LYS72   ILE73   LEU74   GLU91  
 LEU95   VAL104  LYS105  MET118  VAL119  MET120  GLU121  TYR122  VAL123  PRO124 
 GLY125  GLY126  GLU127  MET128  PHE129  TYR164  ASP166  LEU167  LYS168  PRO169 
 GLU170  ASN171  LEU172  LEU173  ILE174  GLN181  VAL182  THR183  ASP184  PHE185 
 GLY186  PHE187  GLY200  THR201  ASN326  PHE327  TYR330  ARG18   ARG19   ASN20  
 ALA21   ILE22   HIS23  

>  <Gold.Protein.RotatedAtoms>  (146) 
    9.5751   19.3730    8.0178 H   0  0  0  0  0  0  0  0  0  0  0  0  # atno 641  bound_to 637 
   16.2992   13.8603    7.4018 H   0  0  0  0  0  0  0  0  0  0  0  0  # atno 681  bound_to 677 
   21.0652   11.5624   -1.4354 H   0  0  0  0  0  0  0  0  0  0  0  0  # atno 702  bound_to 698 
   -7.1710   16.4040    0.0128 H   0  0  0  0  0  0  0  0  0  0  0  0  # atno 965  bound_to 957 
    0.9776   12.1293   11.0081 H   0  0  0  0  0  0  0  0  0  0  0  0  # atno 1886 bound_to 1878
   10.9496    3.0330   -3.1190 H   0  0  0  0  0  0  0  0  0  0  0  0  # atno 2577 bound_to 2569
    8.2346    5.6908    0.2445 H   0  0  0  0  0  0  0  0  0  0  0  0  # atno 2891 bound_to 2887
   19.1553    2.9380    0.0620 H   0  0  0  0  0  0  0  0  0  0  0  0  # atno 3175 bound_to 3171
   12.8846   10.1680    9.0094 H   0  0  0  0  0  0  0  0  0  0  0  0  # atno 5278 bound_to 5270
   17.2468   13.2773    6.2623 LP  0  0  0  0  0  0  0  0  0  0  0  0  # atno 5914 bound_to 677 
   15.7720   12.6319    6.5362 LP  0  0  0  0  0  0  0  0  0  0  0  0  # atno 5915 bound_to 677 
   19.5251   11.8245   -1.7465 LP  0  0  0  0  0  0  0  0  0  0  0  0  # atno 5920 bound_to 698 
   20.0589   11.7002   -0.2082 LP  0  0  0  0  0  0  0  0  0  0  0  0  # atno 5921 bound_to 698 
   10.1821    1.8705   -2.3477 LP  0  0  0  0  0  0  0  0  0  0  0  0  # atno 5950 bound_to 2569
    9.3594    3.0003   -3.1925 LP  0  0  0  0  0  0  0  0  0  0  0  0  # atno 5951 bound_to 2569
    7.1925    5.5264    1.4376 LP  0  0  0  0  0  0  0  0  0  0  0  0  # atno 5982 bound_to 2887
    7.8158    6.9893    1.0661 LP  0  0  0  0  0  0  0  0  0  0  0  0  # atno 5983 bound_to 2887
   17.9000    1.9952   -0.2044 LP  0  0  0  0  0  0  0  0  0  0  0  0  # atno 6000 bound_to 3171
   18.8290    2.5215   -1.4399 LP  0  0  0  0  0  0  0  0  0  0  0  0  # atno 6001 bound_to 3171
   13.3039    9.7880   10.4982 LP  0  0  0  0  0  0  0  0  0  0  0  0  # atno 6004 bound_to 5270
   14.4361   10.0809    9.3585 LP  0  0  0  0  0  0  0  0  0  0  0  0  # atno 6005 bound_to 5270
   10.9688   18.9768    7.3580 LP  0  0  0  0  0  0  0  0  0  0  0  0  # atno 6055 bound_to 637 
   10.9114   19.7215    8.8101 LP  0  0  0  0  0  0  0  0  0  0  0  0  # atno 6056 bound_to 637 
    2.3018   11.5460   10.3437 LP  0  0  0  0  0  0  0  0  0  0  0  0  # atno 6063 bound_to 1878
    1.0544   10.5641   10.7262 LP  0  0  0  0  0  0  0  0  0  0  0  0  # atno 6064 bound_to 1878
   -6.6853   15.3906   -1.1151 LP  0  0  0  0  0  0  0  0  0  0  0  0  # atno 6067 bound_to 957 
   -6.5703   17.0048   -1.3339 LP  0  0  0  0  0  0  0  0  0  0  0  0  # atno 6068 bound_to 957 

>  <STRIFE_LigEff_Score>  (146) 
2.749015789473684

$$$$
unknown|pharmsElabsTestPreDocking|sdf|147|dock5
     RDKit          3D

 15 15  0  0  0  0  0  0  0  0999 V2000
    4.3975    9.7530    5.2997 C   0  0  0  0  0  0  0  0  0  0  0  0
    5.1028    9.4246    4.0159 C   0  0  0  0  0  0  0  0  0  0  0  0
    4.4017    8.9035    2.7922 C   0  0  0  0  0  0  0  0  0  0  0  0
    6.4771    8.9171    4.1942 N   0  0  0  0  0  0  0  0  0  0  0  0
    7.3928    9.3034    3.1540 C   0  0  0  0  0  0  0  0  0  0  0  0
    6.9469    9.9182    2.1542 O   0  0  0  0  0  0  0  0  0  0  0  0
    8.8543    9.0630    3.0699 C   0  0  0  0  0  0  0  0  0  0  0  0
    9.2087    7.6147    2.8629 C   0  0  0  0  0  0  0  0  0  0  0  0
   10.6337    7.4315    2.3777 C   0  0  0  0  0  0  0  0  0  0  0  0
   11.6639    8.3395    3.0489 C   0  0  0  0  0  0  0  0  0  0  0  0
   13.1354    8.0934    2.5651 C   0  0  0  0  0  0  0  0  0  0  0  0
   14.1393    7.6397    3.6384 C   0  0  0  0  0  0  0  0  0  0  0  0
   13.2016    7.2026    1.4033 N   0  0  0  0  0  0  0  0  0  0  0  0
   11.2334    9.7907    3.3575 C   0  0  0  0  0  0  0  0  0  0  0  0
    9.7899    9.9312    3.8667 C   0  0  0  0  0  0  0  0  0  0  0  0
  1  2  1  0
  2  3  1  0
  2  4  1  0
  4  5  1  0
  5  6  2  0
  5  7  1  0
  7  8  1  0
  8  9  1  0
  9 10  1  0
 10 11  1  0
 11 12  1  0
 11 13  1  0
 10 14  1  0
 14 15  1  0
 15  7  1  0
M  CHG  1  13   1
M  END
>  <EmbedRMS>  (147) 
0.35838126622633487

>  <Gold.Version>  (147) 
2020.3.0

>  <Gold.Id.Protein>  (147) 
unknown|1q8t_protein|pdb

>  <Gold.PLP.Fitness>  (147) 
41.8896

>  <Gold.PLP.PLP>  (147) 
-36.1264

>  <Gold.PLP.part.hbond>  (147) 
-2.0000

>  <Gold.PLP.part.metal>  (147) 
0.0000

>  <Gold.PLP.part.buried>  (147) 
-4.1111

>  <Gold.PLP.part.nonpolar>  (147) 
-29.9977

>  <Gold.PLP.part.repulsive>  (147) 
0.0296

>  <Gold.PLP.ligand.clash>  (147) 
0.0000

>  <Gold.PLP.ligand.torsion>  (147) 
1.8349

>  <Gold.PLP.Chemscore.Hbond>  (147) 
2.7040

>  <Gold.PLP.Chemscore.CHOScore>  (147) 
0.0000

>  <Gold.PLP.Chemscore.Metal>  (147) 
0.0000

>  <Gold.Chemscore.Hbonds>  (147) 
donor molecule, donor type, donor heavy atom, donor atom, acceptor molecule, acceptor atom, score
      L1  H    13    34       P1  2691  0.70
      L1  H    13    36       P1  2902  2.00

>  <Gold.PLP.Chemscore.Internal.Correction>  (147) 
1.3209

>  <Gold.PLP.Constraint>  (147) 
-0.0000

>  <Gold.Protein.RotatedTorsions>  (147) 
[  681  677  676  673 ] final   24.51 input -179.99 | X-H torsion
[  702  698  697  694 ] final  -27.93 input  179.99 | X-H torsion
[ 2577 2569 2568 2566 ] final  -99.74 input   -0.13 | X-H torsion
[ 2891 2887 2886 2883 ] final -163.35 input  179.98 | X-H torsion
[ 3175 3171 3170 3167 ] final  -56.50 input -179.99 | X-H torsion
[ 5278 5270 5269 5267 ] final    7.34 input    0.55 | X-H torsion
[  641  637  636  633 ] final -145.63 input  179.99 | X-H torsion
[ 1886 1878 1877 1875 ] final  154.84 input    1.60 | X-H torsion
[  965  957  956  954 ] final   90.68 input    0.45 | X-H torsion

>  <Gold.Protein.ActiveResidues>  (147) 
 LYS47   THR48   LEU49   GLY50   THR51   GLY52   SER53   PHE54   GLY55   ARG56  
 VAL57   MET58   LEU59   TYR69   ALA70   MET71   LYS72   ILE73   LEU74   GLU91  
 LEU95   VAL104  LYS105  MET118  VAL119  MET120  GLU121  TYR122  VAL123  PRO124 
 GLY125  GLY126  GLU127  MET128  PHE129  TYR164  ASP166  LEU167  LYS168  PRO169 
 GLU170  ASN171  LEU172  LEU173  ILE174  GLN181  VAL182  THR183  ASP184  PHE185 
 GLY186  PHE187  GLY200  THR201  ASN326  PHE327  TYR330  ARG18   ARG19   ASN20  
 ALA21   ILE22   HIS23  

>  <Gold.Protein.RotatedAtoms>  (147) 
   11.2791   19.1397    7.7474 H   0  0  0  0  0  0  0  0  0  0  0  0  # atno 641  bound_to 637 
   16.1682   12.5899    6.2234 H   0  0  0  0  0  0  0  0  0  0  0  0  # atno 681  bound_to 677 
   19.8083   11.7642   -0.3479 H   0  0  0  0  0  0  0  0  0  0  0  0  # atno 702  bound_to 698 
   -7.1670   16.0518   -0.0034 H   0  0  0  0  0  0  0  0  0  0  0  0  # atno 965  bound_to 957 
    0.7702   11.9015   11.0606 H   0  0  0  0  0  0  0  0  0  0  0  0  # atno 1886 bound_to 1878
   11.0275    2.8932   -3.0162 H   0  0  0  0  0  0  0  0  0  0  0  0  # atno 2577 bound_to 2569
    7.2861    6.4917    1.5351 H   0  0  0  0  0  0  0  0  0  0  0  0  # atno 2891 bound_to 2887
   19.3569    3.0210   -0.4446 H   0  0  0  0  0  0  0  0  0  0  0  0  # atno 3175 bound_to 3171
   12.6419    9.9888    9.7257 H   0  0  0  0  0  0  0  0  0  0  0  0  # atno 5278 bound_to 5270
   15.8709   13.5910    7.4258 LP  0  0  0  0  0  0  0  0  0  0  0  0  # atno 5914 bound_to 677 
   17.2858   13.6553    6.6130 LP  0  0  0  0  0  0  0  0  0  0  0  0  # atno 5915 bound_to 677 
   21.1579   11.5238   -1.1592 LP  0  0  0  0  0  0  0  0  0  0  0  0  # atno 5920 bound_to 698 
   19.7481   11.7887   -1.9395 LP  0  0  0  0  0  0  0  0  0  0  0  0  # atno 5921 bound_to 698 
    9.9833    1.8803   -2.3691 LP  0  0  0  0  0  0  0  0  0  0  0  0  # atno 5950 bound_to 2569
    9.4762    3.1377   -3.2793 LP  0  0  0  0  0  0  0  0  0  0  0  0  # atno 5951 bound_to 2569
    8.3448    6.5426    0.3464 LP  0  0  0  0  0  0  0  0  0  0  0  0  # atno 5982 bound_to 2887
    7.6618    5.1301    0.7991 LP  0  0  0  0  0  0  0  0  0  0  0  0  # atno 5983 bound_to 2887
   18.1551    2.2442    0.2539 LP  0  0  0  0  0  0  0  0  0  0  0  0  # atno 6000 bound_to 3171
   18.3618    2.1853   -1.3649 LP  0  0  0  0  0  0  0  0  0  0  0  0  # atno 6001 bound_to 3171
   14.1044    9.8359   10.3377 LP  0  0  0  0  0  0  0  0  0  0  0  0  # atno 6004 bound_to 5270
   13.8910   10.2215    8.7653 LP  0  0  0  0  0  0  0  0  0  0  0  0  # atno 6005 bound_to 5270
   10.3876   19.7932    8.8933 LP  0  0  0  0  0  0  0  0  0  0  0  0  # atno 6055 bound_to 637 
    9.6981   19.1508    7.5597 LP  0  0  0  0  0  0  0  0  0  0  0  0  # atno 6056 bound_to 637 
    2.2306   11.8560   10.4280 LP  0  0  0  0  0  0  0  0  0  0  0  0  # atno 6063 bound_to 1878
    1.3439   10.4939   10.5866 LP  0  0  0  0  0  0  0  0  0  0  0  0  # atno 6064 bound_to 1878
   -6.5542   15.5910   -1.3989 LP  0  0  0  0  0  0  0  0  0  0  0  0  # atno 6067 bound_to 957 
   -6.7056   17.1753   -1.0330 LP  0  0  0  0  0  0  0  0  0  0  0  0  # atno 6068 bound_to 957 

>  <STRIFE_LigEff_Score>  (147) 
2.79264

$$$$
unknown|pharmsElabsTestPreDocking|sdf|148|dock7
     RDKit          3D

 18 19  0  0  0  0  0  0  0  0999 V2000
   14.4686    9.4870    1.1351 C   0  0  0  0  0  0  0  0  0  0  0  0
   13.7052    8.2802    1.6544 C   0  0  0  0  0  0  0  0  0  0  0  0
   14.0330    7.0195    0.9978 N   0  0  0  0  0  0  0  0  0  0  0  0
   12.2185    8.5079    2.0657 C   0  0  0  0  0  0  0  0  0  0  0  0
   11.5209    7.4002    2.8706 C   0  0  0  0  0  0  0  0  0  0  0  0
    9.9916    7.5893    2.8644 C   0  0  0  0  0  0  0  0  0  0  0  0
    9.5381    9.0370    2.6600 C   0  0  0  0  0  0  0  0  0  0  0  0
    8.0629    9.2518    2.7969 C   0  0  0  0  0  0  0  0  0  0  0  0
    7.5326    9.7174    1.7648 O   0  0  0  0  0  0  0  0  0  0  0  0
    7.2617    8.9701    3.9680 N   0  0  0  0  0  0  0  0  0  0  0  0
    5.8501    9.3122    4.1044 C   0  0  0  0  0  0  0  0  0  0  0  0
    4.9933    9.1566    2.9976 C   0  0  0  0  0  0  0  0  0  0  0  0
    3.6287    9.4638    3.0972 C   0  0  0  0  0  0  0  0  0  0  0  0
    3.0982    9.9396    4.2969 C   0  0  0  0  0  0  0  0  0  0  0  0
    3.9233   10.0995    5.4023 C   0  0  0  0  0  0  0  0  0  0  0  0
    5.2746    9.7795    5.3181 C   0  0  0  0  0  0  0  0  0  0  0  0
   10.4685   10.1961    2.9638 C   0  0  0  0  0  0  0  0  0  0  0  0
   11.9612    9.8761    2.7334 C   0  0  0  0  0  0  0  0  0  0  0  0
  1  2  1  0
  2  3  1  0
  2  4  1  0
  4  5  1  0
  5  6  1  0
  6  7  1  0
  7  8  1  0
  8  9  2  0
  8 10  1  0
 10 11  1  0
 11 12  2  0
 12 13  1  0
 13 14  2  0
 14 15  1  0
 15 16  2  0
  7 17  1  0
 17 18  1  0
 18  4  1  0
 16 11  1  0
M  CHG  1   3   1
M  END
>  <EmbedRMS>  (148) 
0.24964892458419108

>  <Gold.Version>  (148) 
2020.3.0

>  <Gold.Id.Protein>  (148) 
unknown|1q8t_protein|pdb

>  <Gold.PLP.Fitness>  (148) 
54.8474

>  <Gold.PLP.PLP>  (148) 
-47.7318

>  <Gold.PLP.part.hbond>  (148) 
-2.0000

>  <Gold.PLP.part.metal>  (148) 
0.0000

>  <Gold.PLP.part.buried>  (148) 
-2.6732

>  <Gold.PLP.part.nonpolar>  (148) 
-44.3038

>  <Gold.PLP.part.repulsive>  (148) 
0.0708

>  <Gold.PLP.ligand.clash>  (148) 
0.0000

>  <Gold.PLP.ligand.torsion>  (148) 
0.8464

>  <Gold.PLP.Chemscore.Hbond>  (148) 
2.6240

>  <Gold.PLP.Chemscore.CHOScore>  (148) 
0.0000

>  <Gold.PLP.Chemscore.Metal>  (148) 
0.0000

>  <Gold.Chemscore.Hbonds>  (148) 
donor molecule, donor type, donor heavy atom, donor atom, acceptor molecule, acceptor atom, score
      L1  H     3    24       P1  2902  1.70
      L1  H     3    25       P1  2691  0.93

>  <Gold.PLP.Chemscore.Internal.Correction>  (148) 
0.9363

>  <Gold.PLP.Constraint>  (148) 
-0.0000

>  <Gold.Protein.RotatedTorsions>  (148) 
[  681  677  676  673 ] final -154.03 input -179.99 | X-H torsion
[  702  698  697  694 ] final -154.32 input  179.99 | X-H torsion
[ 2577 2569 2568 2566 ] final  104.62 input   -0.13 | X-H torsion
[ 2891 2887 2886 2883 ] final   86.71 input  179.98 | X-H torsion
[ 3175 3171 3170 3167 ] final  142.54 input -179.99 | X-H torsion
[ 5278 5270 5269 5267 ] final -173.17 input    0.55 | X-H torsion
[  641  637  636  633 ] final  108.84 input  179.99 | X-H torsion
[ 1886 1878 1877 1875 ] final  107.95 input    1.60 | X-H torsion
[  965  957  956  954 ] final   49.65 input    0.45 | X-H torsion

>  <Gold.Protein.ActiveResidues>  (148) 
 LYS47   THR48   LEU49   GLY50   THR51   GLY52   SER53   PHE54   GLY55   ARG56  
 VAL57   MET58   LEU59   TYR69   ALA70   MET71   LYS72   ILE73   LEU74   GLU91  
 LEU95   VAL104  LYS105  MET118  VAL119  MET120  GLU121  TYR122  VAL123  PRO124 
 GLY125  GLY126  GLU127  MET128  PHE129  TYR164  ASP166  LEU167  LYS168  PRO169 
 GLU170  ASN171  LEU172  LEU173  ILE174  GLN181  VAL182  THR183  ASP184  PHE185 
 GLY186  PHE187  GLY200  THR201  ASN326  PHE327  TYR330  ARG18   ARG19   ASN20  
 ALA21   ILE22   HIS23  

>  <Gold.Protein.RotatedAtoms>  (148) 
   10.6159   19.7428    8.8560 H   0  0  0  0  0  0  0  0  0  0  0  0  # atno 641  bound_to 637 
   16.6771   13.9569    7.2634 H   0  0  0  0  0  0  0  0  0  0  0  0  # atno 681  bound_to 677 
   21.1074   11.5515   -1.2573 H   0  0  0  0  0  0  0  0  0  0  0  0  # atno 702  bound_to 698 
   -7.0237   15.5349   -0.3291 H   0  0  0  0  0  0  0  0  0  0  0  0  # atno 965  bound_to 957 
    1.3347   12.2967   10.8792 H   0  0  0  0  0  0  0  0  0  0  0  0  # atno 1886 bound_to 1878
    9.5188    2.1159   -2.5871 H   0  0  0  0  0  0  0  0  0  0  0  0  # atno 2577 bound_to 2569
    8.2577    6.6466    0.4467 H   0  0  0  0  0  0  0  0  0  0  0  0  # atno 2891 bound_to 2887
   17.9330    1.9861   -0.2940 H   0  0  0  0  0  0  0  0  0  0  0  0  # atno 3175 bound_to 3171
   14.4174   10.0642    9.4950 H   0  0  0  0  0  0  0  0  0  0  0  0  # atno 5278 bound_to 5270
   17.0239   12.9518    6.0778 LP  0  0  0  0  0  0  0  0  0  0  0  0  # atno 5914 bound_to 677 
   15.5972   12.8558    6.8664 LP  0  0  0  0  0  0  0  0  0  0  0  0  # atno 5915 bound_to 677 
   19.6628   11.8027   -1.8797 LP  0  0  0  0  0  0  0  0  0  0  0  0  # atno 5920 bound_to 698 
   19.8768   11.7335   -0.2623 LP  0  0  0  0  0  0  0  0  0  0  0  0  # atno 5921 bound_to 698 
    9.9736    3.3939   -3.4208 LP  0  0  0  0  0  0  0  0  0  0  0  0  # atno 5950 bound_to 2569
   11.0744    2.4425   -2.6794 LP  0  0  0  0  0  0  0  0  0  0  0  0  # atno 5951 bound_to 2569
    7.7713    5.1476    0.6765 LP  0  0  0  0  0  0  0  0  0  0  0  0  # atno 5982 bound_to 2887
    7.2127    6.3621    1.6144 LP  0  0  0  0  0  0  0  0  0  0  0  0  # atno 5983 bound_to 2887
   18.8934    2.5716   -1.4211 LP  0  0  0  0  0  0  0  0  0  0  0  0  # atno 6000 bound_to 3171
   19.1220    2.9469    0.1516 LP  0  0  0  0  0  0  0  0  0  0  0  0  # atno 6001 bound_to 3171
   12.9497   10.1815    8.8876 LP  0  0  0  0  0  0  0  0  0  0  0  0  # atno 6004 bound_to 5270
   13.1775    9.7965   10.4581 LP  0  0  0  0  0  0  0  0  0  0  0  0  # atno 6005 bound_to 5270
    9.5877   19.2512    7.7442 LP  0  0  0  0  0  0  0  0  0  0  0  0  # atno 6055 bound_to 637 
   11.1964   19.0577    7.5412 LP  0  0  0  0  0  0  0  0  0  0  0  0  # atno 6056 bound_to 637 
    2.2337   11.1167   10.3005 LP  0  0  0  0  0  0  0  0  0  0  0  0  # atno 6063 bound_to 1878
    0.7466   10.8172   10.9051 LP  0  0  0  0  0  0  0  0  0  0  0  0  # atno 6064 bound_to 1878
   -6.4318   16.1877   -1.6553 LP  0  0  0  0  0  0  0  0  0  0  0  0  # atno 6067 bound_to 957 
   -6.9789   17.1230   -0.4336 LP  0  0  0  0  0  0  0  0  0  0  0  0  # atno 6068 bound_to 957 

>  <STRIFE_LigEff_Score>  (148) 
3.047077777777778

$$$$
unknown|pharmsElabsTestPreDocking|sdf|149|dock5
     RDKit          3D

 19 20  0  0  0  0  0  0  0  0999 V2000
   13.7434    7.2100    2.8517 C   0  0  0  0  0  0  0  0  0  0  0  0
   13.5686    8.6048    2.2238 C   0  0  0  0  0  0  0  0  0  0  0  0
   14.1941    8.6178    0.8943 N   0  0  0  0  0  0  0  0  0  0  0  0
   12.0547    8.9988    2.1777 C   0  0  0  0  0  0  0  0  0  0  0  0
   11.2779    7.9194    1.4016 C   0  0  0  0  0  0  0  0  0  0  0  0
    9.8034    8.2510    1.2013 C   0  0  0  0  0  0  0  0  0  0  0  0
    9.2184    9.1619    2.2699 C   0  0  0  0  0  0  0  0  0  0  0  0
    7.7232    9.2767    2.2101 C   0  0  0  0  0  0  0  0  0  0  0  0
    7.0997    8.2834    2.6585 O   0  0  0  0  0  0  0  0  0  0  0  0
    6.9744   10.3925    1.6961 N   0  0  0  0  0  0  0  0  0  0  0  0
    5.5101   10.2695    1.6184 C   0  0  0  0  0  0  0  0  0  0  0  0
    4.8888   10.0664    2.9665 C   0  0  0  0  0  0  0  0  0  0  0  0
    5.6404   10.2628    4.1325 C   0  0  0  0  0  0  0  0  0  0  0  0
    5.0450   10.0851    5.3815 C   0  0  0  0  0  0  0  0  0  0  0  0
    3.7006    9.7140    5.4514 C   0  0  0  0  0  0  0  0  0  0  0  0
    2.9846    9.5263    4.3107 N   0  0  0  0  0  0  0  0  0  0  0  0
    3.5426    9.6928    3.0823 C   0  0  0  0  0  0  0  0  0  0  0  0
    9.8950    9.3336    3.6163 C   0  0  0  0  0  0  0  0  0  0  0  0
   11.4293    9.1550    3.5874 C   0  0  0  0  0  0  0  0  0  0  0  0
  1  2  1  0
  2  3  1  0
  2  4  1  0
  4  5  1  0
  5  6  1  0
  6  7  1  0
  7  8  1  0
  8  9  2  0
  8 10  1  0
 10 11  1  0
 11 12  1  0
 12 13  2  0
 13 14  1  0
 14 15  2  0
 15 16  1  0
 16 17  2  0
  7 18  1  0
 18 19  1  0
 19  4  1  0
 17 12  1  0
M  CHG  1   3   1
M  END
>  <EmbedRMS>  (149) 
0.17084101544492625

>  <Gold.Version>  (149) 
2020.3.0

>  <Gold.Id.Protein>  (149) 
unknown|1q8t_protein|pdb

>  <Gold.PLP.Fitness>  (149) 
62.1397

>  <Gold.PLP.PLP>  (149) 
-45.4209

>  <Gold.PLP.part.hbond>  (149) 
-3.0000

>  <Gold.PLP.part.metal>  (149) 
0.0000

>  <Gold.PLP.part.buried>  (149) 
-2.3663

>  <Gold.PLP.part.nonpolar>  (149) 
-41.6439

>  <Gold.PLP.part.repulsive>  (149) 
0.1482

>  <Gold.PLP.ligand.clash>  (149) 
0.0000

>  <Gold.PLP.ligand.torsion>  (149) 
0.5550

>  <Gold.PLP.Chemscore.Hbond>  (149) 
4.0000

>  <Gold.PLP.Chemscore.CHOScore>  (149) 
1.7055

>  <Gold.PLP.Chemscore.Metal>  (149) 
0.0000

>  <Gold.Chemscore.Hbonds>  (149) 
donor molecule, donor type, donor heavy atom, donor atom, acceptor molecule, acceptor atom, score
      L1  H     3    24       P1  2902  2.00
      P1  H  2887  2891       L1     9  1.00
      P1  H  1888  1903       L1    16  1.00
      L1  C    15    38       P1  1891  0.98
      L1  C    17    39       P1  1855  0.72

>  <Gold.PLP.Chemscore.Internal.Correction>  (149) 
0.7124

>  <Gold.PLP.Constraint>  (149) 
-0.0000

>  <Gold.Protein.RotatedTorsions>  (149) 
[  681  677  676  673 ] final  -64.06 input -179.99 | X-H torsion
[  702  698  697  694 ] final   67.31 input  179.99 | X-H torsion
[ 2577 2569 2568 2566 ] final  145.33 input   -0.13 | X-H torsion
[ 2891 2887 2886 2883 ] final -179.51 input  179.98 | X-H torsion
[ 3175 3171 3170 3167 ] final  145.07 input -179.99 | X-H torsion
[ 5278 5270 5269 5267 ] final   91.92 input    0.55 | X-H torsion
[  641  637  636  633 ] final  -13.37 input  179.99 | X-H torsion
[ 1886 1878 1877 1875 ] final  -28.52 input    1.60 | X-H torsion
[  965  957  956  954 ] final   66.59 input    0.45 | X-H torsion

>  <Gold.Protein.ActiveResidues>  (149) 
 LYS47   THR48   LEU49   GLY50   THR51   GLY52   SER53   PHE54   GLY55   ARG56  
 VAL57   MET58   LEU59   TYR69   ALA70   MET71   LYS72   ILE73   LEU74   GLU91  
 LEU95   VAL104  LYS105  MET118  VAL119  MET120  GLU121  TYR122  VAL123  PRO124 
 GLY125  GLY126  GLU127  MET128  PHE129  TYR164  ASP166  LEU167  LYS168  PRO169 
 GLU170  ASN171  LEU172  LEU173  ILE174  GLN181  VAL182  THR183  ASP184  PHE185 
 GLY186  PHE187  GLY200  THR201  ASN326  PHE327  TYR330  ARG18   ARG19   ASN20  
 ALA21   ILE22   HIS23  

>  <Gold.Protein.RotatedAtoms>  (149) 
    9.6440   19.2269    7.7393 H   0  0  0  0  0  0  0  0  0  0  0  0  # atno 641  bound_to 637 
   15.6500   13.2216    7.1707 H   0  0  0  0  0  0  0  0  0  0  0  0  # atno 681  bound_to 677 
   19.5009   11.8435   -1.6333 H   0  0  0  0  0  0  0  0  0  0  0  0  # atno 702  bound_to 698 
   -7.1016   15.7161   -0.1541 H   0  0  0  0  0  0  0  0  0  0  0  0  # atno 965  bound_to 957 
    2.0643   10.9100   10.3210 H   0  0  0  0  0  0  0  0  0  0  0  0  # atno 1886 bound_to 1878
   10.0721    1.9013   -2.3975 H   0  0  0  0  0  0  0  0  0  0  0  0  # atno 2577 bound_to 2569
    7.4087    6.6905    1.4407 H   0  0  0  0  0  0  0  0  0  0  0  0  # atno 2891 bound_to 2887
   17.9392    1.9957   -0.2561 H   0  0  0  0  0  0  0  0  0  0  0  0  # atno 3175 bound_to 3171
   13.3296   10.2327    8.7658 H   0  0  0  0  0  0  0  0  0  0  0  0  # atno 5278 bound_to 5270
   17.0743   13.9132    6.9997 LP  0  0  0  0  0  0  0  0  0  0  0  0  # atno 5914 bound_to 677 
   16.6278   12.6682    6.0420 LP  0  0  0  0  0  0  0  0  0  0  0  0  # atno 5915 bound_to 677 
   20.1654   11.6811   -0.1948 LP  0  0  0  0  0  0  0  0  0  0  0  0  # atno 5920 bound_to 698 
   21.0640   11.5480   -1.5517 LP  0  0  0  0  0  0  0  0  0  0  0  0  # atno 5921 bound_to 698 
    9.4235    3.0829   -3.2451 LP  0  0  0  0  0  0  0  0  0  0  0  0  # atno 5950 bound_to 2569
   11.0420    2.9795   -3.0547 LP  0  0  0  0  0  0  0  0  0  0  0  0  # atno 5951 bound_to 2569
    8.3840    6.3016    0.2432 LP  0  0  0  0  0  0  0  0  0  0  0  0  # atno 5982 bound_to 2887
    7.4936    5.1619    1.0015 LP  0  0  0  0  0  0  0  0  0  0  0  0  # atno 5983 bound_to 2887
   18.8616    2.5467   -1.4314 LP  0  0  0  0  0  0  0  0  0  0  0  0  # atno 6000 bound_to 3171
   19.1473    2.9618    0.1219 LP  0  0  0  0  0  0  0  0  0  0  0  0  # atno 6001 bound_to 3171
   12.8402    9.8488   10.2320 LP  0  0  0  0  0  0  0  0  0  0  0  0  # atno 6004 bound_to 5270
   14.4316    9.9520    9.8809 LP  0  0  0  0  0  0  0  0  0  0  0  0  # atno 6005 bound_to 5270
   11.2190   19.0697    7.5672 LP  0  0  0  0  0  0  0  0  0  0  0  0  # atno 6055 bound_to 637 
   10.5886   19.7825    8.8943 LP  0  0  0  0  0  0  0  0  0  0  0  0  # atno 6056 bound_to 637 
    0.6282   11.0423   10.9957 LP  0  0  0  0  0  0  0  0  0  0  0  0  # atno 6063 bound_to 1878
    1.5840   12.3514   10.7975 LP  0  0  0  0  0  0  0  0  0  0  0  0  # atno 6064 bound_to 1878
   -6.4606   15.9176   -1.5976 LP  0  0  0  0  0  0  0  0  0  0  0  0  # atno 6067 bound_to 957 
   -6.8681   17.2023   -0.6756 LP  0  0  0  0  0  0  0  0  0  0  0  0  # atno 6068 bound_to 957 

>  <STRIFE_LigEff_Score>  (149) 
3.2705105263157894

$$$$
unknown|pharmsElabsTestPreDocking|sdf|150|dock8
     RDKit          3D

 17 18  0  0  0  0  0  0  0  0999 V2000
   14.3078    9.0993    1.4234 C   0  0  0  0  0  0  0  0  0  0  0  0
   13.4556    7.9264    1.9058 C   0  0  0  0  0  0  0  0  0  0  0  0
   13.1246    7.0005    0.8207 N   0  0  0  0  0  0  0  0  0  0  0  0
   12.2428    8.2238    2.8214 C   0  0  0  0  0  0  0  0  0  0  0  0
   11.1452    7.1518    2.7577 C   0  0  0  0  0  0  0  0  0  0  0  0
    9.7676    7.5656    3.2467 C   0  0  0  0  0  0  0  0  0  0  0  0
    9.3916    8.9602    2.8137 C   0  0  0  0  0  0  0  0  0  0  0  0
    7.9349    9.2767    2.9777 C   0  0  0  0  0  0  0  0  0  0  0  0
    7.7087   10.1995    3.7926 O   0  0  0  0  0  0  0  0  0  0  0  0
    6.8343    8.6298    2.3030 N   0  0  0  0  0  0  0  0  0  0  0  0
    5.4490    8.9256    2.6155 C   0  0  0  0  0  0  0  0  0  0  0  0
    4.8459    8.9750    3.8714 C   0  0  0  0  0  0  0  0  0  0  0  0
    3.5221    9.2786    3.6503 C   0  0  0  0  0  0  0  0  0  0  0  0
    3.2907    9.4117    2.3323 N   0  0  0  0  0  0  0  0  0  0  0  0
    4.4572    9.1979    1.6927 C   0  0  0  0  0  0  0  0  0  0  0  0
   10.3780   10.0507    3.1184 C   0  0  0  0  0  0  0  0  0  0  0  0
   11.7881    9.6979    2.6492 C   0  0  0  0  0  0  0  0  0  0  0  0
  1  2  1  0
  2  3  1  0
  2  4  1  0
  4  5  1  0
  5  6  1  0
  6  7  1  0
  7  8  1  0
  8  9  2  0
  8 10  1  0
 10 11  1  0
 11 12  1  0
 12 13  2  0
 13 14  1  0
 14 15  1  0
  7 16  1  0
 16 17  1  0
 17  4  1  0
 15 11  2  0
M  CHG  1   3   1
M  END
>  <EmbedRMS>  (150) 
0.3005329260886256

>  <Gold.Version>  (150) 
2020.3.0

>  <Gold.Id.Protein>  (150) 
unknown|1q8t_protein|pdb

>  <Gold.PLP.Fitness>  (150) 
47.1010

>  <Gold.PLP.PLP>  (150) 
-38.4810

>  <Gold.PLP.part.hbond>  (150) 
-3.1577

>  <Gold.PLP.part.metal>  (150) 
0.0000

>  <Gold.PLP.part.buried>  (150) 
-4.9428

>  <Gold.PLP.part.nonpolar>  (150) 
-31.1660

>  <Gold.PLP.part.repulsive>  (150) 
0.1143

>  <Gold.PLP.ligand.clash>  (150) 
0.0000

>  <Gold.PLP.ligand.torsion>  (150) 
1.8104

>  <Gold.PLP.Chemscore.Hbond>  (150) 
3.8733

>  <Gold.PLP.Chemscore.CHOScore>  (150) 
0.0000

>  <Gold.PLP.Chemscore.Metal>  (150) 
0.0000

>  <Gold.Chemscore.Hbonds>  (150) 
donor molecule, donor type, donor heavy atom, donor atom, acceptor molecule, acceptor atom, score
      L1  H     3    22       P1  2902  1.95
      L1  H     3    23       P1  2691  0.48
      L1  H    10    31       P1  2887  0.45
      L1  H    14    34       P1  1855  0.99

>  <Gold.PLP.Chemscore.Internal.Correction>  (150) 
0.6212

>  <Gold.PLP.Constraint>  (150) 
-0.0000

>  <Gold.Protein.RotatedTorsions>  (150) 
[  681  677  676  673 ] final  -59.04 input -179.99 | X-H torsion
[  702  698  697  694 ] final   28.43 input  179.99 | X-H torsion
[ 2577 2569 2568 2566 ] final  158.38 input   -0.13 | X-H torsion
[ 2891 2887 2886 2883 ] final   53.47 input  179.98 | X-H torsion
[ 3175 3171 3170 3167 ] final   65.34 input -179.99 | X-H torsion
[ 5278 5270 5269 5267 ] final  -95.66 input    0.55 | X-H torsion
[  641  637  636  633 ] final  109.98 input  179.99 | X-H torsion
[ 1886 1878 1877 1875 ] final -154.63 input    1.60 | X-H torsion
[  965  957  956  954 ] final  176.33 input    0.45 | X-H torsion

>  <Gold.Protein.ActiveResidues>  (150) 
 LYS47   THR48   LEU49   GLY50   THR51   GLY52   SER53   PHE54   GLY55   ARG56  
 VAL57   MET58   LEU59   TYR69   ALA70   MET71   LYS72   ILE73   LEU74   GLU91  
 LEU95   VAL104  LYS105  MET118  VAL119  MET120  GLU121  TYR122  VAL123  PRO124 
 GLY125  GLY126  GLU127  MET128  PHE129  TYR164  ASP166  LEU167  LYS168  PRO169 
 GLU170  ASN171  LEU172  LEU173  ILE174  GLN181  VAL182  THR183  ASP184  PHE185 
 GLY186  PHE187  GLY200  THR201  ASN326  PHE327  TYR330  ARG18   ARG19   ASN20  
 ALA21   ILE22   HIS23  

>  <Gold.Protein.RotatedAtoms>  (150) 
   10.6334   19.7407    8.8536 H   0  0  0  0  0  0  0  0  0  0  0  0  # atno 641  bound_to 637 
   15.6316   13.1620    7.1231 H   0  0  0  0  0  0  0  0  0  0  0  0  # atno 681  bound_to 677 
   19.3535   11.8585   -1.0554 H   0  0  0  0  0  0  0  0  0  0  0  0  # atno 702  bound_to 698 
   -6.9156   17.1184   -0.5334 H   0  0  0  0  0  0  0  0  0  0  0  0  # atno 965  bound_to 957 
    0.6360   11.1521   10.9920 H   0  0  0  0  0  0  0  0  0  0  0  0  # atno 1886 bound_to 1878
   10.2751    1.9074   -2.3869 H   0  0  0  0  0  0  0  0  0  0  0  0  # atno 2577 bound_to 2569
    8.3423    6.1859    0.2384 H   0  0  0  0  0  0  0  0  0  0  0  0  # atno 2891 bound_to 2887
   18.3640    2.1726   -1.3080 H   0  0  0  0  0  0  0  0  0  0  0  0  # atno 3175 bound_to 3171
   13.8442    9.8277   10.4297 H   0  0  0  0  0  0  0  0  0  0  0  0  # atno 5278 bound_to 5270
   17.0207   13.9380    7.0575 LP  0  0  0  0  0  0  0  0  0  0  0  0  # atno 5914 bound_to 677 
   16.7007   12.7061    6.0344 LP  0  0  0  0  0  0  0  0  0  0  0  0  # atno 5915 bound_to 677 
   20.7610   11.5788   -0.3641 LP  0  0  0  0  0  0  0  0  0  0  0  0  # atno 5920 bound_to 698 
   20.6236   11.6345   -1.9903 LP  0  0  0  0  0  0  0  0  0  0  0  0  # atno 5921 bound_to 698 
    9.3156    2.9272   -3.1450 LP  0  0  0  0  0  0  0  0  0  0  0  0  # atno 5950 bound_to 2569
   10.9360    3.1286   -3.1661 LP  0  0  0  0  0  0  0  0  0  0  0  0  # atno 5951 bound_to 2569
    7.4263    5.1983    1.0882 LP  0  0  0  0  0  0  0  0  0  0  0  0  # atno 5982 bound_to 2887
    7.4687    6.7962    1.4220 LP  0  0  0  0  0  0  0  0  0  0  0  0  # atno 5983 bound_to 2887
   19.3875    3.0618   -0.4729 LP  0  0  0  0  0  0  0  0  0  0  0  0  # atno 6000 bound_to 3171
   18.1743    2.2605    0.2705 LP  0  0  0  0  0  0  0  0  0  0  0  0  # atno 6001 bound_to 3171
   14.1299   10.1895    8.9052 LP  0  0  0  0  0  0  0  0  0  0  0  0  # atno 6004 bound_to 5270
   12.6005   10.0374    9.4570 LP  0  0  0  0  0  0  0  0  0  0  0  0  # atno 6005 bound_to 5270
    9.5813   19.2595    7.7598 LP  0  0  0  0  0  0  0  0  0  0  0  0  # atno 6055 bound_to 637 
   11.1844   19.0517    7.5282 LP  0  0  0  0  0  0  0  0  0  0  0  0  # atno 6056 bound_to 637 
    1.6739   12.3361   10.7553 LP  0  0  0  0  0  0  0  0  0  0  0  0  # atno 6063 bound_to 1878
    2.0420   10.8027   10.3315 LP  0  0  0  0  0  0  0  0  0  0  0  0  # atno 6064 bound_to 1878
   -7.0853   15.5641   -0.2325 LP  0  0  0  0  0  0  0  0  0  0  0  0  # atno 6067 bound_to 957 
   -6.4393   16.0788   -1.6412 LP  0  0  0  0  0  0  0  0  0  0  0  0  # atno 6068 bound_to 957 

>  <STRIFE_LigEff_Score>  (150) 
2.7706470588235295

$$$$
unknown|pharmsElabsTestPreDocking|sdf|151|dock3
     RDKit          3D

 18 19  0  0  0  0  0  0  0  0999 V2000
   14.8133    7.6195    3.4456 C   0  0  0  0  0  0  0  0  0  0  0  0
   13.9014    8.1563    2.3320 C   0  0  0  0  0  0  0  0  0  0  0  0
   14.0411    7.3335    1.1252 N   0  0  0  0  0  0  0  0  0  0  0  0
   12.3998    8.3940    2.7192 C   0  0  0  0  0  0  0  0  0  0  0  0
   11.3949    7.3677    2.1638 C   0  0  0  0  0  0  0  0  0  0  0  0
    9.9908    7.8990    1.9545 C   0  0  0  0  0  0  0  0  0  0  0  0
    9.5448    8.8298    3.0769 C   0  0  0  0  0  0  0  0  0  0  0  0
    8.1081    9.2219    2.8509 C   0  0  0  0  0  0  0  0  0  0  0  0
    7.7959    9.8144    1.7832 O   0  0  0  0  0  0  0  0  0  0  0  0
    7.1309    8.9418    3.8646 N   0  0  0  0  0  0  0  0  0  0  0  0
    5.7180    9.2249    3.8133 C   0  0  0  0  0  0  0  0  0  0  0  0
    5.0693    9.6027    4.9988 C   0  0  0  0  0  0  0  0  0  0  0  0
    3.7061    9.8922    4.9971 C   0  0  0  0  0  0  0  0  0  0  0  0
    2.9907    9.8031    3.8050 C   0  0  0  0  0  0  0  0  0  0  0  0
    3.6209    9.4374    2.6615 N   0  0  0  0  0  0  0  0  0  0  0  0
    4.9460    9.1496    2.6325 C   0  0  0  0  0  0  0  0  0  0  0  0
   10.4207   10.0870    3.1230 C   0  0  0  0  0  0  0  0  0  0  0  0
   11.9371    9.8331    3.0284 C   0  0  0  0  0  0  0  0  0  0  0  0
  1  2  1  0
  2  3  1  0
  2  4  1  0
  4  5  1  0
  5  6  1  0
  6  7  1  0
  7  8  1  0
  8  9  2  0
  8 10  1  0
 10 11  1  0
 11 12  2  0
 12 13  1  0
 13 14  2  0
 14 15  1  0
 15 16  2  0
  7 17  1  0
 17 18  1  0
 18  4  1  0
 16 11  1  0
M  CHG  1   3   1
M  END
>  <EmbedRMS>  (151) 
0.16496192233382964

>  <Gold.Version>  (151) 
2020.3.0

>  <Gold.Id.Protein>  (151) 
unknown|1q8t_protein|pdb

>  <Gold.PLP.Fitness>  (151) 
52.3426

>  <Gold.PLP.PLP>  (151) 
-42.8573

>  <Gold.PLP.part.hbond>  (151) 
-2.0000

>  <Gold.PLP.part.metal>  (151) 
0.0000

>  <Gold.PLP.part.buried>  (151) 
-2.8919

>  <Gold.PLP.part.nonpolar>  (151) 
-37.9924

>  <Gold.PLP.part.repulsive>  (151) 
0.1247

>  <Gold.PLP.ligand.clash>  (151) 
0.0000

>  <Gold.PLP.ligand.torsion>  (151) 
1.4848

>  <Gold.PLP.Chemscore.Hbond>  (151) 
3.0000

>  <Gold.PLP.Chemscore.CHOScore>  (151) 
0.9632

>  <Gold.PLP.Chemscore.Metal>  (151) 
0.0000

>  <Gold.Chemscore.Hbonds>  (151) 
donor molecule, donor type, donor heavy atom, donor atom, acceptor molecule, acceptor atom, score
      L1  H     3    23       P1  2691  1.00
      L1  H     3    25       P1  2902  2.00
      L1  C    14    35       P1  1855  0.96

>  <Gold.PLP.Chemscore.Internal.Correction>  (151) 
0.5654

>  <Gold.PLP.Constraint>  (151) 
-0.0000

>  <Gold.Protein.RotatedTorsions>  (151) 
[  681  677  676  673 ] final -155.59 input -179.99 | X-H torsion
[  702  698  697  694 ] final  116.38 input  179.99 | X-H torsion
[ 2577 2569 2568 2566 ] final  -94.54 input   -0.13 | X-H torsion
[ 2891 2887 2886 2883 ] final    1.91 input  179.98 | X-H torsion
[ 3175 3171 3170 3167 ] final   44.81 input -179.99 | X-H torsion
[ 5278 5270 5269 5267 ] final    6.30 input    0.55 | X-H torsion
[  641  637  636  633 ] final   86.95 input  179.99 | X-H torsion
[ 1886 1878 1877 1875 ] final  -58.07 input    1.60 | X-H torsion
[  965  957  956  954 ] final -173.99 input    0.45 | X-H torsion

>  <Gold.Protein.ActiveResidues>  (151) 
 LYS47   THR48   LEU49   GLY50   THR51   GLY52   SER53   PHE54   GLY55   ARG56  
 VAL57   MET58   LEU59   TYR69   ALA70   MET71   LYS72   ILE73   LEU74   GLU91  
 LEU95   VAL104  LYS105  MET118  VAL119  MET120  GLU121  TYR122  VAL123  PRO124 
 GLY125  GLY126  GLU127  MET128  PHE129  TYR164  ASP166  LEU167  LYS168  PRO169 
 GLU170  ASN171  LEU172  LEU173  ILE174  GLN181  VAL182  THR183  ASP184  PHE185 
 GLY186  PHE187  GLY200  THR201  ASN326  PHE327  TYR330  ARG18   ARG19   ASN20  
 ALA21   ILE22   HIS23  

>  <Gold.Protein.RotatedAtoms>  (151) 
   10.2765   19.7539    8.8405 H   0  0  0  0  0  0  0  0  0  0  0  0  # atno 641  bound_to 637 
   16.6983   13.9580    7.2514 H   0  0  0  0  0  0  0  0  0  0  0  0  # atno 681  bound_to 677 
   20.1260   11.7402   -2.0242 H   0  0  0  0  0  0  0  0  0  0  0  0  # atno 702  bound_to 698 
   -6.8545   17.1538   -0.6670 H   0  0  0  0  0  0  0  0  0  0  0  0  # atno 965  bound_to 957 
    1.7235   10.6232   10.4223 H   0  0  0  0  0  0  0  0  0  0  0  0  # atno 1886 bound_to 1878
   10.9988    2.9546   -3.0610 H   0  0  0  0  0  0  0  0  0  0  0  0  # atno 2577 bound_to 2569
    8.0993    5.4532    0.3443 H   0  0  0  0  0  0  0  0  0  0  0  0  # atno 2891 bound_to 2887
   18.6152    2.3465   -1.4007 H   0  0  0  0  0  0  0  0  0  0  0  0  # atno 3175 bound_to 3171
   12.6442    9.9849    9.7414 H   0  0  0  0  0  0  0  0  0  0  0  0  # atno 5278 bound_to 5270
   17.0064   12.9342    6.0712 LP  0  0  0  0  0  0  0  0  0  0  0  0  # atno 5914 bound_to 677 
   15.5924   12.8721    6.8856 LP  0  0  0  0  0  0  0  0  0  0  0  0  # atno 5915 bound_to 677 
   19.4879   11.8083   -0.5662 LP  0  0  0  0  0  0  0  0  0  0  0  0  # atno 5920 bound_to 698 
   21.0840   11.5293   -0.7692 LP  0  0  0  0  0  0  0  0  0  0  0  0  # atno 5921 bound_to 698 
   10.0674    1.8719   -2.3570 LP  0  0  0  0  0  0  0  0  0  0  0  0  # atno 5950 bound_to 2569
    9.4222    3.0815   -3.2442 LP  0  0  0  0  0  0  0  0  0  0  0  0  # atno 5951 bound_to 2569
    7.1380    5.7991    1.5661 LP  0  0  0  0  0  0  0  0  0  0  0  0  # atno 5982 bound_to 2887
    8.0128    6.9667    0.8325 LP  0  0  0  0  0  0  0  0  0  0  0  0  # atno 5983 bound_to 2887
   19.3063    3.0443   -0.1473 LP  0  0  0  0  0  0  0  0  0  0  0  0  # atno 6000 bound_to 3171
   17.9911    2.0950    0.0425 LP  0  0  0  0  0  0  0  0  0  0  0  0  # atno 6001 bound_to 3171
   14.1179    9.8386   10.3274 LP  0  0  0  0  0  0  0  0  0  0  0  0  # atno 6004 bound_to 5270
   13.8751   10.2229    8.7590 LP  0  0  0  0  0  0  0  0  0  0  0  0  # atno 6005 bound_to 5270
    9.7744   19.1041    7.4765 LP  0  0  0  0  0  0  0  0  0  0  0  0  # atno 6055 bound_to 637 
   11.3672   19.1931    7.8252 LP  0  0  0  0  0  0  0  0  0  0  0  0  # atno 6056 bound_to 637 
    0.5854   11.5111   11.0945 LP  0  0  0  0  0  0  0  0  0  0  0  0  # atno 6063 bound_to 1878
    1.9856   12.1845   10.5920 LP  0  0  0  0  0  0  0  0  0  0  0  0  # atno 6064 bound_to 1878
   -7.1298   15.6795   -0.1324 LP  0  0  0  0  0  0  0  0  0  0  0  0  # atno 6067 bound_to 957 
   -6.4592   15.9262   -1.6007 LP  0  0  0  0  0  0  0  0  0  0  0  0  # atno 6068 bound_to 957 

>  <STRIFE_LigEff_Score>  (151) 
2.907922222222222

$$$$
unknown|pharmsElabsTestPreDocking|sdf|152|dock2
     RDKit          3D

 18 19  0  0  0  0  0  0  0  0999 V2000
   13.7585    9.7620    1.1384 C   0  0  0  0  0  0  0  0  0  0  0  0
   13.4650    8.4962    1.9435 C   0  0  0  0  0  0  0  0  0  0  0  0
   13.5455    7.3013    1.0924 N   0  0  0  0  0  0  0  0  0  0  0  0
   12.2182    8.4842    2.8494 C   0  0  0  0  0  0  0  0  0  0  0  0
   11.2194    7.2991    2.7657 C   0  0  0  0  0  0  0  0  0  0  0  0
    9.7816    7.6742    2.4390 C   0  0  0  0  0  0  0  0  0  0  0  0
    9.3193    8.8793    3.2548 C   0  0  0  0  0  0  0  0  0  0  0  0
    7.8565    9.1380    3.0233 C   0  0  0  0  0  0  0  0  0  0  0  0
    7.4484    9.4389    1.8683 O   0  0  0  0  0  0  0  0  0  0  0  0
    6.9489    9.0629    4.1304 N   0  0  0  0  0  0  0  0  0  0  0  0
    5.5340    9.2639    4.0481 C   0  0  0  0  0  0  0  0  0  0  0  0
    4.6269    9.4859    5.0715 C   0  0  0  0  0  0  0  0  0  0  0  0
    3.4002    9.6127    4.5319 N   0  0  0  0  0  0  0  0  0  0  0  0
    3.5204    9.4872    3.2186 N   0  0  0  0  0  0  0  0  0  0  0  0
    2.3997    9.5390    2.2933 C   0  0  0  0  0  0  0  0  0  0  0  0
    4.8026    9.2628    2.8842 C   0  0  0  0  0  0  0  0  0  0  0  0
   10.1402   10.0994    2.8528 C   0  0  0  0  0  0  0  0  0  0  0  0
   11.6303    9.9026    3.1228 C   0  0  0  0  0  0  0  0  0  0  0  0
  1  2  1  0
  2  3  1  0
  2  4  1  0
  4  5  1  0
  5  6  1  0
  6  7  1  0
  7  8  1  0
  8  9  2  0
  8 10  1  0
 10 11  1  0
 11 12  1  0
 12 13  2  0
 13 14  1  0
 14 15  1  0
 14 16  1  0
  7 17  1  0
 17 18  1  0
 18  4  1  0
 16 11  2  0
M  CHG  1   3   1
M  END
>  <EmbedRMS>  (152) 
0.202216898800577

>  <Gold.Version>  (152) 
2020.3.0

>  <Gold.Id.Protein>  (152) 
unknown|1q8t_protein|pdb

>  <Gold.PLP.Fitness>  (152) 
47.1509

>  <Gold.PLP.PLP>  (152) 
-38.8233

>  <Gold.PLP.part.hbond>  (152) 
-2.8210

>  <Gold.PLP.part.metal>  (152) 
0.0000

>  <Gold.PLP.part.buried>  (152) 
1.1938

>  <Gold.PLP.part.nonpolar>  (152) 
-37.7993

>  <Gold.PLP.part.repulsive>  (152) 
0.1494

>  <Gold.PLP.ligand.clash>  (152) 
0.0000

>  <Gold.PLP.ligand.torsion>  (152) 
1.3137

>  <Gold.PLP.Chemscore.Hbond>  (152) 
3.5163

>  <Gold.PLP.Chemscore.CHOScore>  (152) 
0.0000

>  <Gold.PLP.Chemscore.Metal>  (152) 
0.0000

>  <Gold.Chemscore.Hbonds>  (152) 
donor molecule, donor type, donor heavy atom, donor atom, acceptor molecule, acceptor atom, score
      L1  H     3    24       P1  2902  2.00
      L1  H     3    25       P1  2691  0.72
      P1  H  1888  1903       L1    13  0.80

>  <Gold.PLP.Chemscore.Internal.Correction>  (152) 
0.4062

>  <Gold.PLP.Constraint>  (152) 
-0.0000

>  <Gold.Protein.RotatedTorsions>  (152) 
[  681  677  676  673 ] final   66.44 input -179.99 | X-H torsion
[  702  698  697  694 ] final   -0.66 input  179.99 | X-H torsion
[ 2577 2569 2568 2566 ] final   84.30 input   -0.13 | X-H torsion
[ 2891 2887 2886 2883 ] final   94.82 input  179.98 | X-H torsion
[ 3175 3171 3170 3167 ] final  -66.53 input -179.99 | X-H torsion
[ 5278 5270 5269 5267 ] final  101.25 input    0.55 | X-H torsion
[  641  637  636  633 ] final -103.54 input  179.99 | X-H torsion
[ 1886 1878 1877 1875 ] final -158.26 input    1.60 | X-H torsion
[  965  957  956  954 ] final   33.28 input    0.45 | X-H torsion

>  <Gold.Protein.ActiveResidues>  (152) 
 LYS47   THR48   LEU49   GLY50   THR51   GLY52   SER53   PHE54   GLY55   ARG56  
 VAL57   MET58   LEU59   TYR69   ALA70   MET71   LYS72   ILE73   LEU74   GLU91  
 LEU95   VAL104  LYS105  MET118  VAL119  MET120  GLU121  TYR122  VAL123  PRO124 
 GLY125  GLY126  GLU127  MET128  PHE129  TYR164  ASP166  LEU167  LYS168  PRO169 
 GLU170  ASN171  LEU172  LEU173  ILE174  GLN181  VAL182  THR183  ASP184  PHE185 
 GLY186  PHE187  GLY200  THR201  ASN326  PHE327  TYR330  ARG18   ARG19   ASN20  
 ALA21   ILE22   HIS23  

>  <Gold.Protein.RotatedAtoms>  (152) 
   10.8167   18.9573    7.3395 H   0  0  0  0  0  0  0  0  0  0  0  0  # atno 641  bound_to 637 
   16.7544   12.7886    6.0572 H   0  0  0  0  0  0  0  0  0  0  0  0  # atno 681  bound_to 677 
   19.5010   11.8241   -0.6316 H   0  0  0  0  0  0  0  0  0  0  0  0  # atno 702  bound_to 698 
   -6.9303   15.4201   -0.5367 H   0  0  0  0  0  0  0  0  0  0  0  0  # atno 965  bound_to 957 
    0.6248   11.2059   11.0061 H   0  0  0  0  0  0  0  0  0  0  0  0  # atno 1886 bound_to 1878
    9.3502    2.3294   -2.7476 H   0  0  0  0  0  0  0  0  0  0  0  0  # atno 2577 bound_to 2569
    8.2094    6.7347    0.5238 H   0  0  0  0  0  0  0  0  0  0  0  0  # atno 2891 bound_to 2887
   19.3262    3.0184   -0.2911 H   0  0  0  0  0  0  0  0  0  0  0  0  # atno 3175 bound_to 3171
   13.4739   10.2391    8.7458 H   0  0  0  0  0  0  0  0  0  0  0  0  # atno 5278 bound_to 5270
   15.5825   13.0781    7.0959 LP  0  0  0  0  0  0  0  0  0  0  0  0  # atno 5914 bound_to 677 
   16.9572   13.9591    7.1178 LP  0  0  0  0  0  0  0  0  0  0  0  0  # atno 5915 bound_to 677 
   21.0641   11.5320   -0.7248 LP  0  0  0  0  0  0  0  0  0  0  0  0  # atno 5920 bound_to 698 
   20.1652   11.7174   -2.0755 LP  0  0  0  0  0  0  0  0  0  0  0  0  # atno 5921 bound_to 698 
   10.3053    3.4164   -3.4121 LP  0  0  0  0  0  0  0  0  0  0  0  0  # atno 5950 bound_to 2569
   10.9202    2.1953   -2.5191 LP  0  0  0  0  0  0  0  0  0  0  0  0  # atno 5951 bound_to 2569
    7.8594    5.1822    0.5827 LP  0  0  0  0  0  0  0  0  0  0  0  0  # atno 5982 bound_to 2887
    7.1754    6.2348    1.6271 LP  0  0  0  0  0  0  0  0  0  0  0  0  # atno 5983 bound_to 2887
   18.0596    2.1598    0.1494 LP  0  0  0  0  0  0  0  0  0  0  0  0  # atno 6000 bound_to 3171
   18.4895    2.2724   -1.4220 LP  0  0  0  0  0  0  0  0  0  0  0  0  # atno 6001 bound_to 3171
   12.7451    9.8767   10.1148 LP  0  0  0  0  0  0  0  0  0  0  0  0  # atno 6004 bound_to 5270
   14.3748    9.9173   10.0192 LP  0  0  0  0  0  0  0  0  0  0  0  0  # atno 6005 bound_to 5270
   11.0375   19.6793    8.7412 LP  0  0  0  0  0  0  0  0  0  0  0  0  # atno 6055 bound_to 637 
    9.5351   19.4569    8.1413 LP  0  0  0  0  0  0  0  0  0  0  0  0  # atno 6056 bound_to 637 
    1.7261   12.3222   10.7299 LP  0  0  0  0  0  0  0  0  0  0  0  0  # atno 6063 bound_to 1878
    2.0015   10.7600   10.3420 LP  0  0  0  0  0  0  0  0  0  0  0  0  # atno 6064 bound_to 1878
   -6.4360   16.4557   -1.6405 LP  0  0  0  0  0  0  0  0  0  0  0  0  # atno 6067 bound_to 957 
   -7.0731   16.9759   -0.2298 LP  0  0  0  0  0  0  0  0  0  0  0  0  # atno 6068 bound_to 957 

>  <STRIFE_LigEff_Score>  (152) 
2.6194944444444443

$$$$
unknown|pharmsElabsTestPreDocking|sdf|153|dock7
     RDKit          3D

 19 20  0  0  0  0  0  0  0  0999 V2000
   13.8105    6.6647    3.5175 C   0  0  0  0  0  0  0  0  0  0  0  0
   13.7294    7.7210    2.3976 C   0  0  0  0  0  0  0  0  0  0  0  0
   14.0471    7.0851    1.1124 N   0  0  0  0  0  0  0  0  0  0  0  0
   12.3220    8.3880    2.3915 C   0  0  0  0  0  0  0  0  0  0  0  0
   11.2444    7.3404    2.0433 C   0  0  0  0  0  0  0  0  0  0  0  0
    9.8896    8.0150    1.8777 C   0  0  0  0  0  0  0  0  0  0  0  0
    9.4884    8.7210    3.1763 C   0  0  0  0  0  0  0  0  0  0  0  0
    8.1438    9.3704    3.0217 C   0  0  0  0  0  0  0  0  0  0  0  0
    7.8998   10.4835    3.5669 O   0  0  0  0  0  0  0  0  0  0  0  0
    7.1398    8.7088    2.2517 N   0  0  0  0  0  0  0  0  0  0  0  0
    5.8330    9.3081    2.0203 C   0  0  0  0  0  0  0  0  0  0  0  0
    5.0265    9.2582    3.2790 C   0  0  0  0  0  0  0  0  0  0  0  0
    5.4236    9.7431    4.5066 C   0  0  0  0  0  0  0  0  0  0  0  0
    4.3204    9.5603    5.3188 C   0  0  0  0  0  0  0  0  0  0  0  0
    3.3136    9.0162    4.6054 N   0  0  0  0  0  0  0  0  0  0  0  0
    3.7465    8.8475    3.3669 N   0  0  0  0  0  0  0  0  0  0  0  0
    2.9296    8.2992    2.2903 C   0  0  0  0  0  0  0  0  0  0  0  0
   10.5523    9.7411    3.6158 C   0  0  0  0  0  0  0  0  0  0  0  0
   11.9389    9.0836    3.7215 C   0  0  0  0  0  0  0  0  0  0  0  0
  1  2  1  0
  2  3  1  0
  2  4  1  0
  4  5  1  0
  5  6  1  0
  6  7  1  0
  7  8  1  0
  8  9  2  0
  8 10  1  0
 10 11  1  0
 11 12  1  0
 12 13  2  0
 13 14  1  0
 14 15  2  0
 15 16  1  0
 16 17  1  0
  7 18  1  0
 18 19  1  0
 19  4  1  0
 16 12  1  0
M  CHG  1   3   1
M  END
>  <EmbedRMS>  (153) 
0.027804703519808214

>  <Gold.Version>  (153) 
2020.3.0

>  <Gold.Id.Protein>  (153) 
unknown|1q8t_protein|pdb

>  <Gold.PLP.Fitness>  (153) 
58.6937

>  <Gold.PLP.PLP>  (153) 
-45.4344

>  <Gold.PLP.part.hbond>  (153) 
-4.0000

>  <Gold.PLP.part.metal>  (153) 
0.0000

>  <Gold.PLP.part.buried>  (153) 
-3.0755

>  <Gold.PLP.part.nonpolar>  (153) 
-39.3922

>  <Gold.PLP.part.repulsive>  (153) 
0.1943

>  <Gold.PLP.ligand.clash>  (153) 
0.0000

>  <Gold.PLP.ligand.torsion>  (153) 
0.7612

>  <Gold.PLP.Chemscore.Hbond>  (153) 
4.9051

>  <Gold.PLP.Chemscore.CHOScore>  (153) 
0.0000

>  <Gold.PLP.Chemscore.Metal>  (153) 
0.0000

>  <Gold.Chemscore.Hbonds>  (153) 
donor molecule, donor type, donor heavy atom, donor atom, acceptor molecule, acceptor atom, score
      L1  H     3    25       P1  2902  2.00
      L1  H     3    26       P1  2691  1.00
      L1  H    10    33       P1  2887  1.00
      P1  H  1888  1903       L1    15  0.91

>  <Gold.PLP.Chemscore.Internal.Correction>  (153) 
0.0665

>  <Gold.PLP.Constraint>  (153) 
-0.0000

>  <Gold.Protein.RotatedTorsions>  (153) 
[  681  677  676  673 ] final   78.40 input -179.99 | X-H torsion
[  702  698  697  694 ] final -130.65 input  179.99 | X-H torsion
[ 2577 2569 2568 2566 ] final   65.61 input   -0.13 | X-H torsion
[ 2891 2887 2886 2883 ] final    2.90 input  179.98 | X-H torsion
[ 3175 3171 3170 3167 ] final  155.86 input -179.99 | X-H torsion
[ 5278 5270 5269 5267 ] final  154.88 input    0.55 | X-H torsion
[  641  637  636  633 ] final  157.79 input  179.99 | X-H torsion
[ 1886 1878 1877 1875 ] final   -7.81 input    1.60 | X-H torsion
[  965  957  956  954 ] final  -93.24 input    0.45 | X-H torsion

>  <Gold.Protein.ActiveResidues>  (153) 
 LYS47   THR48   LEU49   GLY50   THR51   GLY52   SER53   PHE54   GLY55   ARG56  
 VAL57   MET58   LEU59   TYR69   ALA70   MET71   LYS72   ILE73   LEU74   GLU91  
 LEU95   VAL104  LYS105  MET118  VAL119  MET120  GLU121  TYR122  VAL123  PRO124 
 GLY125  GLY126  GLU127  MET128  PHE129  TYR164  ASP166  LEU167  LYS168  PRO169 
 GLU170  ASN171  LEU172  LEU173  ILE174  GLN181  VAL182  THR183  ASP184  PHE185 
 GLY186  PHE187  GLY200  THR201  ASN326  PHE327  TYR330  ARG18   ARG19   ASN20  
 ALA21   ILE22   HIS23  

>  <Gold.Protein.RotatedAtoms>  (153) 
   11.2306   19.5272    8.5009 H   0  0  0  0  0  0  0  0  0  0  0  0  # atno 641  bound_to 637 
   16.9037   12.8993    6.0745 H   0  0  0  0  0  0  0  0  0  0  0  0  # atno 681  bound_to 677 
   21.0810   11.5491   -0.8907 H   0  0  0  0  0  0  0  0  0  0  0  0  # atno 702  bound_to 698 
   -6.4504   16.5446   -1.5675 H   0  0  0  0  0  0  0  0  0  0  0  0  # atno 965  bound_to 957 
    2.2088   11.1972   10.3063 H   0  0  0  0  0  0  0  0  0  0  0  0  # atno 1886 bound_to 1878
    9.2858    2.5601   -2.9126 H   0  0  0  0  0  0  0  0  0  0  0  0  # atno 2577 bound_to 2569
    8.1076    5.4644    0.3374 H   0  0  0  0  0  0  0  0  0  0  0  0  # atno 2891 bound_to 2887
   17.9810    2.0469   -0.1011 H   0  0  0  0  0  0  0  0  0  0  0  0  # atno 3175 bound_to 3171
   14.2168   10.1702    9.0569 H   0  0  0  0  0  0  0  0  0  0  0  0  # atno 5278 bound_to 5270
   15.5796   12.9377    6.9585 LP  0  0  0  0  0  0  0  0  0  0  0  0  # atno 5914 bound_to 677 
   16.8029   13.9830    7.2370 LP  0  0  0  0  0  0  0  0  0  0  0  0  # atno 5915 bound_to 677 
   20.0055   11.7452   -2.0492 LP  0  0  0  0  0  0  0  0  0  0  0  0  # atno 5920 bound_to 698 
   19.5619   11.7935   -0.4784 LP  0  0  0  0  0  0  0  0  0  0  0  0  # atno 5921 bound_to 698 
   10.5973    3.3521   -3.3460 LP  0  0  0  0  0  0  0  0  0  0  0  0  # atno 5950 bound_to 2569
   10.6960    2.0166   -2.4115 LP  0  0  0  0  0  0  0  0  0  0  0  0  # atno 5951 bound_to 2569
    7.1393    5.7836    1.5609 LP  0  0  0  0  0  0  0  0  0  0  0  0  # atno 5982 bound_to 2887
    8.0028    6.9703    0.8450 LP  0  0  0  0  0  0  0  0  0  0  0  0  # atno 5983 bound_to 2887
   18.7218    2.4401   -1.4548 LP  0  0  0  0  0  0  0  0  0  0  0  0  # atno 6000 bound_to 3171
   19.2430    3.0144   -0.0177 LP  0  0  0  0  0  0  0  0  0  0  0  0  # atno 6001 bound_to 3171
   12.6446   10.0780    9.2946 LP  0  0  0  0  0  0  0  0  0  0  0  0  # atno 6004 bound_to 5270
   13.6937    9.7886   10.5121 LP  0  0  0  0  0  0  0  0  0  0  0  0  # atno 6005 bound_to 5270
    9.6414   19.6032    8.4395 LP  0  0  0  0  0  0  0  0  0  0  0  0  # atno 6055 bound_to 637 
   10.4954   18.9327    7.2198 LP  0  0  0  0  0  0  0  0  0  0  0  0  # atno 6056 bound_to 637 
    0.7868   10.7667   10.8787 LP  0  0  0  0  0  0  0  0  0  0  0  0  # atno 6063 bound_to 1878
    1.2733   12.3247   10.9299 LP  0  0  0  0  0  0  0  0  0  0  0  0  # atno 6064 bound_to 1878
   -7.1053   16.9003   -0.1605 LP  0  0  0  0  0  0  0  0  0  0  0  0  # atno 6067 bound_to 957 
   -6.9092   15.3469   -0.6241 LP  0  0  0  0  0  0  0  0  0  0  0  0  # atno 6068 bound_to 957 

>  <STRIFE_LigEff_Score>  (153) 
3.089142105263158

$$$$
unknown|pharmsElabsTestPreDocking|sdf|154|dock8
     RDKit          3D

 18 18  0  0  0  0  0  0  0  0999 V2000
    5.5655   10.4003    5.9044 C   0  0  0  0  0  0  0  0  0  0  0  0
    4.9532    9.9825    4.6023 C   0  0  0  0  0  0  0  0  0  0  0  0
    5.6707    9.4669    3.5873 C   0  0  0  0  0  0  0  0  0  0  0  0
    7.0812    9.2423    3.7640 N   0  0  0  0  0  0  0  0  0  0  0  0
    8.0802    9.4608    2.7618 C   0  0  0  0  0  0  0  0  0  0  0  0
    7.8094   10.1004    1.7067 O   0  0  0  0  0  0  0  0  0  0  0  0
    9.4722    8.9491    3.0133 C   0  0  0  0  0  0  0  0  0  0  0  0
    9.7578    7.6948    2.1677 C   0  0  0  0  0  0  0  0  0  0  0  0
   11.2009    7.2075    2.3863 C   0  0  0  0  0  0  0  0  0  0  0  0
   12.1540    8.3522    1.9972 C   0  0  0  0  0  0  0  0  0  0  0  0
   13.6400    8.0090    1.6847 C   0  0  0  0  0  0  0  0  0  0  0  0
   14.5743    9.1812    1.4377 C   0  0  0  0  0  0  0  0  0  0  0  0
   13.8953    6.8290    0.8683 N   0  0  0  0  0  0  0  0  0  0  0  0
   11.9441    9.5453    2.9461 C   0  0  0  0  0  0  0  0  0  0  0  0
   10.5080   10.0690    2.7982 C   0  0  0  0  0  0  0  0  0  0  0  0
    4.9712    9.0211    2.3501 C   0  0  0  0  0  0  0  0  0  0  0  0
    3.5912    8.4300    2.4067 C   0  0  0  0  0  0  0  0  0  0  0  0
    5.5301    9.2015    1.1931 N   0  0  0  0  0  0  0  0  0  0  0  0
  1  2  1  0
  2  3  2  0
  3  4  1  0
  4  5  1  0
  5  6  2  0
  5  7  1  0
  7  8  1  0
  8  9  1  0
  9 10  1  0
 10 11  1  0
 11 12  1  0
 11 13  1  0
 10 14  1  0
 14 15  1  0
  3 16  1  0
 16 17  1  0
 16 18  2  0
 15  7  1  0
M  CHG  1  13   1
M  END
>  <EmbedRMS>  (154) 
0.18298173008130458

>  <Gold.Version>  (154) 
2020.3.0

>  <Gold.Id.Protein>  (154) 
unknown|1q8t_protein|pdb

>  <Gold.PLP.Fitness>  (154) 
44.1951

>  <Gold.PLP.PLP>  (154) 
-36.8803

>  <Gold.PLP.part.hbond>  (154) 
-1.8269

>  <Gold.PLP.part.metal>  (154) 
0.0000

>  <Gold.PLP.part.buried>  (154) 
-1.1272

>  <Gold.PLP.part.nonpolar>  (154) 
-33.9198

>  <Gold.PLP.part.repulsive>  (154) 
0.0869

>  <Gold.PLP.ligand.clash>  (154) 
0.0000

>  <Gold.PLP.ligand.torsion>  (154) 
1.3372

>  <Gold.PLP.Chemscore.Hbond>  (154) 
2.9675

>  <Gold.PLP.Chemscore.CHOScore>  (154) 
0.0000

>  <Gold.PLP.Chemscore.Metal>  (154) 
0.0000

>  <Gold.Chemscore.Hbonds>  (154) 
donor molecule, donor type, donor heavy atom, donor atom, acceptor molecule, acceptor atom, score
      L1  H    13    35       P1  2691  0.97
      L1  H    13    36       P1  2902  2.00

>  <Gold.PLP.Chemscore.Internal.Correction>  (154) 
1.0869

>  <Gold.PLP.Constraint>  (154) 
-0.0000

>  <Gold.Protein.RotatedTorsions>  (154) 
[  681  677  676  673 ] final  161.38 input -179.99 | X-H torsion
[  702  698  697  694 ] final   38.07 input  179.99 | X-H torsion
[ 2577 2569 2568 2566 ] final  -27.48 input   -0.13 | X-H torsion
[ 2891 2887 2886 2883 ] final -117.72 input  179.98 | X-H torsion
[ 3175 3171 3170 3167 ] final   69.10 input -179.99 | X-H torsion
[ 5278 5270 5269 5267 ] final  -81.55 input    0.55 | X-H torsion
[  641  637  636  633 ] final  -76.97 input  179.99 | X-H torsion
[ 1886 1878 1877 1875 ] final   98.65 input    1.60 | X-H torsion
[  965  957  956  954 ] final  119.44 input    0.45 | X-H torsion

>  <Gold.Protein.ActiveResidues>  (154) 
 LYS47   THR48   LEU49   GLY50   THR51   GLY52   SER53   PHE54   GLY55   ARG56  
 VAL57   MET58   LEU59   TYR69   ALA70   MET71   LYS72   ILE73   LEU74   GLU91  
 LEU95   VAL104  LYS105  MET118  VAL119  MET120  GLU121  TYR122  VAL123  PRO124 
 GLY125  GLY126  GLU127  MET128  PHE129  TYR164  ASP166  LEU167  LYS168  PRO169 
 GLU170  ASN171  LEU172  LEU173  ILE174  GLN181  VAL182  THR183  ASP184  PHE185 
 GLY186  PHE187  GLY200  THR201  ASN326  PHE327  TYR330  ARG18   ARG19   ASN20  
 ALA21   ILE22   HIS23  

>  <Gold.Protein.RotatedAtoms>  (154) 
   10.4116   18.9440    7.2691 H   0  0  0  0  0  0  0  0  0  0  0  0  # atno 641  bound_to 637 
   17.1561   13.7973    6.8085 H   0  0  0  0  0  0  0  0  0  0  0  0  # atno 681  bound_to 677 
   19.3532   11.8614   -1.2061 H   0  0  0  0  0  0  0  0  0  0  0  0  # atno 702  bound_to 698 
   -7.1623   16.4965   -0.0044 H   0  0  0  0  0  0  0  0  0  0  0  0  # atno 965  bound_to 957 
    1.4678   12.3118   10.8231 H   0  0  0  0  0  0  0  0  0  0  0  0  # atno 1886 bound_to 1878
   10.1720    3.3706   -3.4104 H   0  0  0  0  0  0  0  0  0  0  0  0  # atno 2577 bound_to 2569
    7.1571    5.8091    1.5209 H   0  0  0  0  0  0  0  0  0  0  0  0  # atno 2891 bound_to 2887
   18.3211    2.1445   -1.2796 H   0  0  0  0  0  0  0  0  0  0  0  0  # atno 3175 bound_to 3171
   13.6301    9.8133   10.4789 H   0  0  0  0  0  0  0  0  0  0  0  0  # atno 5278 bound_to 5270
   16.4101   12.5850    6.0944 LP  0  0  0  0  0  0  0  0  0  0  0  0  # atno 5914 bound_to 677 
   15.7069   13.3905    7.3286 LP  0  0  0  0  0  0  0  0  0  0  0  0  # atno 5915 bound_to 677 
   20.6259   11.6012   -0.2842 LP  0  0  0  0  0  0  0  0  0  0  0  0  # atno 5920 bound_to 698 
   20.7589   11.6090   -1.9117 LP  0  0  0  0  0  0  0  0  0  0  0  0  # atno 5921 bound_to 698 
   10.9951    2.2902   -2.5795 LP  0  0  0  0  0  0  0  0  0  0  0  0  # atno 5950 bound_to 2569
    9.3651    2.2252   -2.6538 LP  0  0  0  0  0  0  0  0  0  0  0  0  # atno 5951 bound_to 2569
    8.0091    6.9681    0.8372 LP  0  0  0  0  0  0  0  0  0  0  0  0  # atno 5982 bound_to 2887
    8.1333    5.4231    0.3232 LP  0  0  0  0  0  0  0  0  0  0  0  0  # atno 5983 bound_to 2887
   19.3921    3.0572   -0.5343 LP  0  0  0  0  0  0  0  0  0  0  0  0  # atno 6000 bound_to 3171
   18.2149    2.2948    0.3021 LP  0  0  0  0  0  0  0  0  0  0  0  0  # atno 6001 bound_to 3171
   14.2892   10.1508    9.0688 LP  0  0  0  0  0  0  0  0  0  0  0  0  # atno 6004 bound_to 5270
   12.6665   10.0912    9.2417 LP  0  0  0  0  0  0  0  0  0  0  0  0  # atno 6005 bound_to 5270
   11.3135   19.5153    8.4502 LP  0  0  0  0  0  0  0  0  0  0  0  0  # atno 6055 bound_to 637 
    9.6858   19.6349    8.5064 LP  0  0  0  0  0  0  0  0  0  0  0  0  # atno 6056 bound_to 637 
    2.1682   10.9787   10.3058 LP  0  0  0  0  0  0  0  0  0  0  0  0  # atno 6063 bound_to 1878
    0.6720   10.9393   10.9588 LP  0  0  0  0  0  0  0  0  0  0  0  0  # atno 6064 bound_to 1878
   -6.7246   15.3594   -1.0293 LP  0  0  0  0  0  0  0  0  0  0  0  0  # atno 6067 bound_to 957 
   -6.5401   16.9386   -1.4017 LP  0  0  0  0  0  0  0  0  0  0  0  0  # atno 6068 bound_to 957 

>  <STRIFE_LigEff_Score>  (154) 
2.455283333333333

$$$$
unknown|pharmsElabsTestPreDocking|sdf|155|dock1
     RDKit          3D

 16 16  0  0  0  0  0  0  0  0999 V2000
    3.7474    8.8995    4.2646 C   0  0  0  0  0  0  0  0  0  0  0  0
    4.1853    9.2376    2.8543 C   0  0  0  0  0  0  0  0  0  0  0  0
    3.0876    9.4759    1.9232 N   0  0  0  0  0  0  0  0  0  0  0  0
    5.4013   10.1799    2.6636 C   0  0  0  0  0  0  0  0  0  0  0  0
    6.6827    9.5109    2.3911 N   0  0  0  0  0  0  0  0  0  0  0  0
    7.7605    9.6178    3.3344 C   0  0  0  0  0  0  0  0  0  0  0  0
    7.5620   10.2169    4.4182 O   0  0  0  0  0  0  0  0  0  0  0  0
    9.1348    9.0384    3.1782 C   0  0  0  0  0  0  0  0  0  0  0  0
    9.1503    7.5752    2.8095 C   0  0  0  0  0  0  0  0  0  0  0  0
   10.5161    7.1055    2.3345 C   0  0  0  0  0  0  0  0  0  0  0  0
   11.7310    7.6471    3.1028 C   0  0  0  0  0  0  0  0  0  0  0  0
   13.0617    7.5438    2.3174 C   0  0  0  0  0  0  0  0  0  0  0  0
   14.3577    7.3521    3.1032 C   0  0  0  0  0  0  0  0  0  0  0  0
   13.1869    8.5785    1.2886 N   0  0  0  0  0  0  0  0  0  0  0  0
   11.5863    9.0600    3.7285 C   0  0  0  0  0  0  0  0  0  0  0  0
   10.1850    9.4938    4.1504 C   0  0  0  0  0  0  0  0  0  0  0  0
  1  2  1  0
  2  3  1  0
  2  4  1  0
  4  5  1  0
  5  6  1  0
  6  7  2  0
  6  8  1  0
  8  9  1  0
  9 10  1  0
 10 11  1  0
 11 12  1  0
 12 13  1  0
 12 14  1  0
 11 15  1  0
 15 16  1  0
 16  8  1  0
M  CHG  1  14   1
M  END
>  <EmbedRMS>  (155) 
0.36426695918498336

>  <Gold.Version>  (155) 
2020.3.0

>  <Gold.Id.Protein>  (155) 
unknown|1q8t_protein|pdb

>  <Gold.PLP.Fitness>  (155) 
42.9128

>  <Gold.PLP.PLP>  (155) 
-37.0876

>  <Gold.PLP.part.hbond>  (155) 
-2.0000

>  <Gold.PLP.part.metal>  (155) 
0.0000

>  <Gold.PLP.part.buried>  (155) 
-4.0160

>  <Gold.PLP.part.nonpolar>  (155) 
-31.2285

>  <Gold.PLP.part.repulsive>  (155) 
0.0240

>  <Gold.PLP.ligand.clash>  (155) 
0.0000

>  <Gold.PLP.ligand.torsion>  (155) 
1.2046

>  <Gold.PLP.Chemscore.Hbond>  (155) 
2.4917

>  <Gold.PLP.Chemscore.CHOScore>  (155) 
0.0000

>  <Gold.PLP.Chemscore.Metal>  (155) 
0.0000

>  <Gold.Chemscore.Hbonds>  (155) 
donor molecule, donor type, donor heavy atom, donor atom, acceptor molecule, acceptor atom, score
      L1  H     3    22       P1  1855  0.49
      L1  H    14    38       P1  2902  2.00

>  <Gold.PLP.Chemscore.Internal.Correction>  (155) 
0.7595

>  <Gold.PLP.Constraint>  (155) 
-0.0000

>  <Gold.Protein.RotatedTorsions>  (155) 
[  681  677  676  673 ] final   98.35 input -179.99 | X-H torsion
[  702  698  697  694 ] final -114.78 input  179.99 | X-H torsion
[ 2577 2569 2568 2566 ] final   99.22 input   -0.13 | X-H torsion
[ 2891 2887 2886 2883 ] final -173.65 input  179.98 | X-H torsion
[ 3175 3171 3170 3167 ] final  177.89 input -179.99 | X-H torsion
[ 5278 5270 5269 5267 ] final  -17.22 input    0.55 | X-H torsion
[  641  637  636  633 ] final  153.26 input  179.99 | X-H torsion
[ 1886 1878 1877 1875 ] final  150.71 input    1.60 | X-H torsion
[  965  957  956  954 ] final -103.35 input    0.45 | X-H torsion

>  <Gold.Protein.ActiveResidues>  (155) 
 LYS47   THR48   LEU49   GLY50   THR51   GLY52   SER53   PHE54   GLY55   ARG56  
 VAL57   MET58   LEU59   TYR69   ALA70   MET71   LYS72   ILE73   LEU74   GLU91  
 LEU95   VAL104  LYS105  MET118  VAL119  MET120  GLU121  TYR122  VAL123  PRO124 
 GLY125  GLY126  GLU127  MET128  PHE129  TYR164  ASP166  LEU167  LYS168  PRO169 
 GLU170  ASN171  LEU172  LEU173  ILE174  GLN181  VAL182  THR183  ASP184  PHE185 
 GLY186  PHE187  GLY200  THR201  ASN326  PHE327  TYR330  ARG18   ARG19   ASN20  
 ALA21   ILE22   HIS23  

>  <Gold.Protein.RotatedAtoms>  (155) 
   11.1912   19.5557    8.5523 H   0  0  0  0  0  0  0  0  0  0  0  0  # atno 641  bound_to 637 
   17.1044   13.1175    6.1665 H   0  0  0  0  0  0  0  0  0  0  0  0  # atno 681  bound_to 677 
   20.9820   11.5622   -0.6641 H   0  0  0  0  0  0  0  0  0  0  0  0  # atno 702  bound_to 698 
   -6.4748   16.6898   -1.5109 H   0  0  0  0  0  0  0  0  0  0  0  0  # atno 965  bound_to 957 
    0.8070   11.9541   11.0534 H   0  0  0  0  0  0  0  0  0  0  0  0  # atno 1886 bound_to 1878
    9.4649    2.1673   -2.6267 H   0  0  0  0  0  0  0  0  0  0  0  0  # atno 2577 bound_to 2569
    7.3605    6.6233    1.4804 H   0  0  0  0  0  0  0  0  0  0  0  0  # atno 2891 bound_to 2887
   18.1367    2.1970    0.1642 H   0  0  0  0  0  0  0  0  0  0  0  0  # atno 3175 bound_to 3171
   12.7710    9.9041   10.0743 H   0  0  0  0  0  0  0  0  0  0  0  0  # atno 5278 bound_to 5270
   15.6573   12.7377    6.7121 LP  0  0  0  0  0  0  0  0  0  0  0  0  # atno 5914 bound_to 677 
   16.5140   13.9533    7.3866 LP  0  0  0  0  0  0  0  0  0  0  0  0  # atno 5915 bound_to 677 
   20.2605   11.7006   -2.0775 LP  0  0  0  0  0  0  0  0  0  0  0  0  # atno 5920 bound_to 698 
   19.4110   11.8243   -0.6884 LP  0  0  0  0  0  0  0  0  0  0  0  0  # atno 5921 bound_to 698 
   10.0610    3.4093   -3.4251 LP  0  0  0  0  0  0  0  0  0  0  0  0  # atno 5950 bound_to 2569
   11.0438    2.3729   -2.6334 LP  0  0  0  0  0  0  0  0  0  0  0  0  # atno 5951 bound_to 2569
    8.3754    6.3923    0.2749 LP  0  0  0  0  0  0  0  0  0  0  0  0  # atno 5982 bound_to 2887
    7.5529    5.1419    0.9281 LP  0  0  0  0  0  0  0  0  0  0  0  0  # atno 5983 bound_to 2887
   18.4322    2.2328   -1.4001 LP  0  0  0  0  0  0  0  0  0  0  0  0  # atno 6000 bound_to 3171
   19.3688    3.0638   -0.3517 LP  0  0  0  0  0  0  0  0  0  0  0  0  # atno 6001 bound_to 3171
   14.3633    9.9118   10.0409 LP  0  0  0  0  0  0  0  0  0  0  0  0  # atno 6004 bound_to 5270
   13.4963   10.2346    8.6953 LP  0  0  0  0  0  0  0  0  0  0  0  0  # atno 6005 bound_to 5270
    9.6086   19.5743    8.3792 LP  0  0  0  0  0  0  0  0  0  0  0  0  # atno 6055 bound_to 637 
   10.5697   18.9317    7.2260 LP  0  0  0  0  0  0  0  0  0  0  0  0  # atno 6056 bound_to 637 
    2.2536   11.7953   10.4075 LP  0  0  0  0  0  0  0  0  0  0  0  0  # atno 6063 bound_to 1878
    1.2822   10.4992   10.6147 LP  0  0  0  0  0  0  0  0  0  0  0  0  # atno 6064 bound_to 1878
   -7.1478   16.7677   -0.0701 LP  0  0  0  0  0  0  0  0  0  0  0  0  # atno 6067 bound_to 957 
   -6.8410   15.3266   -0.7742 LP  0  0  0  0  0  0  0  0  0  0  0  0  # atno 6068 bound_to 957 

>  <STRIFE_LigEff_Score>  (155) 
2.68205

$$$$
unknown|pharmsElabsTestPreDocking|sdf|156|dock3
     RDKit          3D

 18 20  0  0  0  0  0  0  0  0999 V2000
   14.5557    9.1644    1.4008 C   0  0  0  0  0  0  0  0  0  0  0  0
   13.6337    7.9877    1.6709 C   0  0  0  0  0  0  0  0  0  0  0  0
   13.8530    6.8206    0.8259 N   0  0  0  0  0  0  0  0  0  0  0  0
   12.1629    8.3244    2.0536 C   0  0  0  0  0  0  0  0  0  0  0  0
   11.3753    7.3133    2.9061 C   0  0  0  0  0  0  0  0  0  0  0  0
    9.8766    7.6169    2.7404 C   0  0  0  0  0  0  0  0  0  0  0  0
    9.5585    9.0590    3.1792 C   0  0  0  0  0  0  0  0  0  0  0  0
    8.1064    9.3778    2.9548 C   0  0  0  0  0  0  0  0  0  0  0  0
    7.7535   10.0769    1.9647 O   0  0  0  0  0  0  0  0  0  0  0  0
    7.1411    8.8974    3.8963 N   0  0  0  0  0  0  0  0  0  0  0  0
    5.7332    9.1102    3.7882 C   0  0  0  0  0  0  0  0  0  0  0  0
    4.8095    8.9659    2.6668 C   0  0  0  0  0  0  0  0  0  0  0  0
    3.4233    9.3016    2.9927 C   0  0  0  0  0  0  0  0  0  0  0  0
    3.5989    9.6270    4.2887 C   0  0  0  0  0  0  0  0  0  0  0  0
    3.8996    9.9318    5.5910 C   0  0  0  0  0  0  0  0  0  0  0  0
    4.8850    9.5205    4.7314 C   0  0  0  0  0  0  0  0  0  0  0  0
   10.4509   10.1071    2.4864 C   0  0  0  0  0  0  0  0  0  0  0  0
   11.9388    9.7456    2.5993 C   0  0  0  0  0  0  0  0  0  0  0  0
  1  2  1  0
  2  3  1  0
  2  4  1  0
  4  5  1  0
  5  6  1  0
  6  7  1  0
  7  8  1  0
  8  9  2  0
  8 10  1  0
 10 11  1  0
 11 12  2  0
 12 13  1  0
 13 14  2  0
 14 15  1  0
 15 16  2  0
  7 17  1  0
 17 18  1  0
 18  4  1  0
 16 11  1  0
 16 14  1  0
M  CHG  1   3   1
M  END
>  <EmbedRMS>  (156) 
0.18242760821357734

>  <Gold.Version>  (156) 
2020.3.0

>  <Gold.Id.Protein>  (156) 
unknown|1q8t_protein|pdb

>  <Gold.PLP.Fitness>  (156) 
54.1263

>  <Gold.PLP.PLP>  (156) 
-48.0469

>  <Gold.PLP.part.hbond>  (156) 
-1.7280

>  <Gold.PLP.part.metal>  (156) 
0.0000

>  <Gold.PLP.part.buried>  (156) 
-3.9556

>  <Gold.PLP.part.nonpolar>  (156) 
-43.7329

>  <Gold.PLP.part.repulsive>  (156) 
0.0876

>  <Gold.PLP.ligand.clash>  (156) 
0.0000

>  <Gold.PLP.ligand.torsion>  (156) 
1.4792

>  <Gold.PLP.Chemscore.Hbond>  (156) 
2.8892

>  <Gold.PLP.Chemscore.CHOScore>  (156) 
0.0000

>  <Gold.PLP.Chemscore.Metal>  (156) 
0.0000

>  <Gold.Chemscore.Hbonds>  (156) 
donor molecule, donor type, donor heavy atom, donor atom, acceptor molecule, acceptor atom, score
      L1  H     3    23       P1  2691  0.89
      L1  H     3    25       P1  2902  2.00

>  <Gold.PLP.Chemscore.Internal.Correction>  (156) 
0.3703

>  <Gold.PLP.Constraint>  (156) 
-0.0000

>  <Gold.Protein.RotatedTorsions>  (156) 
[  681  677  676  673 ] final -140.83 input -179.99 | X-H torsion
[  702  698  697  694 ] final   17.18 input  179.99 | X-H torsion
[ 2577 2569 2568 2566 ] final  154.28 input   -0.13 | X-H torsion
[ 2891 2887 2886 2883 ] final   57.14 input  179.98 | X-H torsion
[ 3175 3171 3170 3167 ] final -114.99 input -179.99 | X-H torsion
[ 5278 5270 5269 5267 ] final  -92.17 input    0.55 | X-H torsion
[  641  637  636  633 ] final  -56.93 input  179.99 | X-H torsion
[ 1886 1878 1877 1875 ] final  152.58 input    1.60 | X-H torsion
[  965  957  956  954 ] final -101.82 input    0.45 | X-H torsion

>  <Gold.Protein.ActiveResidues>  (156) 
 LYS47   THR48   LEU49   GLY50   THR51   GLY52   SER53   PHE54   GLY55   ARG56  
 VAL57   MET58   LEU59   TYR69   ALA70   MET71   LYS72   ILE73   LEU74   GLU91  
 LEU95   VAL104  LYS105  MET118  VAL119  MET120  GLU121  TYR122  VAL123  PRO124 
 GLY125  GLY126  GLU127  MET128  PHE129  TYR164  ASP166  LEU167  LYS168  PRO169 
 GLU170  ASN171  LEU172  LEU173  ILE174  GLN181  VAL182  THR183  ASP184  PHE185 
 GLY186  PHE187  GLY200  THR201  ASN326  PHE327  TYR330  ARG18   ARG19   ASN20  
 ALA21   ILE22   HIS23  

>  <Gold.Protein.RotatedAtoms>  (156) 
   10.1093   18.9909    7.3279 H   0  0  0  0  0  0  0  0  0  0  0  0  # atno 641  bound_to 637 
   16.4918   13.9268    7.3484 H   0  0  0  0  0  0  0  0  0  0  0  0  # atno 681  bound_to 677 
   19.3850   11.8495   -0.8829 H   0  0  0  0  0  0  0  0  0  0  0  0  # atno 702  bound_to 698 
   -6.4704   16.6685   -1.5210 H   0  0  0  0  0  0  0  0  0  0  0  0  # atno 965  bound_to 957 
    0.7899   11.9307   11.0569 H   0  0  0  0  0  0  0  0  0  0  0  0  # atno 1886 bound_to 1878
   10.2114    1.9014   -2.3874 H   0  0  0  0  0  0  0  0  0  0  0  0  # atno 2577 bound_to 2569
    8.3426    6.2418    0.2515 H   0  0  0  0  0  0  0  0  0  0  0  0  # atno 2891 bound_to 2887
   18.9199    2.7920    0.2782 H   0  0  0  0  0  0  0  0  0  0  0  0  # atno 3175 bound_to 3171
   13.7925    9.8230   10.4466 H   0  0  0  0  0  0  0  0  0  0  0  0  # atno 5278 bound_to 5270
   17.1535   13.1086    6.1530 LP  0  0  0  0  0  0  0  0  0  0  0  0  # atno 5914 bound_to 677 
   15.6626   12.7307    6.7018 LP  0  0  0  0  0  0  0  0  0  0  0  0  # atno 5915 bound_to 677 
   20.8993   11.5566   -0.4846 LP  0  0  0  0  0  0  0  0  0  0  0  0  # atno 5920 bound_to 698 
   20.4521   11.6661   -2.0513 LP  0  0  0  0  0  0  0  0  0  0  0  0  # atno 5921 bound_to 698 
    9.3449    2.9781   -3.1781 LP  0  0  0  0  0  0  0  0  0  0  0  0  # atno 5950 bound_to 2569
   10.9738    3.0842   -3.1324 LP  0  0  0  0  0  0  0  0  0  0  0  0  # atno 5951 bound_to 2569
    7.4609    5.1777    1.0432 LP  0  0  0  0  0  0  0  0  0  0  0  0  # atno 5982 bound_to 2887
    7.4338    6.7581    1.4532 LP  0  0  0  0  0  0  0  0  0  0  0  0  # atno 5983 bound_to 2887
   17.8803    1.9329   -0.5683 LP  0  0  0  0  0  0  0  0  0  0  0  0  # atno 6000 bound_to 3171
   19.0964    2.7375   -1.3034 LP  0  0  0  0  0  0  0  0  0  0  0  0  # atno 6001 bound_to 3171
   14.1730   10.1809    8.9420 LP  0  0  0  0  0  0  0  0  0  0  0  0  # atno 6004 bound_to 5270
   12.6117   10.0510    9.4024 LP  0  0  0  0  0  0  0  0  0  0  0  0  # atno 6005 bound_to 5270
   11.4055   19.3680    8.1720 LP  0  0  0  0  0  0  0  0  0  0  0  0  # atno 6055 bound_to 637 
    9.9121   19.7327    8.7228 LP  0  0  0  0  0  0  0  0  0  0  0  0  # atno 6056 bound_to 637 
    2.2437   11.8230   10.4165 LP  0  0  0  0  0  0  0  0  0  0  0  0  # atno 6063 bound_to 1878
    1.3100   10.4962   10.6019 LP  0  0  0  0  0  0  0  0  0  0  0  0  # atno 6064 bound_to 1878
   -7.1420   16.7889   -0.0824 LP  0  0  0  0  0  0  0  0  0  0  0  0  # atno 6067 bound_to 957 
   -6.8515   15.3278   -0.7513 LP  0  0  0  0  0  0  0  0  0  0  0  0  # atno 6068 bound_to 957 

>  <STRIFE_LigEff_Score>  (156) 
3.007016666666667

$$$$
unknown|pharmsElabsTestPreDocking|sdf|157|dock6
     RDKit          3D

 16 16  0  0  0  0  0  0  0  0999 V2000
    3.3050    9.0840    3.1004 C   0  0  0  0  0  0  0  0  0  0  0  0
    3.2336    9.7678    4.3905 N   0  0  0  0  0  0  0  0  0  0  0  0
    4.4844    9.5528    5.1210 C   0  0  0  0  0  0  0  0  0  0  0  0
    5.6155   10.3548    4.4899 C   0  0  0  0  0  0  0  0  0  0  0  0
    6.9084    9.6543    4.5528 N   0  0  0  0  0  0  0  0  0  0  0  0
    7.7360    9.6485    3.3765 C   0  0  0  0  0  0  0  0  0  0  0  0
    7.3031   10.1845    2.3271 O   0  0  0  0  0  0  0  0  0  0  0  0
    9.1149    9.0690    3.2631 C   0  0  0  0  0  0  0  0  0  0  0  0
    9.1366    7.5806    3.0226 C   0  0  0  0  0  0  0  0  0  0  0  0
   10.5029    7.0764    2.5882 C   0  0  0  0  0  0  0  0  0  0  0  0
   11.7161    7.6836    3.3077 C   0  0  0  0  0  0  0  0  0  0  0  0
   13.0476    7.5104    2.5362 C   0  0  0  0  0  0  0  0  0  0  0  0
   14.3444    7.4064    3.3373 C   0  0  0  0  0  0  0  0  0  0  0  0
   13.1670    8.4373    1.4088 N   0  0  0  0  0  0  0  0  0  0  0  0
   11.5698    9.1466    3.8042 C   0  0  0  0  0  0  0  0  0  0  0  0
   10.1676    9.6144    4.1869 C   0  0  0  0  0  0  0  0  0  0  0  0
  1  2  1  0
  2  3  1  0
  3  4  1  0
  4  5  1  0
  5  6  1  0
  6  7  2  0
  6  8  1  0
  8  9  1  0
  9 10  1  0
 10 11  1  0
 11 12  1  0
 12 13  1  0
 12 14  1  0
 11 15  1  0
 15 16  1  0
 16  8  1  0
M  CHG  1  14   1
M  END
>  <EmbedRMS>  (157) 
0.31072278256227437

>  <Gold.Version>  (157) 
2020.3.0

>  <Gold.Id.Protein>  (157) 
unknown|1q8t_protein|pdb

>  <Gold.PLP.Fitness>  (157) 
45.6139

>  <Gold.PLP.PLP>  (157) 
-38.3354

>  <Gold.PLP.part.hbond>  (157) 
-2.0000

>  <Gold.PLP.part.metal>  (157) 
0.0000

>  <Gold.PLP.part.buried>  (157) 
-4.1498

>  <Gold.PLP.part.nonpolar>  (157) 
-32.8447

>  <Gold.PLP.part.repulsive>  (157) 
0.0000

>  <Gold.PLP.ligand.clash>  (157) 
0.0000

>  <Gold.PLP.ligand.torsion>  (157) 
1.0112

>  <Gold.PLP.Chemscore.Hbond>  (157) 
2.8840

>  <Gold.PLP.Chemscore.CHOScore>  (157) 
0.0000

>  <Gold.PLP.Chemscore.Metal>  (157) 
0.0000

>  <Gold.Chemscore.Hbonds>  (157) 
donor molecule, donor type, donor heavy atom, donor atom, acceptor molecule, acceptor atom, score
      L1  H    14    37       P1  2902  1.98
      P1  H  1888  1903       L1     2  0.90

>  <Gold.PLP.Chemscore.Internal.Correction>  (157) 
0.6489

>  <Gold.PLP.Constraint>  (157) 
-0.0000

>  <Gold.Protein.RotatedTorsions>  (157) 
[  681  677  676  673 ] final   76.05 input -179.99 | X-H torsion
[  702  698  697  694 ] final  -72.36 input  179.99 | X-H torsion
[ 2577 2569 2568 2566 ] final  -44.27 input   -0.13 | X-H torsion
[ 2891 2887 2886 2883 ] final  -44.33 input  179.98 | X-H torsion
[ 3175 3171 3170 3167 ] final   84.09 input -179.99 | X-H torsion
[ 5278 5270 5269 5267 ] final    0.09 input    0.55 | X-H torsion
[  641  637  636  633 ] final   64.78 input  179.99 | X-H torsion
[ 1886 1878 1877 1875 ] final   59.94 input    1.60 | X-H torsion
[  965  957  956  954 ] final   79.64 input    0.45 | X-H torsion

>  <Gold.Protein.ActiveResidues>  (157) 
 LYS47   THR48   LEU49   GLY50   THR51   GLY52   SER53   PHE54   GLY55   ARG56  
 VAL57   MET58   LEU59   TYR69   ALA70   MET71   LYS72   ILE73   LEU74   GLU91  
 LEU95   VAL104  LYS105  MET118  VAL119  MET120  GLU121  TYR122  VAL123  PRO124 
 GLY125  GLY126  GLU127  MET128  PHE129  TYR164  ASP166  LEU167  LYS168  PRO169 
 GLU170  ASN171  LEU172  LEU173  ILE174  GLN181  VAL182  THR183  ASP184  PHE185 
 GLY186  PHE187  GLY200  THR201  ASN326  PHE327  TYR330  ARG18   ARG19   ASN20  
 ALA21   ILE22   HIS23  

>  <Gold.Protein.RotatedAtoms>  (157) 
    9.9611   19.7054    8.7111 H   0  0  0  0  0  0  0  0  0  0  0  0  # atno 641  bound_to 637 
   16.8758   12.8761    6.0688 H   0  0  0  0  0  0  0  0  0  0  0  0  # atno 681  bound_to 677 
   20.4713   11.6452   -0.2731 H   0  0  0  0  0  0  0  0  0  0  0  0  # atno 702  bound_to 698 
   -7.1444   15.8895   -0.0565 H   0  0  0  0  0  0  0  0  0  0  0  0  # atno 965  bound_to 957 
    1.9731   12.1309   10.5695 H   0  0  0  0  0  0  0  0  0  0  0  0  # atno 1886 bound_to 1878
   10.4305    3.3495   -3.3768 H   0  0  0  0  0  0  0  0  0  0  0  0  # atno 2577 bound_to 2569
    7.6443    5.1789    0.8056 H   0  0  0  0  0  0  0  0  0  0  0  0  # atno 2891 bound_to 2887
   18.1650    2.0478   -1.1350 H   0  0  0  0  0  0  0  0  0  0  0  0  # atno 3175 bound_to 3171
   12.6638    9.9623    9.8338 H   0  0  0  0  0  0  0  0  0  0  0  0  # atno 5278 bound_to 5270
   15.5772   12.9643    6.9864 LP  0  0  0  0  0  0  0  0  0  0  0  0  # atno 5914 bound_to 677 
   16.8347   13.9808    7.2152 LP  0  0  0  0  0  0  0  0  0  0  0  0  # atno 5915 bound_to 677 
   20.8783   11.5859   -1.8120 LP  0  0  0  0  0  0  0  0  0  0  0  0  # atno 5920 bound_to 698 
   19.3303   11.8517   -1.3653 LP  0  0  0  0  0  0  0  0  0  0  0  0  # atno 5921 bound_to 698 
   10.8258    2.1061   -2.4641 LP  0  0  0  0  0  0  0  0  0  0  0  0  # atno 5950 bound_to 2569
    9.2622    2.4314   -2.8046 LP  0  0  0  0  0  0  0  0  0  0  0  0  # atno 5951 bound_to 2569
    7.2810    6.5255    1.5745 LP  0  0  0  0  0  0  0  0  0  0  0  0  # atno 5982 bound_to 2887
    8.3486    6.5289    0.3387 LP  0  0  0  0  0  0  0  0  0  0  0  0  # atno 5983 bound_to 2887
   19.3780    3.0151   -0.7763 LP  0  0  0  0  0  0  0  0  0  0  0  0  # atno 6000 bound_to 3171
   18.3932    2.4386    0.3918 LP  0  0  0  0  0  0  0  0  0  0  0  0  # atno 6001 bound_to 3171
   14.1943    9.8556   10.2617 LP  0  0  0  0  0  0  0  0  0  0  0  0  # atno 6004 bound_to 5270
   13.7781   10.2296    8.7276 LP  0  0  0  0  0  0  0  0  0  0  0  0  # atno 6005 bound_to 5270
   10.0655   18.9931    7.2910 LP  0  0  0  0  0  0  0  0  0  0  0  0  # atno 6055 bound_to 637 
   11.4082   19.3551    8.1470 LP  0  0  0  0  0  0  0  0  0  0  0  0  # atno 6056 bound_to 637 
    1.7175   10.5652   10.4340 LP  0  0  0  0  0  0  0  0  0  0  0  0  # atno 6063 bound_to 1878
    0.5907   11.5432   11.0976 LP  0  0  0  0  0  0  0  0  0  0  0  0  # atno 6064 bound_to 1878
   -6.5044   15.7290   -1.5055 LP  0  0  0  0  0  0  0  0  0  0  0  0  # atno 6067 bound_to 957 
   -6.7793   17.2082   -0.8705 LP  0  0  0  0  0  0  0  0  0  0  0  0  # atno 6068 bound_to 957 

>  <STRIFE_LigEff_Score>  (157) 
2.85086875

$$$$
unknown|pharmsElabsTestPreDocking|sdf|158|dock7
     RDKit          3D

 13 13  0  0  0  0  0  0  0  0999 V2000
    5.0877    9.1941    2.6636 C   0  0  0  0  0  0  0  0  0  0  0  0
    6.4975    9.2308    2.2674 N   0  0  0  0  0  0  0  0  0  0  0  0
    7.5209    9.0267    3.2524 C   0  0  0  0  0  0  0  0  0  0  0  0
    7.1913    8.9008    4.4578 O   0  0  0  0  0  0  0  0  0  0  0  0
    8.9904    8.9202    2.9715 C   0  0  0  0  0  0  0  0  0  0  0  0
    9.5379    7.4909    2.9426 C   0  0  0  0  0  0  0  0  0  0  0  0
   11.0748    7.3993    2.8442 C   0  0  0  0  0  0  0  0  0  0  0  0
   11.6656    8.6596    2.1925 C   0  0  0  0  0  0  0  0  0  0  0  0
   13.1373    8.5925    1.6798 C   0  0  0  0  0  0  0  0  0  0  0  0
   13.7245    9.8698    1.1034 C   0  0  0  0  0  0  0  0  0  0  0  0
   13.5586    7.3677    1.0082 N   0  0  0  0  0  0  0  0  0  0  0  0
   11.3721    9.8866    3.0795 C   0  0  0  0  0  0  0  0  0  0  0  0
    9.8769   10.0740    3.4137 C   0  0  0  0  0  0  0  0  0  0  0  0
  1  2  1  0
  2  3  1  0
  3  4  2  0
  3  5  1  0
  5  6  1  0
  6  7  1  0
  7  8  1  0
  8  9  1  0
  9 10  1  0
  9 11  1  0
  8 12  1  0
 12 13  1  0
 13  5  1  0
M  CHG  1  11   1
M  END
>  <EmbedRMS>  (158) 
0.29639754771625826

>  <Gold.Version>  (158) 
2020.3.0

>  <Gold.Id.Protein>  (158) 
unknown|1q8t_protein|pdb

>  <Gold.PLP.Fitness>  (158) 
34.3620

>  <Gold.PLP.PLP>  (158) 
-25.7255

>  <Gold.PLP.part.hbond>  (158) 
-2.0000

>  <Gold.PLP.part.metal>  (158) 
0.0000

>  <Gold.PLP.part.buried>  (158) 
-3.2065

>  <Gold.PLP.part.nonpolar>  (158) 
-20.2485

>  <Gold.PLP.part.repulsive>  (158) 
0.0551

>  <Gold.PLP.ligand.clash>  (158) 
0.0000

>  <Gold.PLP.ligand.torsion>  (158) 
0.5403

>  <Gold.PLP.Chemscore.Hbond>  (158) 
2.8960

>  <Gold.PLP.Chemscore.CHOScore>  (158) 
0.0000

>  <Gold.PLP.Chemscore.Metal>  (158) 
0.0000

>  <Gold.Chemscore.Hbonds>  (158) 
donor molecule, donor type, donor heavy atom, donor atom, acceptor molecule, acceptor atom, score
      L1  H    11    29       P1  2691  0.90
      L1  H    11    30       P1  2902  2.00

>  <Gold.PLP.Chemscore.Internal.Correction>  (158) 
1.0290

>  <Gold.PLP.Constraint>  (158) 
-0.0000

>  <Gold.Protein.RotatedTorsions>  (158) 
[  681  677  676  673 ] final   18.60 input -179.99 | X-H torsion
[  702  698  697  694 ] final  130.29 input  179.99 | X-H torsion
[ 2577 2569 2568 2566 ] final  -15.30 input   -0.13 | X-H torsion
[ 2891 2887 2886 2883 ] final -171.29 input  179.98 | X-H torsion
[ 3175 3171 3170 3167 ] final    5.56 input -179.99 | X-H torsion
[ 5278 5270 5269 5267 ] final  -28.74 input    0.55 | X-H torsion
[  641  637  636  633 ] final  -12.85 input  179.99 | X-H torsion
[ 1886 1878 1877 1875 ] final  119.25 input    1.60 | X-H torsion
[  965  957  956  954 ] final -100.00 input    0.45 | X-H torsion

>  <Gold.Protein.ActiveResidues>  (158) 
 LYS47   THR48   LEU49   GLY50   THR51   GLY52   SER53   PHE54   GLY55   ARG56  
 VAL57   MET58   LEU59   TYR69   ALA70   MET71   LYS72   ILE73   LEU74   GLU91  
 LEU95   VAL104  LYS105  MET118  VAL119  MET120  GLU121  TYR122  VAL123  PRO124 
 GLY125  GLY126  GLU127  MET128  PHE129  TYR164  ASP166  LEU167  LYS168  PRO169 
 GLU170  ASN171  LEU172  LEU173  ILE174  GLN181  VAL182  THR183  ASP184  PHE185 
 GLY186  PHE187  GLY200  THR201  ASN326  PHE327  TYR330  ARG18   ARG19   ASN20  
 ALA21   ILE22   HIS23  

>  <Gold.Protein.RotatedAtoms>  (158) 
    9.6409   19.2305    7.7459 H   0  0  0  0  0  0  0  0  0  0  0  0  # atno 641  bound_to 637 
   16.0897   12.5899    6.2721 H   0  0  0  0  0  0  0  0  0  0  0  0  # atno 681  bound_to 677 
   20.3396   11.7024   -2.0249 H   0  0  0  0  0  0  0  0  0  0  0  0  # atno 702  bound_to 698 
   -6.4656   16.6429   -1.5323 H   0  0  0  0  0  0  0  0  0  0  0  0  # atno 965  bound_to 957 
    1.1768   12.2476   10.9404 H   0  0  0  0  0  0  0  0  0  0  0  0  # atno 1886 bound_to 1878
    9.9836    3.3465   -3.4075 H   0  0  0  0  0  0  0  0  0  0  0  0  # atno 2577 bound_to 2569
    7.3423    6.5946    1.4946 H   0  0  0  0  0  0  0  0  0  0  0  0  # atno 2891 bound_to 2887
   19.0781    2.7068   -1.2670 H   0  0  0  0  0  0  0  0  0  0  0  0  # atno 3175 bound_to 3171
   12.8813    9.8712   10.2125 H   0  0  0  0  0  0  0  0  0  0  0  0  # atno 5278 bound_to 5270
   15.9408   13.6553    7.4463 LP  0  0  0  0  0  0  0  0  0  0  0  0  # atno 5914 bound_to 677 
   17.2986   13.5910    6.5413 LP  0  0  0  0  0  0  0  0  0  0  0  0  # atno 5915 bound_to 677 
   19.3756   11.8321   -0.7635 LP  0  0  0  0  0  0  0  0  0  0  0  0  # atno 5920 bound_to 698 
   20.9716   11.5454   -0.5711 LP  0  0  0  0  0  0  0  0  0  0  0  0  # atno 5921 bound_to 698 
   11.0748    2.4435   -2.6802 LP  0  0  0  0  0  0  0  0  0  0  0  0  # atno 5950 bound_to 2569
    9.4838    2.0972   -2.5562 LP  0  0  0  0  0  0  0  0  0  0  0  0  # atno 5951 bound_to 2569
    8.3701    6.4279    0.2896 LP  0  0  0  0  0  0  0  0  0  0  0  0  # atno 5982 bound_to 2887
    7.5774    5.1366    0.8984 LP  0  0  0  0  0  0  0  0  0  0  0  0  # atno 5983 bound_to 2887
   18.9309    2.8267    0.3140 LP  0  0  0  0  0  0  0  0  0  0  0  0  # atno 6000 bound_to 3171
   17.8794    1.9334   -0.5595 LP  0  0  0  0  0  0  0  0  0  0  0  0  # atno 6001 bound_to 3171
   14.4347    9.9545    9.8709 LP  0  0  0  0  0  0  0  0  0  0  0  0  # atno 6004 bound_to 5270
   13.3088   10.2266    8.7199 LP  0  0  0  0  0  0  0  0  0  0  0  0  # atno 6005 bound_to 5270
   11.2138   19.0668    7.5610 LP  0  0  0  0  0  0  0  0  0  0  0  0  # atno 6055 bound_to 637 
   10.5971   19.7816    8.8935 LP  0  0  0  0  0  0  0  0  0  0  0  0  # atno 6056 bound_to 637 
    2.2850   11.2949   10.3083 LP  0  0  0  0  0  0  0  0  0  0  0  0  # atno 6063 bound_to 1878
    0.8615   10.6906   10.8328 LP  0  0  0  0  0  0  0  0  0  0  0  0  # atno 6064 bound_to 1878
   -7.1348   16.8136   -0.0976 LP  0  0  0  0  0  0  0  0  0  0  0  0  # atno 6067 bound_to 957 
   -6.8638   15.3301   -0.7242 LP  0  0  0  0  0  0  0  0  0  0  0  0  # atno 6068 bound_to 957 

>  <STRIFE_LigEff_Score>  (158) 
2.6432307692307693

$$$$
unknown|pharmsElabsTestPreDocking|sdf|159|dock4
     RDKit          3D

 17 18  0  0  0  0  0  0  0  0999 V2000
   14.5450    7.9565    2.9430 C   0  0  0  0  0  0  0  0  0  0  0  0
   13.2146    7.9275    2.1922 C   0  0  0  0  0  0  0  0  0  0  0  0
   13.1530    8.9412    1.1373 N   0  0  0  0  0  0  0  0  0  0  0  0
   11.9053    7.8487    3.0152 C   0  0  0  0  0  0  0  0  0  0  0  0
   10.7731    7.0962    2.3010 C   0  0  0  0  0  0  0  0  0  0  0  0
    9.3648    7.3545    2.8090 C   0  0  0  0  0  0  0  0  0  0  0  0
    9.1232    8.8056    3.1399 C   0  0  0  0  0  0  0  0  0  0  0  0
    7.6758    9.1575    3.3146 C   0  0  0  0  0  0  0  0  0  0  0  0
    7.4433    9.8390    4.3384 O   0  0  0  0  0  0  0  0  0  0  0  0
    6.5902    8.7870    2.4376 N   0  0  0  0  0  0  0  0  0  0  0  0
    5.2037    9.0744    2.7527 C   0  0  0  0  0  0  0  0  0  0  0  0
    4.6351    9.2771    4.0093 C   0  0  0  0  0  0  0  0  0  0  0  0
    3.2945    9.5000    3.7931 C   0  0  0  0  0  0  0  0  0  0  0  0
    3.0207    9.4399    2.4779 N   0  0  0  0  0  0  0  0  0  0  0  0
    4.1760    9.1804    1.8351 C   0  0  0  0  0  0  0  0  0  0  0  0
   10.1135    9.4627    4.0579 C   0  0  0  0  0  0  0  0  0  0  0  0
   11.5543    9.2423    3.6015 C   0  0  0  0  0  0  0  0  0  0  0  0
  1  2  1  0
  2  3  1  0
  2  4  1  0
  4  5  1  0
  5  6  1  0
  6  7  1  0
  7  8  1  0
  8  9  2  0
  8 10  1  0
 10 11  1  0
 11 12  1  0
 12 13  2  0
 13 14  1  0
 14 15  1  0
  7 16  1  0
 16 17  1  0
 17  4  1  0
 15 11  2  0
M  CHG  1   3   1
M  END
>  <EmbedRMS>  (159) 
0.3005329260886256

>  <Gold.Version>  (159) 
2020.3.0

>  <Gold.Id.Protein>  (159) 
unknown|1q8t_protein|pdb

>  <Gold.PLP.Fitness>  (159) 
49.3520

>  <Gold.PLP.PLP>  (159) 
-41.0709

>  <Gold.PLP.part.hbond>  (159) 
-2.2569

>  <Gold.PLP.part.metal>  (159) 
0.0000

>  <Gold.PLP.part.buried>  (159) 
-3.6282

>  <Gold.PLP.part.nonpolar>  (159) 
-34.8664

>  <Gold.PLP.part.repulsive>  (159) 
0.1049

>  <Gold.PLP.ligand.clash>  (159) 
0.0000

>  <Gold.PLP.ligand.torsion>  (159) 
0.7036

>  <Gold.PLP.Chemscore.Hbond>  (159) 
3.0232

>  <Gold.PLP.Chemscore.CHOScore>  (159) 
0.0000

>  <Gold.PLP.Chemscore.Metal>  (159) 
0.0000

>  <Gold.Chemscore.Hbonds>  (159) 
donor molecule, donor type, donor heavy atom, donor atom, acceptor molecule, acceptor atom, score
      L1  H     3    22       P1  2902  2.00
      L1  H    10    31       P1  2887  0.02
      L1  H    14    34       P1  1855  1.00

>  <Gold.PLP.Chemscore.Internal.Correction>  (159) 
0.6186

>  <Gold.PLP.Constraint>  (159) 
-0.0000

>  <Gold.Protein.RotatedTorsions>  (159) 
[  681  677  676  673 ] final  -20.01 input -179.99 | X-H torsion
[  702  698  697  694 ] final   65.63 input  179.99 | X-H torsion
[ 2577 2569 2568 2566 ] final  -44.79 input   -0.13 | X-H torsion
[ 2891 2887 2886 2883 ] final   49.99 input  179.98 | X-H torsion
[ 3175 3171 3170 3167 ] final  131.46 input -179.99 | X-H torsion
[ 5278 5270 5269 5267 ] final -122.37 input    0.55 | X-H torsion
[  641  637  636  633 ] final   75.06 input  179.99 | X-H torsion
[ 1886 1878 1877 1875 ] final  160.26 input    1.60 | X-H torsion
[  965  957  956  954 ] final -136.70 input    0.45 | X-H torsion

>  <Gold.Protein.ActiveResidues>  (159) 
 LYS47   THR48   LEU49   GLY50   THR51   GLY52   SER53   PHE54   GLY55   ARG56  
 VAL57   MET58   LEU59   TYR69   ALA70   MET71   LYS72   ILE73   LEU74   GLU91  
 LEU95   VAL104  LYS105  MET118  VAL119  MET120  GLU121  TYR122  VAL123  PRO124 
 GLY125  GLY126  GLU127  MET128  PHE129  TYR164  ASP166  LEU167  LYS168  PRO169 
 GLU170  ASN171  LEU172  LEU173  ILE174  GLN181  VAL182  THR183  ASP184  PHE185 
 GLY186  PHE187  GLY200  THR201  ASN326  PHE327  TYR330  ARG18   ARG19   ASN20  
 ALA21   ILE22   HIS23  

>  <Gold.Protein.RotatedAtoms>  (159) 
   10.1007   19.7351    8.7845 H   0  0  0  0  0  0  0  0  0  0  0  0  # atno 641  bound_to 637 
   15.6998   12.7615    6.6837 H   0  0  0  0  0  0  0  0  0  0  0  0  # atno 681  bound_to 677 
   19.4867   11.8456   -1.6112 H   0  0  0  0  0  0  0  0  0  0  0  0  # atno 702  bound_to 698 
   -6.6217   17.0548   -1.1805 H   0  0  0  0  0  0  0  0  0  0  0  0  # atno 965  bound_to 957 
    0.7272   11.8289   11.0672 H   0  0  0  0  0  0  0  0  0  0  0  0  # atno 1886 bound_to 1878
   10.4383    3.3478   -3.3751 H   0  0  0  0  0  0  0  0  0  0  0  0  # atno 2577 bound_to 2569
    8.3398    6.1326    0.2285 H   0  0  0  0  0  0  0  0  0  0  0  0  # atno 2891 bound_to 2887
   17.9221    1.9558   -0.4639 H   0  0  0  0  0  0  0  0  0  0  0  0  # atno 3175 bound_to 3171
   14.1878    9.8863   10.2066 H   0  0  0  0  0  0  0  0  0  0  0  0  # atno 5278 bound_to 5270
   16.4894   13.9471    7.3957 LP  0  0  0  0  0  0  0  0  0  0  0  0  # atno 5914 bound_to 677 
   17.1603   13.1186    6.1587 LP  0  0  0  0  0  0  0  0  0  0  0  0  # atno 5915 bound_to 677 
   20.1927   11.6762   -0.1933 LP  0  0  0  0  0  0  0  0  0  0  0  0  # atno 5920 bound_to 698 
   21.0517   11.5506   -1.5764 LP  0  0  0  0  0  0  0  0  0  0  0  0  # atno 5921 bound_to 698 
   10.8196    2.1011   -2.4611 LP  0  0  0  0  0  0  0  0  0  0  0  0  # atno 5950 bound_to 2569
    9.2602    2.4382   -2.8094 LP  0  0  0  0  0  0  0  0  0  0  0  0  # atno 5951 bound_to 2569
    7.3949    5.2211    1.1301 LP  0  0  0  0  0  0  0  0  0  0  0  0  # atno 5982 bound_to 2887
    7.5028    6.8296    1.3905 LP  0  0  0  0  0  0  0  0  0  0  0  0  # atno 5983 bound_to 2887
   19.0257    2.6782   -1.3560 LP  0  0  0  0  0  0  0  0  0  0  0  0  # atno 6000 bound_to 3171
   19.0011    2.8723    0.2652 LP  0  0  0  0  0  0  0  0  0  0  0  0  # atno 6001 bound_to 3171
   13.7389   10.2316    8.7180 LP  0  0  0  0  0  0  0  0  0  0  0  0  # atno 6004 bound_to 5270
   12.6299    9.9337    9.8790 LP  0  0  0  0  0  0  0  0  0  0  0  0  # atno 6005 bound_to 5270
    9.9201   19.0386    7.3643 LP  0  0  0  0  0  0  0  0  0  0  0  0  # atno 6055 bound_to 637 
   11.4066   19.2784    7.9964 LP  0  0  0  0  0  0  0  0  0  0  0  0  # atno 6056 bound_to 637 
    2.1943   11.9320   10.4569 LP  0  0  0  0  0  0  0  0  0  0  0  0  # atno 6063 bound_to 1878
    1.4255   10.4944   10.5507 LP  0  0  0  0  0  0  0  0  0  0  0  0  # atno 6064 bound_to 1878
   -7.2109   16.2457    0.0578 LP  0  0  0  0  0  0  0  0  0  0  0  0  # atno 6067 bound_to 957 
   -6.6232   15.4642   -1.2500 LP  0  0  0  0  0  0  0  0  0  0  0  0  # atno 6068 bound_to 957 

>  <STRIFE_LigEff_Score>  (159) 
2.9030588235294115

$$$$
unknown|pharmsElabsTestPreDocking|sdf|160|dock7
     RDKit          3D

 18 19  0  0  0  0  0  0  0  0999 V2000
   14.5261    7.1301    2.9995 C   0  0  0  0  0  0  0  0  0  0  0  0
   13.1504    7.3806    2.3842 C   0  0  0  0  0  0  0  0  0  0  0  0
   13.1903    8.4058    1.3394 N   0  0  0  0  0  0  0  0  0  0  0  0
   11.9375    7.5478    3.3327 C   0  0  0  0  0  0  0  0  0  0  0  0
   10.6052    7.0976    2.7156 C   0  0  0  0  0  0  0  0  0  0  0  0
    9.3415    7.6330    3.3688 C   0  0  0  0  0  0  0  0  0  0  0  0
    9.4577    9.0851    3.7573 C   0  0  0  0  0  0  0  0  0  0  0  0
    8.1480    9.7290    4.1065 C   0  0  0  0  0  0  0  0  0  0  0  0
    7.6269   10.4002    3.1839 O   0  0  0  0  0  0  0  0  0  0  0  0
    7.4764    9.6442    5.3749 N   0  0  0  0  0  0  0  0  0  0  0  0
    6.2365   10.3981    5.6115 C   0  0  0  0  0  0  0  0  0  0  0  0
    5.1204    9.8596    4.7644 C   0  0  0  0  0  0  0  0  0  0  0  0
    3.8940    9.3983    5.1950 C   0  0  0  0  0  0  0  0  0  0  0  0
    3.1530    9.0572    4.1212 N   0  0  0  0  0  0  0  0  0  0  0  0
    3.9501    9.3235    3.0637 C   0  0  0  0  0  0  0  0  0  0  0  0
    5.1494    9.8153    3.4244 N   0  0  0  0  0  0  0  0  0  0  0  0
   10.6510    9.4604    4.5917 C   0  0  0  0  0  0  0  0  0  0  0  0
   11.9597    8.9532    3.9902 C   0  0  0  0  0  0  0  0  0  0  0  0
  1  2  1  0
  2  3  1  0
  2  4  1  0
  4  5  1  0
  5  6  1  0
  6  7  1  0
  7  8  1  0
  8  9  2  0
  8 10  1  0
 10 11  1  0
 11 12  1  0
 12 13  2  0
 13 14  1  0
 14 15  2  0
 15 16  1  0
  7 17  1  0
 17 18  1  0
 18  4  1  0
 16 12  1  0
M  CHG  1   3   1
M  END
>  <EmbedRMS>  (160) 
0.29359866989900446

>  <Gold.Version>  (160) 
2020.3.0

>  <Gold.Id.Protein>  (160) 
unknown|1q8t_protein|pdb

>  <Gold.PLP.Fitness>  (160) 
52.6055

>  <Gold.PLP.PLP>  (160) 
-41.8286

>  <Gold.PLP.part.hbond>  (160) 
-2.0000

>  <Gold.PLP.part.metal>  (160) 
0.0000

>  <Gold.PLP.part.buried>  (160) 
-2.8229

>  <Gold.PLP.part.nonpolar>  (160) 
-38.5497

>  <Gold.PLP.part.repulsive>  (160) 
0.1368

>  <Gold.PLP.ligand.clash>  (160) 
0.0000

>  <Gold.PLP.ligand.torsion>  (160) 
0.6446

>  <Gold.PLP.Chemscore.Hbond>  (160) 
2.8512

>  <Gold.PLP.Chemscore.CHOScore>  (160) 
0.9685

>  <Gold.PLP.Chemscore.Metal>  (160) 
0.0000

>  <Gold.Chemscore.Hbonds>  (160) 
donor molecule, donor type, donor heavy atom, donor atom, acceptor molecule, acceptor atom, score
      L1  H     3    23       P1  2902  2.00
      P1  H  1888  1903       L1    14  0.85
      L1  C    13    35       P1  1891  0.97

>  <Gold.PLP.Chemscore.Internal.Correction>  (160) 
0.6068

>  <Gold.PLP.Constraint>  (160) 
-0.0000

>  <Gold.Protein.RotatedTorsions>  (160) 
[  681  677  676  673 ] final  -48.66 input -179.99 | X-H torsion
[  702  698  697  694 ] final    2.26 input  179.99 | X-H torsion
[ 2577 2569 2568 2566 ] final   15.48 input   -0.13 | X-H torsion
[ 2891 2887 2886 2883 ] final  -41.05 input  179.98 | X-H torsion
[ 3175 3171 3170 3167 ] final   65.85 input -179.99 | X-H torsion
[ 5278 5270 5269 5267 ] final  101.21 input    0.55 | X-H torsion
[  641  637  636  633 ] final  128.41 input  179.99 | X-H torsion
[ 1886 1878 1877 1875 ] final   31.48 input    1.60 | X-H torsion
[  965  957  956  954 ] final -178.62 input    0.45 | X-H torsion

>  <Gold.Protein.ActiveResidues>  (160) 
 LYS47   THR48   LEU49   GLY50   THR51   GLY52   SER53   PHE54   GLY55   ARG56  
 VAL57   MET58   LEU59   TYR69   ALA70   MET71   LYS72   ILE73   LEU74   GLU91  
 LEU95   VAL104  LYS105  MET118  VAL119  MET120  GLU121  TYR122  VAL123  PRO124 
 GLY125  GLY126  GLU127  MET128  PHE129  TYR164  ASP166  LEU167  LYS168  PRO169 
 GLU170  ASN171  LEU172  LEU173  ILE174  GLN181  VAL182  THR183  ASP184  PHE185 
 GLY186  PHE187  GLY200  THR201  ASN326  PHE327  TYR330  ARG18   ARG19   ASN20  
 ALA21   ILE22   HIS23  

>  <Gold.Protein.RotatedAtoms>  (160) 
   10.9029   19.6845    8.7731 H   0  0  0  0  0  0  0  0  0  0  0  0  # atno 641  bound_to 637 
   15.6131   13.0421    7.0157 H   0  0  0  0  0  0  0  0  0  0  0  0  # atno 681  bound_to 677 
   19.4768   11.8292   -0.6700 H   0  0  0  0  0  0  0  0  0  0  0  0  # atno 702  bound_to 698 
   -6.8841   17.1399   -0.6023 H   0  0  0  0  0  0  0  0  0  0  0  0  # atno 965  bound_to 957 
    2.2022   11.7903   10.4103 H   0  0  0  0  0  0  0  0  0  0  0  0  # atno 1886 bound_to 1878
    9.5645    3.1491   -3.3011 H   0  0  0  0  0  0  0  0  0  0  0  0  # atno 2577 bound_to 2569
    7.6780    5.1804    0.7670 H   0  0  0  0  0  0  0  0  0  0  0  0  # atno 2891 bound_to 2887
   18.3581    2.1687   -1.3044 H   0  0  0  0  0  0  0  0  0  0  0  0  # atno 3175 bound_to 3171
   13.4733   10.2391    8.7458 H   0  0  0  0  0  0  0  0  0  0  0  0  # atno 5278 bound_to 5270
   16.8963   13.9727    7.1689 LP  0  0  0  0  0  0  0  0  0  0  0  0  # atno 5914 bound_to 677 
   16.8446   12.7977    6.0360 LP  0  0  0  0  0  0  0  0  0  0  0  0  # atno 5915 bound_to 677 
   21.0423   11.5350   -0.6821 LP  0  0  0  0  0  0  0  0  0  0  0  0  # atno 5920 bound_to 698 
   20.2125   11.7091   -2.0777 LP  0  0  0  0  0  0  0  0  0  0  0  0  # atno 5921 bound_to 698 
   11.0927    2.8549   -2.9645 LP  0  0  0  0  0  0  0  0  0  0  0  0  # atno 5950 bound_to 2569
    9.9072    1.8936   -2.3839 LP  0  0  0  0  0  0  0  0  0  0  0  0  # atno 5951 bound_to 2569
    7.2588    6.4786    1.5890 LP  0  0  0  0  0  0  0  0  0  0  0  0  # atno 5982 bound_to 2887
    8.3354    6.5742    0.3649 LP  0  0  0  0  0  0  0  0  0  0  0  0  # atno 5983 bound_to 2887
   19.3883    3.0613   -0.4812 LP  0  0  0  0  0  0  0  0  0  0  0  0  # atno 6000 bound_to 3171
   18.1797    2.2651    0.2750 LP  0  0  0  0  0  0  0  0  0  0  0  0  # atno 6001 bound_to 3171
   12.7455    9.8766   10.1154 LP  0  0  0  0  0  0  0  0  0  0  0  0  # atno 6004 bound_to 5270
   14.3751    9.9174   10.0186 LP  0  0  0  0  0  0  0  0  0  0  0  0  # atno 6005 bound_to 5270
    9.5280   19.3970    8.0233 LP  0  0  0  0  0  0  0  0  0  0  0  0  # atno 6055 bound_to 637 
   10.9539   18.9733    7.3495 LP  0  0  0  0  0  0  0  0  0  0  0  0  # atno 6056 bound_to 637 
    1.2938   10.4978   10.6094 LP  0  0  0  0  0  0  0  0  0  0  0  0  # atno 6063 bound_to 1878
    0.7733   11.9692   11.0898 LP  0  0  0  0  0  0  0  0  0  0  0  0  # atno 6064 bound_to 1878
   -7.1095   15.6219   -0.1781 LP  0  0  0  0  0  0  0  0  0  0  0  0  # atno 6067 bound_to 957 
   -6.4483   15.9983   -1.6231 LP  0  0  0  0  0  0  0  0  0  0  0  0  # atno 6068 bound_to 957 

>  <STRIFE_LigEff_Score>  (160) 
2.922527777777778

$$$$
unknown|pharmsElabsTestPreDocking|sdf|161|dock4
     RDKit          3D

 18 19  0  0  0  0  0  0  0  0999 V2000
   14.4209    9.5487    1.0964 C   0  0  0  0  0  0  0  0  0  0  0  0
   13.6788    8.2994    1.5403 C   0  0  0  0  0  0  0  0  0  0  0  0
   14.0291    7.0869    0.8087 N   0  0  0  0  0  0  0  0  0  0  0  0
   12.1881    8.4754    1.9624 C   0  0  0  0  0  0  0  0  0  0  0  0
   11.5241    7.3280    2.7398 C   0  0  0  0  0  0  0  0  0  0  0  0
    9.9902    7.4754    2.7437 C   0  0  0  0  0  0  0  0  0  0  0  0
    9.4968    8.9151    2.5796 C   0  0  0  0  0  0  0  0  0  0  0  0
    8.0168    9.0860    2.7272 C   0  0  0  0  0  0  0  0  0  0  0  0
    7.4445    9.3888    1.6576 O   0  0  0  0  0  0  0  0  0  0  0  0
    7.2542    8.9295    3.9464 N   0  0  0  0  0  0  0  0  0  0  0  0
    5.8322    9.2288    4.0749 C   0  0  0  0  0  0  0  0  0  0  0  0
    4.9605    8.8996    3.0190 C   0  0  0  0  0  0  0  0  0  0  0  0
    3.5861    9.1616    3.1142 C   0  0  0  0  0  0  0  0  0  0  0  0
    3.0602    9.7640    4.2578 C   0  0  0  0  0  0  0  0  0  0  0  0
    3.9001   10.0961    5.3126 C   0  0  0  0  0  0  0  0  0  0  0  0
    5.2619    9.8228    5.2346 C   0  0  0  0  0  0  0  0  0  0  0  0
   10.3965   10.0907    2.9112 C   0  0  0  0  0  0  0  0  0  0  0  0
   11.8964    9.8178    2.6674 C   0  0  0  0  0  0  0  0  0  0  0  0
  1  2  1  0
  2  3  1  0
  2  4  1  0
  4  5  1  0
  5  6  1  0
  6  7  1  0
  7  8  1  0
  8  9  2  0
  8 10  1  0
 10 11  1  0
 11 12  2  0
 12 13  1  0
 13 14  2  0
 14 15  1  0
 15 16  2  0
  7 17  1  0
 17 18  1  0
 18  4  1  0
 16 11  1  0
M  CHG  1   3   1
M  END
>  <EmbedRMS>  (161) 
0.24964892458419108

>  <Gold.Version>  (161) 
2020.3.0

>  <Gold.Id.Protein>  (161) 
unknown|1q8t_protein|pdb

>  <Gold.PLP.Fitness>  (161) 
56.1298

>  <Gold.PLP.PLP>  (161) 
-48.1075

>  <Gold.PLP.part.hbond>  (161) 
-2.0000

>  <Gold.PLP.part.metal>  (161) 
0.0000

>  <Gold.PLP.part.buried>  (161) 
-1.4443

>  <Gold.PLP.part.nonpolar>  (161) 
-44.8905

>  <Gold.PLP.part.repulsive>  (161) 
0.0699

>  <Gold.PLP.ligand.clash>  (161) 
0.0000

>  <Gold.PLP.ligand.torsion>  (161) 
0.9204

>  <Gold.PLP.Chemscore.Hbond>  (161) 
2.9760

>  <Gold.PLP.Chemscore.CHOScore>  (161) 
0.0000

>  <Gold.PLP.Chemscore.Metal>  (161) 
0.0000

>  <Gold.Chemscore.Hbonds>  (161) 
donor molecule, donor type, donor heavy atom, donor atom, acceptor molecule, acceptor atom, score
      L1  H     3    23       P1  2691  0.98
      L1  H     3    25       P1  2902  2.00

>  <Gold.PLP.Chemscore.Internal.Correction>  (161) 
0.9351

>  <Gold.PLP.Constraint>  (161) 
-0.0000

>  <Gold.Protein.RotatedTorsions>  (161) 
[  681  677  676  673 ] final -128.27 input -179.99 | X-H torsion
[  702  698  697  694 ] final   90.34 input  179.99 | X-H torsion
[ 2577 2569 2568 2566 ] final  159.96 input   -0.13 | X-H torsion
[ 2891 2887 2886 2883 ] final   35.68 input  179.98 | X-H torsion
[ 3175 3171 3170 3167 ] final  176.48 input -179.99 | X-H torsion
[ 5278 5270 5269 5267 ] final  -70.71 input    0.55 | X-H torsion
[  641  637  636  633 ] final  -92.43 input  179.99 | X-H torsion
[ 1886 1878 1877 1875 ] final  143.49 input    1.60 | X-H torsion
[  965  957  956  954 ] final -126.79 input    0.45 | X-H torsion

>  <Gold.Protein.ActiveResidues>  (161) 
 LYS47   THR48   LEU49   GLY50   THR51   GLY52   SER53   PHE54   GLY55   ARG56  
 VAL57   MET58   LEU59   TYR69   ALA70   MET71   LYS72   ILE73   LEU74   GLU91  
 LEU95   VAL104  LYS105  MET118  VAL119  MET120  GLU121  TYR122  VAL123  PRO124 
 GLY125  GLY126  GLU127  MET128  PHE129  TYR164  ASP166  LEU167  LYS168  PRO169 
 GLU170  ASN171  LEU172  LEU173  ILE174  GLN181  VAL182  THR183  ASP184  PHE185 
 GLY186  PHE187  GLY200  THR201  ASN326  PHE327  TYR330  ARG18   ARG19   ASN20  
 ALA21   ILE22   HIS23  

>  <Gold.Protein.RotatedAtoms>  (161) 
   10.6515   18.9411    7.2897 H   0  0  0  0  0  0  0  0  0  0  0  0  # atno 641  bound_to 637 
   16.3126   13.8661    7.3992 H   0  0  0  0  0  0  0  0  0  0  0  0  # atno 681  bound_to 677 
   19.7521   11.8038   -1.8849 H   0  0  0  0  0  0  0  0  0  0  0  0  # atno 702  bound_to 698 
   -6.5690   16.9694   -1.2981 H   0  0  0  0  0  0  0  0  0  0  0  0  # atno 965  bound_to 957 
    0.8789   12.0393   11.0362 H   0  0  0  0  0  0  0  0  0  0  0  0  # atno 1886 bound_to 1878
   10.2996    1.9108   -2.3874 H   0  0  0  0  0  0  0  0  0  0  0  0  # atno 2577 bound_to 2569
    8.3068    5.9124    0.2140 H   0  0  0  0  0  0  0  0  0  0  0  0  # atno 2891 bound_to 2887
   18.1242    2.1858    0.1498 H   0  0  0  0  0  0  0  0  0  0  0  0  # atno 3175 bound_to 3171
   13.4608    9.8109   10.4813 H   0  0  0  0  0  0  0  0  0  0  0  0  # atno 5278 bound_to 5270
   17.2417   13.2654    6.2538 LP  0  0  0  0  0  0  0  0  0  0  0  0  # atno 5914 bound_to 677 
   15.7630   12.6377    6.5475 LP  0  0  0  0  0  0  0  0  0  0  0  0  # atno 5915 bound_to 677 
   19.8083   11.7463   -0.2940 LP  0  0  0  0  0  0  0  0  0  0  0  0  # atno 5920 bound_to 698 
   21.1569   11.5245   -1.1878 LP  0  0  0  0  0  0  0  0  0  0  0  0  # atno 5921 bound_to 698 
    9.3055    2.9072   -3.1318 LP  0  0  0  0  0  0  0  0  0  0  0  0  # atno 5950 bound_to 2569
   10.9204    3.1452   -3.1787 LP  0  0  0  0  0  0  0  0  0  0  0  0  # atno 5951 bound_to 2569
    7.2806    5.3465    1.2925 LP  0  0  0  0  0  0  0  0  0  0  0  0  # atno 5982 bound_to 2887
    7.6518    6.9360    1.2434 LP  0  0  0  0  0  0  0  0  0  0  0  0  # atno 5983 bound_to 2887
   18.4504    2.2453   -1.4076 LP  0  0  0  0  0  0  0  0  0  0  0  0  # atno 6000 bound_to 3171
   19.3638    3.0631   -0.3290 LP  0  0  0  0  0  0  0  0  0  0  0  0  # atno 6001 bound_to 3171
   14.3809   10.1151    9.2173 LP  0  0  0  0  0  0  0  0  0  0  0  0  # atno 6004 bound_to 5270
   12.7529   10.1294    9.0906 LP  0  0  0  0  0  0  0  0  0  0  0  0  # atno 6005 bound_to 5270
   11.1716   19.6171    8.6342 LP  0  0  0  0  0  0  0  0  0  0  0  0  # atno 6055 bound_to 637 
    9.5750   19.5361    8.3008 LP  0  0  0  0  0  0  0  0  0  0  0  0  # atno 6056 bound_to 637 
    2.2836   11.6850   10.3755 LP  0  0  0  0  0  0  0  0  0  0  0  0  # atno 6063 bound_to 1878
    1.1766   10.5199   10.6648 LP  0  0  0  0  0  0  0  0  0  0  0  0  # atno 6064 bound_to 1878
   -7.2055   16.4082    0.0492 LP  0  0  0  0  0  0  0  0  0  0  0  0  # atno 6067 bound_to 957 
   -6.6841   15.3917   -1.1176 LP  0  0  0  0  0  0  0  0  0  0  0  0  # atno 6068 bound_to 957 

>  <STRIFE_LigEff_Score>  (161) 
3.1183222222222224

$$$$
unknown|pharmsElabsTestPreDocking|sdf|162|dock5
     RDKit          3D

 17 18  0  0  0  0  0  0  0  0999 V2000
   14.5637    8.2114    2.8067 C   0  0  0  0  0  0  0  0  0  0  0  0
   13.2269    7.9698    2.1074 C   0  0  0  0  0  0  0  0  0  0  0  0
   13.0668    8.8068    0.9166 N   0  0  0  0  0  0  0  0  0  0  0  0
   11.9425    7.9159    2.9707 C   0  0  0  0  0  0  0  0  0  0  0  0
   10.8065    7.1017    2.3346 C   0  0  0  0  0  0  0  0  0  0  0  0
    9.4077    7.3639    2.8666 C   0  0  0  0  0  0  0  0  0  0  0  0
    9.1463    8.8274    3.1184 C   0  0  0  0  0  0  0  0  0  0  0  0
    7.6975    9.1624    3.3134 C   0  0  0  0  0  0  0  0  0  0  0  0
    7.4815    9.9133    4.2912 O   0  0  0  0  0  0  0  0  0  0  0  0
    6.5939    8.7062    2.5016 N   0  0  0  0  0  0  0  0  0  0  0  0
    5.2117    8.9886    2.8394 C   0  0  0  0  0  0  0  0  0  0  0  0
    4.6912    9.3592    4.0784 C   0  0  0  0  0  0  0  0  0  0  0  0
    3.3341    9.4989    3.8989 C   0  0  0  0  0  0  0  0  0  0  0  0
    3.0051    9.2302    2.6230 N   0  0  0  0  0  0  0  0  0  0  0  0
    4.1408    8.9175    1.9691 C   0  0  0  0  0  0  0  0  0  0  0  0
   10.1481    9.5558    3.9675 C   0  0  0  0  0  0  0  0  0  0  0  0
   11.5800    9.3352    3.4839 C   0  0  0  0  0  0  0  0  0  0  0  0
  1  2  1  0
  2  3  1  0
  2  4  1  0
  4  5  1  0
  5  6  1  0
  6  7  1  0
  7  8  1  0
  8  9  2  0
  8 10  1  0
 10 11  1  0
 11 12  1  0
 12 13  2  0
 13 14  1  0
 14 15  1  0
  7 16  1  0
 16 17  1  0
 17  4  1  0
 15 11  2  0
M  CHG  1   3   1
M  END
>  <EmbedRMS>  (162) 
0.3005329260886256

>  <Gold.Version>  (162) 
2020.3.0

>  <Gold.Id.Protein>  (162) 
unknown|1q8t_protein|pdb

>  <Gold.PLP.Fitness>  (162) 
49.3186

>  <Gold.PLP.PLP>  (162) 
-40.4463

>  <Gold.PLP.part.hbond>  (162) 
-2.3602

>  <Gold.PLP.part.metal>  (162) 
0.0000

>  <Gold.PLP.part.buried>  (162) 
-3.6833

>  <Gold.PLP.part.nonpolar>  (162) 
-34.0593

>  <Gold.PLP.part.repulsive>  (162) 
0.1063

>  <Gold.PLP.ligand.clash>  (162) 
0.0000

>  <Gold.PLP.ligand.torsion>  (162) 
0.5185

>  <Gold.PLP.Chemscore.Hbond>  (162) 
3.0967

>  <Gold.PLP.Chemscore.CHOScore>  (162) 
0.0000

>  <Gold.PLP.Chemscore.Metal>  (162) 
0.0000

>  <Gold.Chemscore.Hbonds>  (162) 
donor molecule, donor type, donor heavy atom, donor atom, acceptor molecule, acceptor atom, score
      L1  H     3    22       P1  2902  2.00
      L1  H    10    31       P1  2887  0.10
      L1  H    14    34       P1  1855  1.00

>  <Gold.PLP.Chemscore.Internal.Correction>  (162) 
0.6191

>  <Gold.PLP.Constraint>  (162) 
-0.0000

>  <Gold.Protein.RotatedTorsions>  (162) 
[  681  677  676  673 ] final -144.57 input -179.99 | X-H torsion
[  702  698  697  694 ] final -131.18 input  179.99 | X-H torsion
[ 2577 2569 2568 2566 ] final   52.18 input   -0.13 | X-H torsion
[ 2891 2887 2886 2883 ] final   38.81 input  179.98 | X-H torsion
[ 3175 3171 3170 3167 ] final   92.58 input -179.99 | X-H torsion
[ 5278 5270 5269 5267 ] final  -70.65 input    0.55 | X-H torsion
[  641  637  636  633 ] final   39.09 input  179.99 | X-H torsion
[ 1886 1878 1877 1875 ] final   27.84 input    1.60 | X-H torsion
[  965  957  956  954 ] final -117.29 input    0.45 | X-H torsion

>  <Gold.Protein.ActiveResidues>  (162) 
 LYS47   THR48   LEU49   GLY50   THR51   GLY52   SER53   PHE54   GLY55   ARG56  
 VAL57   MET58   LEU59   TYR69   ALA70   MET71   LYS72   ILE73   LEU74   GLU91  
 LEU95   VAL104  LYS105  MET118  VAL119  MET120  GLU121  TYR122  VAL123  PRO124 
 GLY125  GLY126  GLU127  MET128  PHE129  TYR164  ASP166  LEU167  LYS168  PRO169 
 GLU170  ASN171  LEU172  LEU173  ILE174  GLN181  VAL182  THR183  ASP184  PHE185 
 GLY186  PHE187  GLY200  THR201  ASN326  PHE327  TYR330  ARG18   ARG19   ASN20  
 ALA21   ILE22   HIS23  

>  <Gold.Protein.RotatedAtoms>  (162) 
    9.6922   19.5841    8.4440 H   0  0  0  0  0  0  0  0  0  0  0  0  # atno 641  bound_to 637 
   16.5450   13.9389    7.3274 H   0  0  0  0  0  0  0  0  0  0  0  0  # atno 681  bound_to 677 
   21.0832   11.5488   -0.8986 H   0  0  0  0  0  0  0  0  0  0  0  0  # atno 702  bound_to 698 
   -6.5251   16.8678   -1.3967 H   0  0  0  0  0  0  0  0  0  0  0  0  # atno 965  bound_to 957 
    2.2188   11.7383   10.3942 H   0  0  0  0  0  0  0  0  0  0  0  0  # atno 1886 bound_to 1878
    9.2976    2.7323   -3.0313 H   0  0  0  0  0  0  0  0  0  0  0  0  # atno 2577 bound_to 2569
    8.3171    5.9601    0.2135 H   0  0  0  0  0  0  0  0  0  0  0  0  # atno 2891 bound_to 2887
   18.0905    2.0059   -1.0336 H   0  0  0  0  0  0  0  0  0  0  0  0  # atno 3175 bound_to 3171
   13.4599    9.8109   10.4813 H   0  0  0  0  0  0  0  0  0  0  0  0  # atno 5278 bound_to 5270
   17.1203   13.0630    6.1283 LP  0  0  0  0  0  0  0  0  0  0  0  0  # atno 5914 bound_to 677 
   15.6397   12.7635    6.7486 LP  0  0  0  0  0  0  0  0  0  0  0  0  # atno 5915 bound_to 677 
   19.9972   11.7466   -2.0471 LP  0  0  0  0  0  0  0  0  0  0  0  0  # atno 5920 bound_to 698 
   19.5678   11.7924   -0.4722 LP  0  0  0  0  0  0  0  0  0  0  0  0  # atno 5921 bound_to 698 
   10.7815    3.2591   -3.2680 LP  0  0  0  0  0  0  0  0  0  0  0  0  # atno 5950 bound_to 2569
   10.4994    1.9283   -2.3646 LP  0  0  0  0  0  0  0  0  0  0  0  0  # atno 5951 bound_to 2569
    7.3032    5.3150    1.2587 LP  0  0  0  0  0  0  0  0  0  0  0  0  # atno 5982 bound_to 2887
    7.6183    6.9172    1.2776 LP  0  0  0  0  0  0  0  0  0  0  0  0  # atno 5983 bound_to 2887
   19.3474    2.9753   -0.9065 LP  0  0  0  0  0  0  0  0  0  0  0  0  # atno 6000 bound_to 3171
   18.5022    2.5224    0.4153 LP  0  0  0  0  0  0  0  0  0  0  0  0  # atno 6001 bound_to 3171
   14.3813   10.1149    9.2182 LP  0  0  0  0  0  0  0  0  0  0  0  0  # atno 6004 bound_to 5270
   12.7534   10.1296    9.0898 LP  0  0  0  0  0  0  0  0  0  0  0  0  # atno 6005 bound_to 5270
   10.4741   18.9335    7.2190 LP  0  0  0  0  0  0  0  0  0  0  0  0  # atno 6055 bound_to 637 
   11.2828   19.5426    8.5003 LP  0  0  0  0  0  0  0  0  0  0  0  0  # atno 6056 bound_to 637 
    1.2399   10.5056   10.6344 LP  0  0  0  0  0  0  0  0  0  0  0  0  # atno 6063 bound_to 1878
    0.8097   12.0161   11.0817 LP  0  0  0  0  0  0  0  0  0  0  0  0  # atno 6064 bound_to 1878
   -7.1894   16.5602    0.0172 LP  0  0  0  0  0  0  0  0  0  0  0  0  # atno 6067 bound_to 957 
   -6.7464   15.3467   -0.9817 LP  0  0  0  0  0  0  0  0  0  0  0  0  # atno 6068 bound_to 957 

>  <STRIFE_LigEff_Score>  (162) 
2.901094117647059

$$$$
unknown|pharmsElabsTestPreDocking|sdf|163|dock10
     RDKit          3D

 18 19  0  0  0  0  0  0  0  0999 V2000
   14.4804    7.2641    2.7367 C   0  0  0  0  0  0  0  0  0  0  0  0
   13.0852    7.4050    2.1304 C   0  0  0  0  0  0  0  0  0  0  0  0
   13.0505    8.3871    1.0449 N   0  0  0  0  0  0  0  0  0  0  0  0
   11.8749    7.5367    3.0879 C   0  0  0  0  0  0  0  0  0  0  0  0
   10.5381    7.1276    2.4521 C   0  0  0  0  0  0  0  0  0  0  0  0
    9.2797    7.6416    3.1321 C   0  0  0  0  0  0  0  0  0  0  0  0
    9.4085    9.0724    3.5894 C   0  0  0  0  0  0  0  0  0  0  0  0
    8.1047    9.7098    3.9710 C   0  0  0  0  0  0  0  0  0  0  0  0
    7.5445   10.3564    3.0539 O   0  0  0  0  0  0  0  0  0  0  0  0
    7.4785    9.6441    5.2636 N   0  0  0  0  0  0  0  0  0  0  0  0
    6.2393   10.3897    5.5280 C   0  0  0  0  0  0  0  0  0  0  0  0
    5.1106    9.8514    4.6976 C   0  0  0  0  0  0  0  0  0  0  0  0
    3.9035    9.3598    5.1487 C   0  0  0  0  0  0  0  0  0  0  0  0
    3.1407    9.0302    4.0866 N   0  0  0  0  0  0  0  0  0  0  0  0
    3.9058    9.3334    3.0155 C   0  0  0  0  0  0  0  0  0  0  0  0
    5.1058    9.8374    3.3566 N   0  0  0  0  0  0  0  0  0  0  0  0
   10.6059    9.3976    4.4389 C   0  0  0  0  0  0  0  0  0  0  0  0
   11.9096    8.9088    3.8117 C   0  0  0  0  0  0  0  0  0  0  0  0
  1  2  1  0
  2  3  1  0
  2  4  1  0
  4  5  1  0
  5  6  1  0
  6  7  1  0
  7  8  1  0
  8  9  2  0
  8 10  1  0
 10 11  1  0
 11 12  1  0
 12 13  2  0
 13 14  1  0
 14 15  2  0
 15 16  1  0
  7 17  1  0
 17 18  1  0
 18  4  1  0
 16 12  1  0
M  CHG  1   3   1
M  END
>  <EmbedRMS>  (163) 
0.29359866989900446

>  <Gold.Version>  (163) 
2020.3.0

>  <Gold.Id.Protein>  (163) 
unknown|1q8t_protein|pdb

>  <Gold.PLP.Fitness>  (163) 
52.9593

>  <Gold.PLP.PLP>  (163) 
-41.9993

>  <Gold.PLP.part.hbond>  (163) 
-2.0000

>  <Gold.PLP.part.metal>  (163) 
0.0000

>  <Gold.PLP.part.buried>  (163) 
-3.5234

>  <Gold.PLP.part.nonpolar>  (163) 
-37.9618

>  <Gold.PLP.part.repulsive>  (163) 
0.1371

>  <Gold.PLP.ligand.clash>  (163) 
0.0000

>  <Gold.PLP.ligand.torsion>  (163) 
0.5748

>  <Gold.PLP.Chemscore.Hbond>  (163) 
2.8360

>  <Gold.PLP.Chemscore.CHOScore>  (163) 
0.9996

>  <Gold.PLP.Chemscore.Metal>  (163) 
0.0000

>  <Gold.Chemscore.Hbonds>  (163) 
donor molecule, donor type, donor heavy atom, donor atom, acceptor molecule, acceptor atom, score
      L1  H     3    23       P1  2902  2.00
      P1  H  1888  1903       L1    14  0.84
      L1  C    13    35       P1  1891  1.00

>  <Gold.PLP.Chemscore.Internal.Correction>  (163) 
0.6026

>  <Gold.PLP.Constraint>  (163) 
-0.0000

>  <Gold.Protein.RotatedTorsions>  (163) 
[  681  677  676  673 ] final  -13.72 input -179.99 | X-H torsion
[  702  698  697  694 ] final  168.24 input  179.99 | X-H torsion
[ 2577 2569 2568 2566 ] final   22.78 input   -0.13 | X-H torsion
[ 2891 2887 2886 2883 ] final  136.65 input  179.98 | X-H torsion
[ 3175 3171 3170 3167 ] final -161.88 input -179.99 | X-H torsion
[ 5278 5270 5269 5267 ] final  -52.80 input    0.55 | X-H torsion
[  641  637  636  633 ] final   -5.68 input  179.99 | X-H torsion
[ 1886 1878 1877 1875 ] final  -69.09 input    1.60 | X-H torsion
[  965  957  956  954 ] final   92.05 input    0.45 | X-H torsion

>  <Gold.Protein.ActiveResidues>  (163) 
 LYS47   THR48   LEU49   GLY50   THR51   GLY52   SER53   PHE54   GLY55   ARG56  
 VAL57   MET58   LEU59   TYR69   ALA70   MET71   LYS72   ILE73   LEU74   GLU91  
 LEU95   VAL104  LYS105  MET118  VAL119  MET120  GLU121  TYR122  VAL123  PRO124 
 GLY125  GLY126  GLU127  MET128  PHE129  TYR164  ASP166  LEU167  LYS168  PRO169 
 GLU170  ASN171  LEU172  LEU173  ILE174  GLN181  VAL182  THR183  ASP184  PHE185 
 GLY186  PHE187  GLY200  THR201  ASN326  PHE327  TYR330  ARG18   ARG19   ASN20  
 ALA21   ILE22   HIS23  

>  <Gold.Protein.RotatedAtoms>  (163) 
    9.6052   19.2803    7.8396 H   0  0  0  0  0  0  0  0  0  0  0  0  # atno 641  bound_to 637 
   15.7446   12.7147    6.6096 H   0  0  0  0  0  0  0  0  0  0  0  0  # atno 681  bound_to 677 
   20.8558   11.6060   -1.7718 H   0  0  0  0  0  0  0  0  0  0  0  0  # atno 702  bound_to 698 
   -7.1689   16.0726    0.0011 H   0  0  0  0  0  0  0  0  0  0  0  0  # atno 965  bound_to 957 
    1.5713   10.5674   10.4799 H   0  0  0  0  0  0  0  0  0  0  0  0  # atno 1886 bound_to 1878
    9.4869    3.0780   -3.2574 H   0  0  0  0  0  0  0  0  0  0  0  0  # atno 2577 bound_to 2569
    7.8415    6.9489    1.0012 H   0  0  0  0  0  0  0  0  0  0  0  0  # atno 2891 bound_to 2887
   18.3455    2.3722    0.3211 H   0  0  0  0  0  0  0  0  0  0  0  0  # atno 3175 bound_to 3171
   13.1896    9.8237   10.4180 H   0  0  0  0  0  0  0  0  0  0  0  0  # atno 5278 bound_to 5270
   16.3946   13.9180    7.4255 LP  0  0  0  0  0  0  0  0  0  0  0  0  # atno 5914 bound_to 677 
   17.2079   13.1969    6.2068 LP  0  0  0  0  0  0  0  0  0  0  0  0  # atno 5915 bound_to 677 
   19.3327   11.8515   -1.3748 LP  0  0  0  0  0  0  0  0  0  0  0  0  # atno 5920 bound_to 698 
   20.4715   11.6274   -0.2260 LP  0  0  0  0  0  0  0  0  0  0  0  0  # atno 5921 bound_to 698 
   11.0577    2.9480   -3.0317 LP  0  0  0  0  0  0  0  0  0  0  0  0  # atno 5950 bound_to 2569
   10.0239    1.8754   -2.3627 LP  0  0  0  0  0  0  0  0  0  0  0  0  # atno 5951 bound_to 2569
    8.2463    5.6113    0.2373 LP  0  0  0  0  0  0  0  0  0  0  0  0  # atno 5982 bound_to 2887
    7.1757    5.5802    1.4700 LP  0  0  0  0  0  0  0  0  0  0  0  0  # atno 5983 bound_to 2887
   18.1914    2.0759   -1.2359 LP  0  0  0  0  0  0  0  0  0  0  0  0  # atno 6000 bound_to 3171
   19.3899    3.0363   -0.6809 LP  0  0  0  0  0  0  0  0  0  0  0  0  # atno 6001 bound_to 3171
   14.4647   10.0486    9.4905 LP  0  0  0  0  0  0  0  0  0  0  0  0  # atno 6004 bound_to 5270
   12.9544   10.1824    8.8841 LP  0  0  0  0  0  0  0  0  0  0  0  0  # atno 6005 bound_to 5270
   11.1360   19.0300    7.4805 LP  0  0  0  0  0  0  0  0  0  0  0  0  # atno 6055 bound_to 637 
   10.7126   19.7659    8.8754 LP  0  0  0  0  0  0  0  0  0  0  0  0  # atno 6056 bound_to 637 
    0.6276   11.6867   11.1058 LP  0  0  0  0  0  0  0  0  0  0  0  0  # atno 6063 bound_to 1878
    2.1036   12.0676   10.5201 LP  0  0  0  0  0  0  0  0  0  0  0  0  # atno 6064 bound_to 1878
   -6.5611   15.5756   -1.3840 LP  0  0  0  0  0  0  0  0  0  0  0  0  # atno 6067 bound_to 957 
   -6.6967   17.1688   -1.0527 LP  0  0  0  0  0  0  0  0  0  0  0  0  # atno 6068 bound_to 957 

>  <STRIFE_LigEff_Score>  (163) 
2.9421833333333334

$$$$
unknown|pharmsElabsTestPreDocking|sdf|164|dock1
     RDKit          3D

 19 20  0  0  0  0  0  0  0  0999 V2000
   14.5913    7.5528    2.7764 C   0  0  0  0  0  0  0  0  0  0  0  0
   13.2387    7.5578    2.0644 C   0  0  0  0  0  0  0  0  0  0  0  0
   13.1542    8.6667    1.1041 N   0  0  0  0  0  0  0  0  0  0  0  0
   11.9646    7.4308    2.9229 C   0  0  0  0  0  0  0  0  0  0  0  0
   10.6022    7.1414    2.2374 C   0  0  0  0  0  0  0  0  0  0  0  0
    9.5030    8.1604    2.5025 C   0  0  0  0  0  0  0  0  0  0  0  0
    9.4376    8.5438    3.9795 C   0  0  0  0  0  0  0  0  0  0  0  0
    8.2530    9.4351    4.2395 C   0  0  0  0  0  0  0  0  0  0  0  0
    7.9552   10.3504    3.4215 O   0  0  0  0  0  0  0  0  0  0  0  0
    7.4762    9.2485    5.4287 N   0  0  0  0  0  0  0  0  0  0  0  0
    6.3361   10.0941    5.7599 C   0  0  0  0  0  0  0  0  0  0  0  0
    5.1924    9.7825    4.8538 C   0  0  0  0  0  0  0  0  0  0  0  0
    3.8987    9.4664    5.2198 C   0  0  0  0  0  0  0  0  0  0  0  0
    3.1826    9.2071    4.1089 N   0  0  0  0  0  0  0  0  0  0  0  0
    3.9947    9.3356    3.0701 N   0  0  0  0  0  0  0  0  0  0  0  0
    3.5807    9.1548    1.6871 C   0  0  0  0  0  0  0  0  0  0  0  0
    5.2261    9.6861    3.4806 C   0  0  0  0  0  0  0  0  0  0  0  0
   10.7301    9.2541    4.3671 C   0  0  0  0  0  0  0  0  0  0  0  0
   11.9565    8.3640    4.1726 C   0  0  0  0  0  0  0  0  0  0  0  0
  1  2  1  0
  2  3  1  0
  2  4  1  0
  4  5  1  0
  5  6  1  0
  6  7  1  0
  7  8  1  0
  8  9  2  0
  8 10  1  0
 10 11  1  0
 11 12  1  0
 12 13  1  0
 13 14  2  0
 14 15  1  0
 15 16  1  0
 15 17  1  0
  7 18  1  0
 18 19  1  0
 19  4  1  0
 17 12  2  0
M  CHG  1   3   1
M  END
>  <EmbedRMS>  (164) 
0.19659211194601114

>  <Gold.Version>  (164) 
2020.3.0

>  <Gold.Id.Protein>  (164) 
unknown|1q8t_protein|pdb

>  <Gold.PLP.Fitness>  (164) 
60.1979

>  <Gold.PLP.PLP>  (164) 
-50.1852

>  <Gold.PLP.part.hbond>  (164) 
-2.0000

>  <Gold.PLP.part.metal>  (164) 
0.0000

>  <Gold.PLP.part.buried>  (164) 
-5.4381

>  <Gold.PLP.part.nonpolar>  (164) 
-44.4572

>  <Gold.PLP.part.repulsive>  (164) 
0.1340

>  <Gold.PLP.ligand.clash>  (164) 
0.0000

>  <Gold.PLP.ligand.torsion>  (164) 
0.9072

>  <Gold.PLP.Chemscore.Hbond>  (164) 
2.9272

>  <Gold.PLP.Chemscore.CHOScore>  (164) 
0.8698

>  <Gold.PLP.Chemscore.Metal>  (164) 
0.0000

>  <Gold.Chemscore.Hbonds>  (164) 
donor molecule, donor type, donor heavy atom, donor atom, acceptor molecule, acceptor atom, score
      L1  H     3    26       P1  2902  2.00
      P1  H  1888  1903       L1    14  0.93
      L1  C    13    36       P1  1891  0.87

>  <Gold.PLP.Chemscore.Internal.Correction>  (164) 
0.4362

>  <Gold.PLP.Constraint>  (164) 
-0.0000

>  <Gold.Protein.RotatedTorsions>  (164) 
[  681  677  676  673 ] final  166.99 input -179.99 | X-H torsion
[  702  698  697  694 ] final   53.76 input  179.99 | X-H torsion
[ 2577 2569 2568 2566 ] final  -67.90 input   -0.13 | X-H torsion
[ 2891 2887 2886 2883 ] final  -33.12 input  179.98 | X-H torsion
[ 3175 3171 3170 3167 ] final   47.38 input -179.99 | X-H torsion
[ 5278 5270 5269 5267 ] final  129.27 input    0.55 | X-H torsion
[  641  637  636  633 ] final   21.45 input  179.99 | X-H torsion
[ 1886 1878 1877 1875 ] final   11.79 input    1.60 | X-H torsion
[  965  957  956  954 ] final -146.11 input    0.45 | X-H torsion

>  <Gold.Protein.ActiveResidues>  (164) 
 LYS47   THR48   LEU49   GLY50   THR51   GLY52   SER53   PHE54   GLY55   ARG56  
 VAL57   MET58   LEU59   TYR69   ALA70   MET71   LYS72   ILE73   LEU74   GLU91  
 LEU95   VAL104  LYS105  MET118  VAL119  MET120  GLU121  TYR122  VAL123  PRO124 
 GLY125  GLY126  GLU127  MET128  PHE129  TYR164  ASP166  LEU167  LYS168  PRO169 
 GLU170  ASN171  LEU172  LEU173  ILE174  GLN181  VAL182  THR183  ASP184  PHE185 
 GLY186  PHE187  GLY200  THR201  ASN326  PHE327  TYR330  ARG18   ARG19   ASN20  
 ALA21   ILE22   HIS23  

>  <Gold.Protein.RotatedAtoms>  (164) 
    9.5944   19.4718    8.2133 H   0  0  0  0  0  0  0  0  0  0  0  0  # atno 641  bound_to 637 
   17.1149   13.8380    6.8743 H   0  0  0  0  0  0  0  0  0  0  0  0  # atno 681  bound_to 677 
   19.4057   11.8567   -1.4450 H   0  0  0  0  0  0  0  0  0  0  0  0  # atno 702  bound_to 698 
   -6.6769   17.1143   -1.0580 H   0  0  0  0  0  0  0  0  0  0  0  0  # atno 965  bound_to 957 
    2.2533   11.4971   10.3378 H   0  0  0  0  0  0  0  0  0  0  0  0  # atno 1886 bound_to 1878
   10.7530    3.2181   -3.2620 H   0  0  0  0  0  0  0  0  0  0  0  0  # atno 2577 bound_to 2569
    7.7602    5.1961    0.6756 H   0  0  0  0  0  0  0  0  0  0  0  0  # atno 2891 bound_to 2887
   18.5829    2.3232   -1.3952 H   0  0  0  0  0  0  0  0  0  0  0  0  # atno 3175 bound_to 3171
   13.9006   10.2246    8.8229 H   0  0  0  0  0  0  0  0  0  0  0  0  # atno 5278 bound_to 5270
   16.4944   12.6121    6.0690 LP  0  0  0  0  0  0  0  0  0  0  0  0  # atno 5914 bound_to 677 
   15.6658   13.3206    7.2848 LP  0  0  0  0  0  0  0  0  0  0  0  0  # atno 5915 bound_to 677 
   20.3841   11.6425   -0.2063 LP  0  0  0  0  0  0  0  0  0  0  0  0  # atno 5920 bound_to 698 
   20.9455   11.5726   -1.7382 LP  0  0  0  0  0  0  0  0  0  0  0  0  # atno 5921 bound_to 698 
   10.4983    1.9279   -2.3644 LP  0  0  0  0  0  0  0  0  0  0  0  0  # atno 5950 bound_to 2569
    9.2503    2.7479   -3.0252 LP  0  0  0  0  0  0  0  0  0  0  0  0  # atno 5951 bound_to 2569
    7.2119    6.3596    1.6148 LP  0  0  0  0  0  0  0  0  0  0  0  0  # atno 5982 bound_to 2887
    8.2958    6.6766    0.4353 LP  0  0  0  0  0  0  0  0  0  0  0  0  # atno 5983 bound_to 2887
   19.3214    3.0504   -0.1863 LP  0  0  0  0  0  0  0  0  0  0  0  0  # atno 6000 bound_to 3171
   18.0100    2.1133    0.0757 LP  0  0  0  0  0  0  0  0  0  0  0  0  # atno 6001 bound_to 3171
   12.5921    9.9782    9.6969 LP  0  0  0  0  0  0  0  0  0  0  0  0  # atno 6004 bound_to 5270
   14.0789    9.8311   10.3560 LP  0  0  0  0  0  0  0  0  0  0  0  0  # atno 6005 bound_to 5270
   10.7592   18.9417    7.2662 LP  0  0  0  0  0  0  0  0  0  0  0  0  # atno 6055 bound_to 637 
   11.1008   19.6527    8.6960 LP  0  0  0  0  0  0  0  0  0  0  0  0  # atno 6056 bound_to 637 
    1.0150   10.5836   10.7469 LP  0  0  0  0  0  0  0  0  0  0  0  0  # atno 6063 bound_to 1878
    0.9982   12.1920   11.0286 LP  0  0  0  0  0  0  0  0  0  0  0  0  # atno 6064 bound_to 1878
   -7.2053   16.0919    0.0422 LP  0  0  0  0  0  0  0  0  0  0  0  0  # atno 6067 bound_to 957 
   -6.5707   15.5553   -1.3635 LP  0  0  0  0  0  0  0  0  0  0  0  0  # atno 6068 bound_to 957 

>  <STRIFE_LigEff_Score>  (164) 
3.168310526315789

$$$$
unknown|pharmsElabsTestPreDocking|sdf|165|dock5
     RDKit          3D

 16 16  0  0  0  0  0  0  0  0999 V2000
    3.6168    9.7435    4.3370 C   0  0  0  0  0  0  0  0  0  0  0  0
    5.1304    9.6155    4.3311 C   0  0  0  0  0  0  0  0  0  0  0  0
    5.8107   10.1038    5.6002 C   0  0  0  0  0  0  0  0  0  0  0  0
    5.9244    9.9592    3.0646 C   0  0  0  0  0  0  0  0  0  0  0  0
    7.3729    9.9296    3.2171 N   0  0  0  0  0  0  0  0  0  0  0  0
    8.1927    9.1999    2.2951 C   0  0  0  0  0  0  0  0  0  0  0  0
    7.7538    8.9035    1.1476 O   0  0  0  0  0  0  0  0  0  0  0  0
    9.5964    8.8261    2.6833 C   0  0  0  0  0  0  0  0  0  0  0  0
   10.1062    7.6766    1.8150 C   0  0  0  0  0  0  0  0  0  0  0  0
   11.4708    7.1879    2.2797 C   0  0  0  0  0  0  0  0  0  0  0  0
   12.5028    8.2985    2.6139 C   0  0  0  0  0  0  0  0  0  0  0  0
   13.8597    8.3245    1.8833 C   0  0  0  0  0  0  0  0  0  0  0  0
   14.2161    9.5685    1.0697 C   0  0  0  0  0  0  0  0  0  0  0  0
   14.0956    7.1013    1.1041 N   0  0  0  0  0  0  0  0  0  0  0  0
   11.9492    9.7160    2.9537 C   0  0  0  0  0  0  0  0  0  0  0  0
   10.5204   10.0259    2.5146 C   0  0  0  0  0  0  0  0  0  0  0  0
  1  2  1  0
  2  3  1  0
  2  4  1  0
  4  5  1  0
  5  6  1  0
  6  7  2  0
  6  8  1  0
  8  9  1  0
  9 10  1  0
 10 11  1  0
 11 12  1  0
 12 13  1  0
 12 14  1  0
 11 15  1  0
 15 16  1  0
 16  8  1  0
M  CHG  1  14   1
M  END
>  <EmbedRMS>  (165) 
0.28373172213554615

>  <Gold.Version>  (165) 
2020.3.0

>  <Gold.Id.Protein>  (165) 
unknown|1q8t_protein|pdb

>  <Gold.PLP.Fitness>  (165) 
46.0719

>  <Gold.PLP.PLP>  (165) 
-37.4123

>  <Gold.PLP.part.hbond>  (165) 
-3.0000

>  <Gold.PLP.part.metal>  (165) 
0.0000

>  <Gold.PLP.part.buried>  (165) 
-0.9198

>  <Gold.PLP.part.nonpolar>  (165) 
-33.1308

>  <Gold.PLP.part.repulsive>  (165) 
0.0622

>  <Gold.PLP.ligand.clash>  (165) 
0.0000

>  <Gold.PLP.ligand.torsion>  (165) 
1.8513

>  <Gold.PLP.Chemscore.Hbond>  (165) 
3.9440

>  <Gold.PLP.Chemscore.CHOScore>  (165) 
0.0000

>  <Gold.PLP.Chemscore.Metal>  (165) 
0.0000

>  <Gold.Chemscore.Hbonds>  (165) 
donor molecule, donor type, donor heavy atom, donor atom, acceptor molecule, acceptor atom, score
      L1  H    14    37       P1  2691  0.94
      L1  H    14    39       P1  2902  2.00
      P1  H  2887  2891       L1     7  1.00

>  <Gold.PLP.Chemscore.Internal.Correction>  (165) 
0.5301

>  <Gold.PLP.Constraint>  (165) 
-0.0000

>  <Gold.Protein.RotatedTorsions>  (165) 
[  681  677  676  673 ] final -163.33 input -179.99 | X-H torsion
[  702  698  697  694 ] final  -27.84 input  179.99 | X-H torsion
[ 2577 2569 2568 2566 ] final -111.40 input   -0.13 | X-H torsion
[ 2891 2887 2886 2883 ] final  134.68 input  179.98 | X-H torsion
[ 3175 3171 3170 3167 ] final   43.90 input -179.99 | X-H torsion
[ 5278 5270 5269 5267 ] final  -40.06 input    0.55 | X-H torsion
[  641  637  636  633 ] final   31.32 input  179.99 | X-H torsion
[ 1886 1878 1877 1875 ] final -118.71 input    1.60 | X-H torsion
[  965  957  956  954 ] final  -83.33 input    0.45 | X-H torsion

>  <Gold.Protein.ActiveResidues>  (165) 
 LYS47   THR48   LEU49   GLY50   THR51   GLY52   SER53   PHE54   GLY55   ARG56  
 VAL57   MET58   LEU59   TYR69   ALA70   MET71   LYS72   ILE73   LEU74   GLU91  
 LEU95   VAL104  LYS105  MET118  VAL119  MET120  GLU121  TYR122  VAL123  PRO124 
 GLY125  GLY126  GLU127  MET128  PHE129  TYR164  ASP166  LEU167  LYS168  PRO169 
 GLU170  ASN171  LEU172  LEU173  ILE174  GLN181  VAL182  THR183  ASP184  PHE185 
 GLY186  PHE187  GLY200  THR201  ASN326  PHE327  TYR330  ARG18   ARG19   ASN20  
 ALA21   ILE22   HIS23  

>  <Gold.Protein.RotatedAtoms>  (165) 
    9.6394   19.5368    8.3455 H   0  0  0  0  0  0  0  0  0  0  0  0  # atno 641  bound_to 637 
   16.8003   13.9564    7.1866 H   0  0  0  0  0  0  0  0  0  0  0  0  # atno 681  bound_to 677 
   19.8071   11.7644   -0.3486 H   0  0  0  0  0  0  0  0  0  0  0  0  # atno 702  bound_to 698 
   -6.4372   16.3940   -1.5997 H   0  0  0  0  0  0  0  0  0  0  0  0  # atno 965  bound_to 957 
    0.9057   10.7111   10.7979 H   0  0  0  0  0  0  0  0  0  0  0  0  # atno 1886 bound_to 1878
   11.0661    2.7485   -2.9129 H   0  0  0  0  0  0  0  0  0  0  0  0  # atno 2577 bound_to 2569
    7.8617    6.9490    0.9779 H   0  0  0  0  0  0  0  0  0  0  0  0  # atno 2891 bound_to 2887
   18.6267    2.3548   -1.4023 H   0  0  0  0  0  0  0  0  0  0  0  0  # atno 3175 bound_to 3171
   13.0151    9.8449   10.3248 H   0  0  0  0  0  0  0  0  0  0  0  0  # atno 5278 bound_to 5270
   16.9137   12.8509    6.0460 LP  0  0  0  0  0  0  0  0  0  0  0  0  # atno 5914 bound_to 677 
   15.5777   12.9572    6.9790 LP  0  0  0  0  0  0  0  0  0  0  0  0  # atno 5915 bound_to 677 
   21.1580   11.5237   -1.1577 LP  0  0  0  0  0  0  0  0  0  0  0  0  # atno 5920 bound_to 698 
   19.7494   11.7885   -1.9403 LP  0  0  0  0  0  0  0  0  0  0  0  0  # atno 5921 bound_to 698 
    9.8011    1.9219   -2.4113 LP  0  0  0  0  0  0  0  0  0  0  0  0  # atno 5950 bound_to 2569
    9.6177    3.2484   -3.3458 LP  0  0  0  0  0  0  0  0  0  0  0  0  # atno 5951 bound_to 2569
    8.2325    5.5836    0.2467 LP  0  0  0  0  0  0  0  0  0  0  0  0  # atno 5982 bound_to 2887
    7.1684    5.6079    1.4851 LP  0  0  0  0  0  0  0  0  0  0  0  0  # atno 5983 bound_to 2887
   19.3006    3.0418   -0.1336 LP  0  0  0  0  0  0  0  0  0  0  0  0  # atno 6000 bound_to 3171
   17.9848    2.0887    0.0304 LP  0  0  0  0  0  0  0  0  0  0  0  0  # atno 6001 bound_to 3171
   14.4694    9.9986    9.6937 LP  0  0  0  0  0  0  0  0  0  0  0  0  # atno 6004 bound_to 5270
   13.1333   10.2102    8.7790 LP  0  0  0  0  0  0  0  0  0  0  0  0  # atno 6005 bound_to 5270
   10.6013   18.9321    7.2302 LP  0  0  0  0  0  0  0  0  0  0  0  0  # atno 6055 bound_to 637 
   11.2112   19.5938    8.5928 LP  0  0  0  0  0  0  0  0  0  0  0  0  # atno 6056 bound_to 637 
    1.1411   12.2753   10.9798 LP  0  0  0  0  0  0  0  0  0  0  0  0  # atno 6063 bound_to 1878
    2.2908   11.3277   10.3113 LP  0  0  0  0  0  0  0  0  0  0  0  0  # atno 6064 bound_to 1878
   -7.0551   17.0114   -0.2685 LP  0  0  0  0  0  0  0  0  0  0  0  0  # atno 6067 bound_to 957 
   -6.9733   15.3945   -0.4822 LP  0  0  0  0  0  0  0  0  0  0  0  0  # atno 6068 bound_to 957 

>  <STRIFE_LigEff_Score>  (165) 
2.87949375

$$$$
unknown|pharmsElabsTestPreDocking|sdf|166|dock7
     RDKit          3D

 19 20  0  0  0  0  0  0  0  0999 V2000
   14.5987    7.9474    3.3304 C   0  0  0  0  0  0  0  0  0  0  0  0
   13.3980    7.7017    2.4168 C   0  0  0  0  0  0  0  0  0  0  0  0
   13.4483    8.5746    1.2362 N   0  0  0  0  0  0  0  0  0  0  0  0
   11.9951    7.6628    3.0547 C   0  0  0  0  0  0  0  0  0  0  0  0
   10.7979    7.0986    2.2436 C   0  0  0  0  0  0  0  0  0  0  0  0
    9.6209    8.0467    2.0625 C   0  0  0  0  0  0  0  0  0  0  0  0
    9.2663    8.7562    3.3678 C   0  0  0  0  0  0  0  0  0  0  0  0
    8.0125    9.5716    3.1996 C   0  0  0  0  0  0  0  0  0  0  0  0
    7.5687   10.2604    4.1610 O   0  0  0  0  0  0  0  0  0  0  0  0
    7.3172    9.5472    1.9472 N   0  0  0  0  0  0  0  0  0  0  0  0
    6.0828   10.2883    1.7223 C   0  0  0  0  0  0  0  0  0  0  0  0
    5.0323    9.8255    2.6762 C   0  0  0  0  0  0  0  0  0  0  0  0
    3.8548    9.1897    2.3486 C   0  0  0  0  0  0  0  0  0  0  0  0
    3.1507    8.9605    3.4745 N   0  0  0  0  0  0  0  0  0  0  0  0
    3.9274    9.4752    4.4516 C   0  0  0  0  0  0  0  0  0  0  0  0
    3.5612    9.4503    5.8283 N   0  0  0  0  0  0  0  0  0  0  0  0
    5.0756   10.0147    4.0040 N   0  0  0  0  0  0  0  0  0  0  0  0
   10.4295    9.6521    3.7795 C   0  0  0  0  0  0  0  0  0  0  0  0
   11.7120    8.8567    4.0175 C   0  0  0  0  0  0  0  0  0  0  0  0
  1  2  1  0
  2  3  1  0
  2  4  1  0
  4  5  1  0
  5  6  1  0
  6  7  1  0
  7  8  1  0
  8  9  2  0
  8 10  1  0
 10 11  1  0
 11 12  1  0
 12 13  2  0
 13 14  1  0
 14 15  2  0
 15 16  1  0
 15 17  1  0
  7 18  1  0
 18 19  1  0
 19  4  1  0
 17 12  1  0
M  CHG  1   3   1
M  END
>  <EmbedRMS>  (166) 
0.19656450682361806

>  <Gold.Version>  (166) 
2020.3.0

>  <Gold.Id.Protein>  (166) 
unknown|1q8t_protein|pdb

>  <Gold.PLP.Fitness>  (166) 
48.9725

>  <Gold.PLP.PLP>  (166) 
-40.2696

>  <Gold.PLP.part.hbond>  (166) 
-2.5984

>  <Gold.PLP.part.metal>  (166) 
0.0000

>  <Gold.PLP.part.buried>  (166) 
-6.3898

>  <Gold.PLP.part.nonpolar>  (166) 
-33.2049

>  <Gold.PLP.part.repulsive>  (166) 
0.2294

>  <Gold.PLP.ligand.clash>  (166) 
0.0000

>  <Gold.PLP.ligand.torsion>  (166) 
0.2525

>  <Gold.PLP.Chemscore.Hbond>  (166) 
2.9291

>  <Gold.PLP.Chemscore.CHOScore>  (166) 
0.0000

>  <Gold.PLP.Chemscore.Metal>  (166) 
0.0000

>  <Gold.Chemscore.Hbonds>  (166) 
donor molecule, donor type, donor heavy atom, donor atom, acceptor molecule, acceptor atom, score
      L1  H     3    25       P1  2902  2.00
      L1  H    16    37       P1  1891  0.88
      P1  H  1888  1903       L1    14  0.05

>  <Gold.PLP.Chemscore.Internal.Correction>  (166) 
0.4204

>  <Gold.PLP.Constraint>  (166) 
-0.0000

>  <Gold.Protein.RotatedTorsions>  (166) 
[  681  677  676  673 ] final  131.58 input -179.99 | X-H torsion
[  702  698  697  694 ] final   75.16 input  179.99 | X-H torsion
[ 2577 2569 2568 2566 ] final  -93.34 input   -0.13 | X-H torsion
[ 2891 2887 2886 2883 ] final  179.15 input  179.98 | X-H torsion
[ 3175 3171 3170 3167 ] final   37.48 input -179.99 | X-H torsion
[ 5278 5270 5269 5267 ] final -173.74 input    0.55 | X-H torsion
[  641  637  636  633 ] final -109.55 input  179.99 | X-H torsion
[ 1886 1878 1877 1875 ] final  159.32 input    1.60 | X-H torsion
[  965  957  956  954 ] final -133.51 input    0.45 | X-H torsion

>  <Gold.Protein.ActiveResidues>  (166) 
 LYS47   THR48   LEU49   GLY50   THR51   GLY52   SER53   PHE54   GLY55   ARG56  
 VAL57   MET58   LEU59   TYR69   ALA70   MET71   LYS72   ILE73   LEU74   GLU91  
 LEU95   VAL104  LYS105  MET118  VAL119  MET120  GLU121  TYR122  VAL123  PRO124 
 GLY125  GLY126  GLU127  MET128  PHE129  TYR164  ASP166  LEU167  LYS168  PRO169 
 GLU170  ASN171  LEU172  LEU173  ILE174  GLN181  VAL182  THR183  ASP184  PHE185 
 GLY186  PHE187  GLY200  THR201  ASN326  PHE327  TYR330  ARG18   ARG19   ASN20  
 ALA21   ILE22   HIS23  

>  <Gold.Protein.RotatedAtoms>  (166) 
   10.9011   18.9722    7.3779 H   0  0  0  0  0  0  0  0  0  0  0  0  # atno 641  bound_to 637 
   17.2521   13.5085    6.4627 H   0  0  0  0  0  0  0  0  0  0  0  0  # atno 681  bound_to 677 
   19.5751   11.8322   -1.7303 H   0  0  0  0  0  0  0  0  0  0  0  0  # atno 702  bound_to 698 
   -6.6041   17.0298   -1.2198 H   0  0  0  0  0  0  0  0  0  0  0  0  # atno 965  bound_to 957 
    0.7342   11.8417   11.0663 H   0  0  0  0  0  0  0  0  0  0  0  0  # atno 1886 bound_to 1878
   10.9912    2.9685   -3.0712 H   0  0  0  0  0  0  0  0  0  0  0  0  # atno 2577 bound_to 2569
    7.4202    6.7049    1.4308 H   0  0  0  0  0  0  0  0  0  0  0  0  # atno 2891 bound_to 2887
   18.7075    2.4140   -1.4068 H   0  0  0  0  0  0  0  0  0  0  0  0  # atno 3175 bound_to 3171
   14.4161   10.0663    9.4864 H   0  0  0  0  0  0  0  0  0  0  0  0  # atno 5278 bound_to 5270
   15.9853   12.5532    6.3260 LP  0  0  0  0  0  0  0  0  0  0  0  0  # atno 5914 bound_to 677 
   16.0306   13.7263    7.4610 LP  0  0  0  0  0  0  0  0  0  0  0  0  # atno 5915 bound_to 677 
   20.0396   11.7037   -0.2121 LP  0  0  0  0  0  0  0  0  0  0  0  0  # atno 5920 bound_to 698 
   21.1118   11.5372   -1.4324 LP  0  0  0  0  0  0  0  0  0  0  0  0  # atno 5921 bound_to 698 
   10.0871    1.8708   -2.3549 LP  0  0  0  0  0  0  0  0  0  0  0  0  # atno 5950 bound_to 2569
    9.4106    3.0679   -3.2357 LP  0  0  0  0  0  0  0  0  0  0  0  0  # atno 5951 bound_to 2569
    8.3851    6.2805    0.2370 LP  0  0  0  0  0  0  0  0  0  0  0  0  # atno 5982 bound_to 2887
    7.4804    5.1679    1.0182 LP  0  0  0  0  0  0  0  0  0  0  0  0  # atno 5983 bound_to 2887
   19.2557    3.0208   -0.0404 LP  0  0  0  0  0  0  0  0  0  0  0  0  # atno 6000 bound_to 3171
   17.9446    2.0474   -0.0580 LP  0  0  0  0  0  0  0  0  0  0  0  0  # atno 6001 bound_to 3171
   12.9423   10.1800    8.8933 LP  0  0  0  0  0  0  0  0  0  0  0  0  # atno 6004 bound_to 5270
   13.1863    9.7958   10.4615 LP  0  0  0  0  0  0  0  0  0  0  0  0  # atno 6005 bound_to 5270
   10.9557   19.7081    8.7888 LP  0  0  0  0  0  0  0  0  0  0  0  0  # atno 6055 bound_to 637 
    9.5281   19.4123    8.0532 LP  0  0  0  0  0  0  0  0  0  0  0  0  # atno 6056 bound_to 637 
    2.2011   11.9191   10.4518 LP  0  0  0  0  0  0  0  0  0  0  0  0  # atno 6063 bound_to 1878
    1.4113   10.4937   10.5568 LP  0  0  0  0  0  0  0  0  0  0  0  0  # atno 6064 bound_to 1878
   -7.2104   16.2982    0.0578 LP  0  0  0  0  0  0  0  0  0  0  0  0  # atno 6067 bound_to 957 
   -6.6422   15.4381   -1.2087 LP  0  0  0  0  0  0  0  0  0  0  0  0  # atno 6068 bound_to 957 

>  <STRIFE_LigEff_Score>  (166) 
2.5774999999999997

$$$$
unknown|pharmsElabsTestPreDocking|sdf|167|dock6
     RDKit          3D

 19 20  0  0  0  0  0  0  0  0999 V2000
   13.7747    7.0810    2.9245 C   0  0  0  0  0  0  0  0  0  0  0  0
   13.6223    8.4686    2.2753 C   0  0  0  0  0  0  0  0  0  0  0  0
   14.2455    8.4504    0.9448 N   0  0  0  0  0  0  0  0  0  0  0  0
   12.1151    8.8873    2.2254 C   0  0  0  0  0  0  0  0  0  0  0  0
   11.3321    7.8487    1.4014 C   0  0  0  0  0  0  0  0  0  0  0  0
    9.8654    8.2099    1.1956 C   0  0  0  0  0  0  0  0  0  0  0  0
    9.2806    9.0905    2.2894 C   0  0  0  0  0  0  0  0  0  0  0  0
    7.7882    9.2303    2.2160 C   0  0  0  0  0  0  0  0  0  0  0  0
    7.1447    8.2210    2.5951 O   0  0  0  0  0  0  0  0  0  0  0  0
    7.0623   10.3857    1.7598 N   0  0  0  0  0  0  0  0  0  0  0  0
    5.5977   10.2889    1.6545 C   0  0  0  0  0  0  0  0  0  0  0  0
    4.9493   10.0764    2.9883 C   0  0  0  0  0  0  0  0  0  0  0  0
    5.7038   10.1547    4.1662 C   0  0  0  0  0  0  0  0  0  0  0  0
    5.0841    9.9699    5.4023 C   0  0  0  0  0  0  0  0  0  0  0  0
    3.7128    9.7102    5.4475 C   0  0  0  0  0  0  0  0  0  0  0  0
    2.9943    9.6363    4.2955 N   0  0  0  0  0  0  0  0  0  0  0  0
    3.5755    9.8121    3.0793 C   0  0  0  0  0  0  0  0  0  0  0  0
    9.9428    9.2030    3.6492 C   0  0  0  0  0  0  0  0  0  0  0  0
   11.4745    9.0020    3.6322 C   0  0  0  0  0  0  0  0  0  0  0  0
  1  2  1  0
  2  3  1  0
  2  4  1  0
  4  5  1  0
  5  6  1  0
  6  7  1  0
  7  8  1  0
  8  9  2  0
  8 10  1  0
 10 11  1  0
 11 12  1  0
 12 13  2  0
 13 14  1  0
 14 15  2  0
 15 16  1  0
 16 17  2  0
  7 18  1  0
 18 19  1  0
 19  4  1  0
 17 12  1  0
M  CHG  1   3   1
M  END
>  <EmbedRMS>  (167) 
0.17084101544492625

>  <Gold.Version>  (167) 
2020.3.0

>  <Gold.Id.Protein>  (167) 
unknown|1q8t_protein|pdb

>  <Gold.PLP.Fitness>  (167) 
62.3586

>  <Gold.PLP.PLP>  (167) 
-45.2245

>  <Gold.PLP.part.hbond>  (167) 
-3.0000

>  <Gold.PLP.part.metal>  (167) 
0.0000

>  <Gold.PLP.part.buried>  (167) 
-2.1808

>  <Gold.PLP.part.nonpolar>  (167) 
-41.6996

>  <Gold.PLP.part.repulsive>  (167) 
0.1447

>  <Gold.PLP.ligand.clash>  (167) 
0.0000

>  <Gold.PLP.ligand.torsion>  (167) 
0.4689

>  <Gold.PLP.Chemscore.Hbond>  (167) 
4.0000

>  <Gold.PLP.Chemscore.CHOScore>  (167) 
1.7892

>  <Gold.PLP.Chemscore.Metal>  (167) 
0.0000

>  <Gold.Chemscore.Hbonds>  (167) 
donor molecule, donor type, donor heavy atom, donor atom, acceptor molecule, acceptor atom, score
      L1  H     3    24       P1  2902  2.00
      P1  H  2887  2891       L1     9  1.00
      P1  H  1888  1903       L1    16  1.00
      L1  C    15    38       P1  1891  1.00
      L1  C    17    39       P1  1855  0.79

>  <Gold.PLP.Chemscore.Internal.Correction>  (167) 
0.7044

>  <Gold.PLP.Constraint>  (167) 
-0.0000

>  <Gold.Protein.RotatedTorsions>  (167) 
[  681  677  676  673 ] final  -41.54 input -179.99 | X-H torsion
[  702  698  697  694 ] final  -25.30 input  179.99 | X-H torsion
[ 2577 2569 2568 2566 ] final  112.31 input   -0.13 | X-H torsion
[ 2891 2887 2886 2883 ] final  177.96 input  179.98 | X-H torsion
[ 3175 3171 3170 3167 ] final  156.78 input -179.99 | X-H torsion
[ 5278 5270 5269 5267 ] final  130.40 input    0.55 | X-H torsion
[  641  637  636  633 ] final   -6.04 input  179.99 | X-H torsion
[ 1886 1878 1877 1875 ] final  123.73 input    1.60 | X-H torsion
[  965  957  956  954 ] final  -35.04 input    0.45 | X-H torsion

>  <Gold.Protein.ActiveResidues>  (167) 
 LYS47   THR48   LEU49   GLY50   THR51   GLY52   SER53   PHE54   GLY55   ARG56  
 VAL57   MET58   LEU59   TYR69   ALA70   MET71   LYS72   ILE73   LEU74   GLU91  
 LEU95   VAL104  LYS105  MET118  VAL119  MET120  GLU121  TYR122  VAL123  PRO124 
 GLY125  GLY126  GLU127  MET128  PHE129  TYR164  ASP166  LEU167  LYS168  PRO169 
 GLU170  ASN171  LEU172  LEU173  ILE174  GLN181  VAL182  THR183  ASP184  PHE185 
 GLY186  PHE187  GLY200  THR201  ASN326  PHE327  TYR330  ARG18   ARG19   ASN20  
 ALA21   ILE22   HIS23  

>  <Gold.Protein.RotatedAtoms>  (167) 
    9.6066   19.2778    7.8349 H   0  0  0  0  0  0  0  0  0  0  0  0  # atno 641  bound_to 637 
   15.6159   12.9640    6.9365 H   0  0  0  0  0  0  0  0  0  0  0  0  # atno 681  bound_to 677 
   19.7733   11.7708   -0.3683 H   0  0  0  0  0  0  0  0  0  0  0  0  # atno 702  bound_to 698 
   -6.5270   15.6902   -1.4173 H   0  0  0  0  0  0  0  0  0  0  0  0  # atno 965  bound_to 957 
    1.1167   12.2193   10.9621 H   0  0  0  0  0  0  0  0  0  0  0  0  # atno 1886 bound_to 1878
    9.6055    2.0508   -2.5355 H   0  0  0  0  0  0  0  0  0  0  0  0  # atno 2577 bound_to 2569
    7.4306    6.7175    1.4218 H   0  0  0  0  0  0  0  0  0  0  0  0  # atno 2891 bound_to 2887
   17.9857    2.0521   -0.0885 H   0  0  0  0  0  0  0  0  0  0  0  0  # atno 3175 bound_to 3171
   13.9166   10.2229    8.8302 H   0  0  0  0  0  0  0  0  0  0  0  0  # atno 5278 bound_to 5270
   16.8020   13.9830    7.2376 LP  0  0  0  0  0  0  0  0  0  0  0  0  # atno 5914 bound_to 677 
   16.9360   12.8695    6.0507 LP  0  0  0  0  0  0  0  0  0  0  0  0  # atno 5915 bound_to 677 
   21.1579   11.5229   -1.1160 LP  0  0  0  0  0  0  0  0  0  0  0  0  # atno 5920 bound_to 698 
   19.7850   11.7826   -1.9612 LP  0  0  0  0  0  0  0  0  0  0  0  0  # atno 5921 bound_to 698 
    9.8525    3.3606   -3.4065 LP  0  0  0  0  0  0  0  0  0  0  0  0  # atno 5950 bound_to 2569
   11.1043    2.5444   -2.7481 LP  0  0  0  0  0  0  0  0  0  0  0  0  # atno 5951 bound_to 2569
    8.3857    6.2616    0.2317 LP  0  0  0  0  0  0  0  0  0  0  0  0  # atno 5982 bound_to 2887
    7.4688    5.1735    1.0330 LP  0  0  0  0  0  0  0  0  0  0  0  0  # atno 5983 bound_to 2887
   18.7096    2.4311   -1.4552 LP  0  0  0  0  0  0  0  0  0  0  0  0  # atno 6000 bound_to 3171
   19.2503    3.0181   -0.0305 LP  0  0  0  0  0  0  0  0  0  0  0  0  # atno 6001 bound_to 3171
   12.5905    9.9826    9.6789 LP  0  0  0  0  0  0  0  0  0  0  0  0  # atno 6004 bound_to 5270
   14.0637    9.8284   10.3663 LP  0  0  0  0  0  0  0  0  0  0  0  0  # atno 6005 bound_to 5270
   11.1401   19.0317    7.4842 LP  0  0  0  0  0  0  0  0  0  0  0  0  # atno 6055 bound_to 637 
   10.7070   19.7669    8.8766 LP  0  0  0  0  0  0  0  0  0  0  0  0  # atno 6056 bound_to 637 
    2.2963   11.3673   10.3156 LP  0  0  0  0  0  0  0  0  0  0  0  0  # atno 6063 bound_to 1878
    0.9135   10.6481   10.8026 LP  0  0  0  0  0  0  0  0  0  0  0  0  # atno 6064 bound_to 1878
   -6.7435   17.1966   -0.9494 LP  0  0  0  0  0  0  0  0  0  0  0  0  # atno 6067 bound_to 957 
   -7.1904   15.9505    0.0065 LP  0  0  0  0  0  0  0  0  0  0  0  0  # atno 6068 bound_to 957 

>  <STRIFE_LigEff_Score>  (167) 
3.2820315789473686

$$$$
unknown|pharmsElabsTestPreDocking|sdf|168|dock2
     RDKit          3D

 18 18  0  0  0  0  0  0  0  0999 V2000
    3.3002    8.7610    2.9096 C   0  0  0  0  0  0  0  0  0  0  0  0
    4.5578    9.1324    2.6556 C   0  0  0  0  0  0  0  0  0  0  0  0
    5.0348    9.2050    1.2269 C   0  0  0  0  0  0  0  0  0  0  0  0
    5.5069    9.3265    3.7915 C   0  0  0  0  0  0  0  0  0  0  0  0
    5.1505   10.1030    4.8321 C   0  0  0  0  0  0  0  0  0  0  0  0
    6.0539   10.3742    5.9949 C   0  0  0  0  0  0  0  0  0  0  0  0
    6.8456    8.7921    3.7373 N   0  0  0  0  0  0  0  0  0  0  0  0
    7.8739    9.2501    2.8511 C   0  0  0  0  0  0  0  0  0  0  0  0
    7.6123   10.0869    1.9407 O   0  0  0  0  0  0  0  0  0  0  0  0
    9.2818    8.7307    3.0248 C   0  0  0  0  0  0  0  0  0  0  0  0
    9.7054    7.9670    1.7759 C   0  0  0  0  0  0  0  0  0  0  0  0
   11.0686    7.3155    1.9257 C   0  0  0  0  0  0  0  0  0  0  0  0
   12.1170    8.1627    2.6716 C   0  0  0  0  0  0  0  0  0  0  0  0
   13.6150    7.8901    2.2893 C   0  0  0  0  0  0  0  0  0  0  0  0
   14.4789    7.2160    3.3658 C   0  0  0  0  0  0  0  0  0  0  0  0
   13.7432    7.1706    1.0168 N   0  0  0  0  0  0  0  0  0  0  0  0
   11.7351    9.5575    3.2100 C   0  0  0  0  0  0  0  0  0  0  0  0
   10.2350    9.8993    3.2978 C   0  0  0  0  0  0  0  0  0  0  0  0
  1  2  2  0
  2  3  1  0
  2  4  1  0
  4  5  2  0
  5  6  1  0
  4  7  1  0
  7  8  1  0
  8  9  2  0
  8 10  1  0
 10 11  1  0
 11 12  1  0
 12 13  1  0
 13 14  1  0
 14 15  1  0
 14 16  1  0
 13 17  1  0
 17 18  1  0
 18 10  1  0
M  CHG  1  16   1
M  END
>  <EmbedRMS>  (168) 
0.16480955270904202

>  <Gold.Version>  (168) 
2020.3.0

>  <Gold.Id.Protein>  (168) 
unknown|1q8t_protein|pdb

>  <Gold.PLP.Fitness>  (168) 
46.9336

>  <Gold.PLP.PLP>  (168) 
-41.6032

>  <Gold.PLP.part.hbond>  (168) 
-2.0000

>  <Gold.PLP.part.metal>  (168) 
0.0000

>  <Gold.PLP.part.buried>  (168) 
-2.7506

>  <Gold.PLP.part.nonpolar>  (168) 
-37.4216

>  <Gold.PLP.part.repulsive>  (168) 
0.0500

>  <Gold.PLP.ligand.clash>  (168) 
0.0000

>  <Gold.PLP.ligand.torsion>  (168) 
2.6291

>  <Gold.PLP.Chemscore.Hbond>  (168) 
3.0000

>  <Gold.PLP.Chemscore.CHOScore>  (168) 
0.0000

>  <Gold.PLP.Chemscore.Metal>  (168) 
0.0000

>  <Gold.Chemscore.Hbonds>  (168) 
donor molecule, donor type, donor heavy atom, donor atom, acceptor molecule, acceptor atom, score
      L1  H    16    40       P1  2691  1.00
      L1  H    16    41       P1  2902  2.00

>  <Gold.PLP.Chemscore.Internal.Correction>  (168) 
1.5886

>  <Gold.PLP.Constraint>  (168) 
-0.0000

>  <Gold.Protein.RotatedTorsions>  (168) 
[  681  677  676  673 ] final  149.03 input -179.99 | X-H torsion
[  702  698  697  694 ] final   89.24 input  179.99 | X-H torsion
[ 2577 2569 2568 2566 ] final -147.36 input   -0.13 | X-H torsion
[ 2891 2887 2886 2883 ] final   33.41 input  179.98 | X-H torsion
[ 3175 3171 3170 3167 ] final -145.97 input -179.99 | X-H torsion
[ 5278 5270 5269 5267 ] final  115.88 input    0.55 | X-H torsion
[  641  637  636  633 ] final   96.00 input  179.99 | X-H torsion
[ 1886 1878 1877 1875 ] final   51.47 input    1.60 | X-H torsion
[  965  957  956  954 ] final  -29.78 input    0.45 | X-H torsion

>  <Gold.Protein.ActiveResidues>  (168) 
 LYS47   THR48   LEU49   GLY50   THR51   GLY52   SER53   PHE54   GLY55   ARG56  
 VAL57   MET58   LEU59   TYR69   ALA70   MET71   LYS72   ILE73   LEU74   GLU91  
 LEU95   VAL104  LYS105  MET118  VAL119  MET120  GLU121  TYR122  VAL123  PRO124 
 GLY125  GLY126  GLU127  MET128  PHE129  TYR164  ASP166  LEU167  LYS168  PRO169 
 GLU170  ASN171  LEU172  LEU173  ILE174  GLN181  VAL182  THR183  ASP184  PHE185 
 GLY186  PHE187  GLY200  THR201  ASN326  PHE327  TYR330  ARG18   ARG19   ASN20  
 ALA21   ILE22   HIS23  

>  <Gold.Protein.RotatedAtoms>  (168) 
   10.4163   19.7565    8.8609 H   0  0  0  0  0  0  0  0  0  0  0  0  # atno 641  bound_to 637 
   17.2218   13.6906    6.6620 H   0  0  0  0  0  0  0  0  0  0  0  0  # atno 681  bound_to 677 
   19.7381   11.8061   -1.8754 H   0  0  0  0  0  0  0  0  0  0  0  0  # atno 702  bound_to 698 
   -6.5506   15.6300   -1.3666 H   0  0  0  0  0  0  0  0  0  0  0  0  # atno 965  bound_to 957 
    2.0582   12.0442   10.5171 H   0  0  0  0  0  0  0  0  0  0  0  0  # atno 1886 bound_to 1878
   10.9560    2.2998   -2.6095 H   0  0  0  0  0  0  0  0  0  0  0  0  # atno 2577 bound_to 2569
    8.2983    5.8778    0.2156 H   0  0  0  0  0  0  0  0  0  0  0  0  # atno 2891 bound_to 2887
   18.5372    2.5209    0.3724 H   0  0  0  0  0  0  0  0  0  0  0  0  # atno 3175 bound_to 3171
   13.7016   10.2378    8.7607 H   0  0  0  0  0  0  0  0  0  0  0  0  # atno 5278 bound_to 5270
   16.2262   12.5484    6.1720 LP  0  0  0  0  0  0  0  0  0  0  0  0  # atno 5914 bound_to 677 
   15.8215   13.5394    7.4052 LP  0  0  0  0  0  0  0  0  0  0  0  0  # atno 5915 bound_to 677 
   19.8242   11.7433   -0.2861 LP  0  0  0  0  0  0  0  0  0  0  0  0  # atno 5920 bound_to 698 
   21.1558   11.5250   -1.2057 LP  0  0  0  0  0  0  0  0  0  0  0  0  # atno 5921 bound_to 698 
    9.3661    2.2238   -2.6528 LP  0  0  0  0  0  0  0  0  0  0  0  0  # atno 5950 bound_to 2569
   10.1687    3.4189   -3.4238 LP  0  0  0  0  0  0  0  0  0  0  0  0  # atno 5951 bound_to 2569
    7.2650    5.3708    1.3164 LP  0  0  0  0  0  0  0  0  0  0  0  0  # atno 5982 bound_to 2887
    7.6764    6.9480    1.2178 LP  0  0  0  0  0  0  0  0  0  0  0  0  # atno 5983 bound_to 2887
   18.0389    1.9882   -1.0430 LP  0  0  0  0  0  0  0  0  0  0  0  0  # atno 6000 bound_to 3171
   19.3406    2.9675   -0.9279 LP  0  0  0  0  0  0  0  0  0  0  0  0  # atno 6001 bound_to 3171
   12.6388    9.9272    9.9056 LP  0  0  0  0  0  0  0  0  0  0  0  0  # atno 6004 bound_to 5270
   14.2416    9.8681   10.2128 LP  0  0  0  0  0  0  0  0  0  0  0  0  # atno 6005 bound_to 5270
    9.6831   19.1615    7.5791 LP  0  0  0  0  0  0  0  0  0  0  0  0  # atno 6055 bound_to 637 
   11.3112   19.1329    7.7011 LP  0  0  0  0  0  0  0  0  0  0  0  0  # atno 6056 bound_to 637 
    1.5939   10.5216   10.4811 LP  0  0  0  0  0  0  0  0  0  0  0  0  # atno 6063 bound_to 1878
    0.6247   11.6780   11.1056 LP  0  0  0  0  0  0  0  0  0  0  0  0  # atno 6064 bound_to 1878
   -6.7087   17.1774   -1.0262 LP  0  0  0  0  0  0  0  0  0  0  0  0  # atno 6067 bound_to 957 
   -7.2003   16.0331    0.0300 LP  0  0  0  0  0  0  0  0  0  0  0  0  # atno 6068 bound_to 957 

>  <STRIFE_LigEff_Score>  (168) 
2.607422222222222

$$$$
unknown|pharmsElabsTestPreDocking|sdf|169|dock3
     RDKit          3D

 18 19  0  0  0  0  0  0  0  0999 V2000
   14.2271    9.3089    1.2773 C   0  0  0  0  0  0  0  0  0  0  0  0
   13.5330    8.0857    1.8763 C   0  0  0  0  0  0  0  0  0  0  0  0
   13.2423    7.0860    0.8395 N   0  0  0  0  0  0  0  0  0  0  0  0
   12.3330    8.3185    2.8150 C   0  0  0  0  0  0  0  0  0  0  0  0
   11.2274    7.2352    2.9315 C   0  0  0  0  0  0  0  0  0  0  0  0
    9.8170    7.6986    2.5994 C   0  0  0  0  0  0  0  0  0  0  0  0
    9.5026    9.0428    3.2512 C   0  0  0  0  0  0  0  0  0  0  0  0
    8.0598    9.4072    3.0313 C   0  0  0  0  0  0  0  0  0  0  0  0
    7.7286   10.0671    2.0092 O   0  0  0  0  0  0  0  0  0  0  0  0
    7.0852    9.0179    4.0068 N   0  0  0  0  0  0  0  0  0  0  0  0
    5.6756    9.2739    3.9206 C   0  0  0  0  0  0  0  0  0  0  0  0
    4.7747    9.4830    4.9542 C   0  0  0  0  0  0  0  0  0  0  0  0
    3.5437    9.6787    4.4422 N   0  0  0  0  0  0  0  0  0  0  0  0
    3.6389    9.5993    3.1012 C   0  0  0  0  0  0  0  0  0  0  0  0
    4.9469    9.3495    2.7517 C   0  0  0  0  0  0  0  0  0  0  0  0
    5.4387    9.2009    1.4192 N   0  0  0  0  0  0  0  0  0  0  0  0
   10.4130   10.1119    2.6572 C   0  0  0  0  0  0  0  0  0  0  0  0
   11.8896    9.8110    2.9053 C   0  0  0  0  0  0  0  0  0  0  0  0
  1  2  1  0
  2  3  1  0
  2  4  1  0
  4  5  1  0
  5  6  1  0
  6  7  1  0
  7  8  1  0
  8  9  2  0
  8 10  1  0
 10 11  1  0
 11 12  2  0
 12 13  1  0
 13 14  1  0
 14 15  2  0
 15 16  1  0
  7 17  1  0
 17 18  1  0
 18  4  1  0
 15 11  1  0
M  CHG  1   3   1
M  END
>  <EmbedRMS>  (169) 
0.20222811455084339

>  <Gold.Version>  (169) 
2020.3.0

>  <Gold.Id.Protein>  (169) 
unknown|1q8t_protein|pdb

>  <Gold.PLP.Fitness>  (169) 
44.5451

>  <Gold.PLP.PLP>  (169) 
-37.3839

>  <Gold.PLP.part.hbond>  (169) 
-1.5590

>  <Gold.PLP.part.metal>  (169) 
0.0000

>  <Gold.PLP.part.buried>  (169) 
-5.2571

>  <Gold.PLP.part.nonpolar>  (169) 
-30.9714

>  <Gold.PLP.part.repulsive>  (169) 
0.1443

>  <Gold.PLP.ligand.clash>  (169) 
0.0000

>  <Gold.PLP.ligand.torsion>  (169) 
2.1155

>  <Gold.PLP.Chemscore.Hbond>  (169) 
2.6560

>  <Gold.PLP.Chemscore.CHOScore>  (169) 
1.0000

>  <Gold.PLP.Chemscore.Metal>  (169) 
0.0000

>  <Gold.Chemscore.Hbonds>  (169) 
donor molecule, donor type, donor heavy atom, donor atom, acceptor molecule, acceptor atom, score
      L1  H     3    23       P1  2902  1.98
      L1  H     3    24       P1  2691  0.67
      L1  C    14    35       P1  1855  1.00

>  <Gold.PLP.Chemscore.Internal.Correction>  (169) 
0.4242

>  <Gold.PLP.Constraint>  (169) 
-0.0000

>  <Gold.Protein.RotatedTorsions>  (169) 
[  681  677  676  673 ] final  153.04 input -179.99 | X-H torsion
[  702  698  697  694 ] final  116.43 input  179.99 | X-H torsion
[ 2577 2569 2568 2566 ] final  164.19 input   -0.13 | X-H torsion
[ 2891 2887 2886 2883 ] final -158.31 input  179.98 | X-H torsion
[ 3175 3171 3170 3167 ] final  -20.32 input -179.99 | X-H torsion
[ 5278 5270 5269 5267 ] final   45.19 input    0.55 | X-H torsion
[  641  637  636  633 ] final   53.77 input  179.99 | X-H torsion
[ 1886 1878 1877 1875 ] final  -85.50 input    1.60 | X-H torsion
[  965  957  956  954 ] final   85.22 input    0.45 | X-H torsion

>  <Gold.Protein.ActiveResidues>  (169) 
 LYS47   THR48   LEU49   GLY50   THR51   GLY52   SER53   PHE54   GLY55   ARG56  
 VAL57   MET58   LEU59   TYR69   ALA70   MET71   LYS72   ILE73   LEU74   GLU91  
 LEU95   VAL104  LYS105  MET118  VAL119  MET120  GLU121  TYR122  VAL123  PRO124 
 GLY125  GLY126  GLU127  MET128  PHE129  TYR164  ASP166  LEU167  LYS168  PRO169 
 GLU170  ASN171  LEU172  LEU173  ILE174  GLN181  VAL182  THR183  ASP184  PHE185 
 GLY186  PHE187  GLY200  THR201  ASN326  PHE327  TYR330  ARG18   ARG19   ASN20  
 ALA21   ILE22   HIS23  

>  <Gold.Protein.RotatedAtoms>  (169) 
    9.8299   19.6610    8.6096 H   0  0  0  0  0  0  0  0  0  0  0  0  # atno 641  bound_to 637 
   17.2044   13.7277    6.7096 H   0  0  0  0  0  0  0  0  0  0  0  0  # atno 681  bound_to 677 
   20.1267   11.7401   -2.0243 H   0  0  0  0  0  0  0  0  0  0  0  0  # atno 702  bound_to 698 
   -7.1575   15.9702   -0.0261 H   0  0  0  0  0  0  0  0  0  0  0  0  # atno 965  bound_to 957 
    1.3370   10.5434   10.5791 H   0  0  0  0  0  0  0  0  0  0  0  0  # atno 1886 bound_to 1878
   10.3646    1.9224   -2.3907 H   0  0  0  0  0  0  0  0  0  0  0  0  # atno 2577 bound_to 2569
    7.2550    6.4220    1.5544 H   0  0  0  0  0  0  0  0  0  0  0  0  # atno 2891 bound_to 2887
   19.2863    2.8983   -0.9826 H   0  0  0  0  0  0  0  0  0  0  0  0  # atno 3175 bound_to 3171
   12.7569   10.1263    9.1729 H   0  0  0  0  0  0  0  0  0  0  0  0  # atno 5278 bound_to 5270
   16.2853   12.5567    6.1436 LP  0  0  0  0  0  0  0  0  0  0  0  0  # atno 5914 bound_to 677 
   15.7808   13.4921    7.3835 LP  0  0  0  0  0  0  0  0  0  0  0  0  # atno 5915 bound_to 677 
   19.4874   11.8084   -0.5669 LP  0  0  0  0  0  0  0  0  0  0  0  0  # atno 5920 bound_to 698 
   21.0837   11.5294   -0.7684 LP  0  0  0  0  0  0  0  0  0  0  0  0  # atno 5921 bound_to 698 
    9.2817    2.8527   -3.0957 LP  0  0  0  0  0  0  0  0  0  0  0  0  # atno 5950 bound_to 2569
   10.8758    3.1875   -3.2113 LP  0  0  0  0  0  0  0  0  0  0  0  0  # atno 5951 bound_to 2569
    8.3229    6.6108    0.3881 LP  0  0  0  0  0  0  0  0  0  0  0  0  # atno 5982 bound_to 2887
    7.7165    5.1353    0.7370 LP  0  0  0  0  0  0  0  0  0  0  0  0  # atno 5983 bound_to 2887
   18.5959    2.5923    0.4193 LP  0  0  0  0  0  0  0  0  0  0  0  0  # atno 6000 bound_to 3171
   17.9953    1.9663   -0.9642 LP  0  0  0  0  0  0  0  0  0  0  0  0  # atno 6001 bound_to 3171
   13.5249    9.7835   10.5255 LP  0  0  0  0  0  0  0  0  0  0  0  0  # atno 6004 bound_to 5270
   14.3496   10.1291    9.1591 LP  0  0  0  0  0  0  0  0  0  0  0  0  # atno 6005 bound_to 5270
   10.2353   18.9576    7.2400 LP  0  0  0  0  0  0  0  0  0  0  0  0  # atno 6055 bound_to 637 
   11.3766   19.4375    8.3049 LP  0  0  0  0  0  0  0  0  0  0  0  0  # atno 6056 bound_to 637 
    0.7451   11.9285   11.0953 LP  0  0  0  0  0  0  0  0  0  0  0  0  # atno 6063 bound_to 1878
    2.2327   11.8510   10.4262 LP  0  0  0  0  0  0  0  0  0  0  0  0  # atno 6064 bound_to 1878
   -6.5282   15.6564   -1.4546 LP  0  0  0  0  0  0  0  0  0  0  0  0  # atno 6067 bound_to 957 
   -6.7417   17.1958   -0.9534 LP  0  0  0  0  0  0  0  0  0  0  0  0  # atno 6068 bound_to 957 

>  <STRIFE_LigEff_Score>  (169) 
2.474727777777778

$$$$
unknown|pharmsElabsTestPreDocking|sdf|170|dock3
     RDKit          3D

 16 16  0  0  0  0  0  0  0  0999 V2000
    4.7740    9.9744    2.7743 C   0  0  0  0  0  0  0  0  0  0  0  0
    5.5053   10.0585    4.0906 C   0  0  0  0  0  0  0  0  0  0  0  0
    4.6395    9.8760    5.3437 C   0  0  0  0  0  0  0  0  0  0  0  0
    3.5985    8.9008    5.0191 N   0  0  0  0  0  0  0  0  0  0  0  0
    6.8527    9.5068    4.0760 N   0  0  0  0  0  0  0  0  0  0  0  0
    7.7857    9.4500    2.9979 C   0  0  0  0  0  0  0  0  0  0  0  0
    7.5643   10.0982    1.9408 O   0  0  0  0  0  0  0  0  0  0  0  0
    9.1360    8.8195    3.2386 C   0  0  0  0  0  0  0  0  0  0  0  0
    9.4762    7.8217    2.1333 C   0  0  0  0  0  0  0  0  0  0  0  0
   10.7736    7.0781    2.4249 C   0  0  0  0  0  0  0  0  0  0  0  0
   11.9549    7.9537    2.9225 C   0  0  0  0  0  0  0  0  0  0  0  0
   13.2834    7.9663    2.1394 C   0  0  0  0  0  0  0  0  0  0  0  0
   14.5864    8.0571    2.9334 C   0  0  0  0  0  0  0  0  0  0  0  0
   13.2715    8.9383    1.0373 N   0  0  0  0  0  0  0  0  0  0  0  0
   11.6016    9.3209    3.5820 C   0  0  0  0  0  0  0  0  0  0  0  0
   10.2184    9.8967    3.2842 C   0  0  0  0  0  0  0  0  0  0  0  0
  1  2  1  0
  2  3  1  0
  3  4  1  0
  2  5  1  0
  5  6  1  0
  6  7  2  0
  6  8  1  0
  8  9  1  0
  9 10  1  0
 10 11  1  0
 11 12  1  0
 12 13  1  0
 12 14  1  0
 11 15  1  0
 15 16  1  0
 16  8  1  0
M  CHG  2   4   1  14   1
M  END
>  <EmbedRMS>  (170) 
0.3005344476337905

>  <Gold.Version>  (170) 
2020.3.0

>  <Gold.Id.Protein>  (170) 
unknown|1q8t_protein|pdb

>  <Gold.PLP.Fitness>  (170) 
40.1151

>  <Gold.PLP.PLP>  (170) 
-32.6879

>  <Gold.PLP.part.hbond>  (170) 
-2.0000

>  <Gold.PLP.part.metal>  (170) 
0.0000

>  <Gold.PLP.part.buried>  (170) 
-3.0599

>  <Gold.PLP.part.nonpolar>  (170) 
-28.0050

>  <Gold.PLP.part.repulsive>  (170) 
0.0968

>  <Gold.PLP.ligand.clash>  (170) 
0.0000

>  <Gold.PLP.ligand.torsion>  (170) 
1.2436

>  <Gold.PLP.Chemscore.Hbond>  (170) 
3.0000

>  <Gold.PLP.Chemscore.CHOScore>  (170) 
0.0000

>  <Gold.PLP.Chemscore.Metal>  (170) 
0.0000

>  <Gold.Chemscore.Hbonds>  (170) 
donor molecule, donor type, donor heavy atom, donor atom, acceptor molecule, acceptor atom, score
      L1  H     4    23       P1  1891  1.00
      L1  H    14    39       P1  2902  2.00

>  <Gold.PLP.Chemscore.Internal.Correction>  (170) 
0.9142

>  <Gold.PLP.Constraint>  (170) 
-0.0000

>  <Gold.Protein.RotatedTorsions>  (170) 
[  681  677  676  673 ] final  132.51 input -179.99 | X-H torsion
[  702  698  697  694 ] final   18.90 input  179.99 | X-H torsion
[ 2577 2569 2568 2566 ] final -148.31 input   -0.13 | X-H torsion
[ 2891 2887 2886 2883 ] final   40.74 input  179.98 | X-H torsion
[ 3175 3171 3170 3167 ] final   79.65 input -179.99 | X-H torsion
[ 5278 5270 5269 5267 ] final   72.80 input    0.55 | X-H torsion
[  641  637  636  633 ] final -113.48 input  179.99 | X-H torsion
[ 1886 1878 1877 1875 ] final  108.70 input    1.60 | X-H torsion
[  965  957  956  954 ] final    9.07 input    0.45 | X-H torsion

>  <Gold.Protein.ActiveResidues>  (170) 
 LYS47   THR48   LEU49   GLY50   THR51   GLY52   SER53   PHE54   GLY55   ARG56  
 VAL57   MET58   LEU59   TYR69   ALA70   MET71   LYS72   ILE73   LEU74   GLU91  
 LEU95   VAL104  LYS105  MET118  VAL119  MET120  GLU121  TYR122  VAL123  PRO124 
 GLY125  GLY126  GLU127  MET128  PHE129  TYR164  ASP166  LEU167  LYS168  PRO169 
 GLU170  ASN171  LEU172  LEU173  ILE174  GLN181  VAL182  THR183  ASP184  PHE185 
 GLY186  PHE187  GLY200  THR201  ASN326  PHE327  TYR330  ARG18   ARG19   ASN20  
 ALA21   ILE22   HIS23  

>  <Gold.Protein.RotatedAtoms>  (170) 
   10.9537   18.9842    7.4072 H   0  0  0  0  0  0  0  0  0  0  0  0  # atno 641  bound_to 637 
   17.2524   13.5188    6.4728 H   0  0  0  0  0  0  0  0  0  0  0  0  # atno 681  bound_to 677 
   19.3781   11.8513   -0.9088 H   0  0  0  0  0  0  0  0  0  0  0  0  # atno 702  bound_to 698 
   -6.7760   15.3778   -0.8766 H   0  0  0  0  0  0  0  0  0  0  0  0  # atno 965  bound_to 957 
    1.3241   12.2944   10.8835 H   0  0  0  0  0  0  0  0  0  0  0  0  # atno 1886 bound_to 1878
   10.9486    2.2890   -2.6025 H   0  0  0  0  0  0  0  0  0  0  0  0  # atno 2577 bound_to 2569
    8.3226    5.9898    0.2143 H   0  0  0  0  0  0  0  0  0  0  0  0  # atno 2891 bound_to 2887
   18.2083    2.0736   -1.1827 H   0  0  0  0  0  0  0  0  0  0  0  0  # atno 3175 bound_to 3171
   13.0547   10.2027    8.8757 H   0  0  0  0  0  0  0  0  0  0  0  0  # atno 5278 bound_to 5270
   15.9972   12.5512    6.3167 LP  0  0  0  0  0  0  0  0  0  0  0  0  # atno 5914 bound_to 677 
   16.0184   13.7173    7.4597 LP  0  0  0  0  0  0  0  0  0  0  0  0  # atno 5915 bound_to 677 
   20.8797   11.5597   -0.4644 LP  0  0  0  0  0  0  0  0  0  0  0  0  # atno 5920 bound_to 698 
   20.4790   11.6612   -2.0442 LP  0  0  0  0  0  0  0  0  0  0  0  0  # atno 5921 bound_to 698 
    9.3583    2.2347   -2.6609 LP  0  0  0  0  0  0  0  0  0  0  0  0  # atno 5950 bound_to 2569
   10.1843    3.4194   -3.4231 LP  0  0  0  0  0  0  0  0  0  0  0  0  # atno 5951 bound_to 2569
    7.3179    5.2966    1.2373 LP  0  0  0  0  0  0  0  0  0  0  0  0  # atno 5982 bound_to 2887
    7.5978    6.9043    1.2982 LP  0  0  0  0  0  0  0  0  0  0  0  0  # atno 5983 bound_to 2887
   19.3876    3.0314   -0.7057 LP  0  0  0  0  0  0  0  0  0  0  0  0  # atno 6000 bound_to 3171
   18.3380    2.3951    0.3714 LP  0  0  0  0  0  0  0  0  0  0  0  0  # atno 6001 bound_to 3171
   13.0886    9.8056   10.4177 LP  0  0  0  0  0  0  0  0  0  0  0  0  # atno 6004 bound_to 5270
   14.4725   10.0267    9.5796 LP  0  0  0  0  0  0  0  0  0  0  0  0  # atno 6005 bound_to 5270
   10.8993   19.7249    8.8155 LP  0  0  0  0  0  0  0  0  0  0  0  0  # atno 6055 bound_to 637 
    9.5291   19.3829    7.9957 LP  0  0  0  0  0  0  0  0  0  0  0  0  # atno 6056 bound_to 637 
    2.2381   11.1282   10.3006 LP  0  0  0  0  0  0  0  0  0  0  0  0  # atno 6063 bound_to 1878
    0.7534   10.8081   10.9005 LP  0  0  0  0  0  0  0  0  0  0  0  0  # atno 6064 bound_to 1878
   -6.4986   16.8183   -1.4954 LP  0  0  0  0  0  0  0  0  0  0  0  0  # atno 6067 bound_to 957 
   -7.1730   16.6578   -0.0169 LP  0  0  0  0  0  0  0  0  0  0  0  0  # atno 6068 bound_to 957 

>  <STRIFE_LigEff_Score>  (170) 
2.50719375

$$$$
unknown|pharmsElabsTestPreDocking|sdf|171|dock5
     RDKit          3D

 18 19  0  0  0  0  0  0  0  0999 V2000
   14.7210    9.4840    0.7120 C   0  0  0  0  0  0  0  0  0  0  0  0
   14.2867    8.2539    1.5090 C   0  0  0  0  0  0  0  0  0  0  0  0
   14.0518    7.1077    0.6203 N   0  0  0  0  0  0  0  0  0  0  0  0
   13.1646    8.4231    2.5519 C   0  0  0  0  0  0  0  0  0  0  0  0
   12.2657    7.2113    2.9162 C   0  0  0  0  0  0  0  0  0  0  0  0
   10.7726    7.4154    2.7074 C   0  0  0  0  0  0  0  0  0  0  0  0
   10.3137    8.7703    3.2415 C   0  0  0  0  0  0  0  0  0  0  0  0
    8.8171    8.8865    3.1573 C   0  0  0  0  0  0  0  0  0  0  0  0
    8.2244    8.5852    2.0853 O   0  0  0  0  0  0  0  0  0  0  0  0
    8.0873    9.3647    4.2946 N   0  0  0  0  0  0  0  0  0  0  0  0
    6.6640    9.5034    4.3588 C   0  0  0  0  0  0  0  0  0  0  0  0
    5.8978   10.1749    5.2977 C   0  0  0  0  0  0  0  0  0  0  0  0
    4.6007   10.0355    4.9658 N   0  0  0  0  0  0  0  0  0  0  0  0
    4.5417    9.3142    3.8563 N   0  0  0  0  0  0  0  0  0  0  0  0
    3.3000    8.9292    3.2046 C   0  0  0  0  0  0  0  0  0  0  0  0
    5.7764    8.9610    3.4601 C   0  0  0  0  0  0  0  0  0  0  0  0
   10.9747    9.8777    2.4286 C   0  0  0  0  0  0  0  0  0  0  0  0
   12.4978    9.8327    2.5299 C   0  0  0  0  0  0  0  0  0  0  0  0
  1  2  1  0
  2  3  1  0
  2  4  1  0
  4  5  1  0
  5  6  1  0
  6  7  1  0
  7  8  1  0
  8  9  2  0
  8 10  1  0
 10 11  1  0
 11 12  1  0
 12 13  2  0
 13 14  1  0
 14 15  1  0
 14 16  1  0
  7 17  1  0
 17 18  1  0
 18  4  1  0
 16 11  2  0
M  CHG  1   3   1
M  END
>  <EmbedRMS>  (171) 
0.202216898800577

>  <Gold.Version>  (171) 
2020.3.0

>  <Gold.Id.Protein>  (171) 
unknown|1q8t_protein|pdb

>  <Gold.PLP.Fitness>  (171) 
47.7210

>  <Gold.PLP.PLP>  (171) 
-41.3894

>  <Gold.PLP.part.hbond>  (171) 
-3.0000

>  <Gold.PLP.part.metal>  (171) 
0.0000

>  <Gold.PLP.part.buried>  (171) 
-5.1980

>  <Gold.PLP.part.nonpolar>  (171) 
-33.2362

>  <Gold.PLP.part.repulsive>  (171) 
0.1118

>  <Gold.PLP.ligand.clash>  (171) 
0.0000

>  <Gold.PLP.ligand.torsion>  (171) 
1.4793

>  <Gold.PLP.Chemscore.Hbond>  (171) 
2.9681

>  <Gold.PLP.Chemscore.CHOScore>  (171) 
0.0000

>  <Gold.PLP.Chemscore.Metal>  (171) 
0.0000

>  <Gold.Chemscore.Hbonds>  (171) 
donor molecule, donor type, donor heavy atom, donor atom, acceptor molecule, acceptor atom, score
      L1  H     3    24       P1  2902  2.00
      L1  H     3    25       P1  2691  0.85
      P1  H  2887  2891       L1     9  0.12

>  <Gold.PLP.Chemscore.Internal.Correction>  (171) 
0.3859

>  <Gold.PLP.Constraint>  (171) 
-0.0000

>  <Gold.Protein.RotatedTorsions>  (171) 
[  681  677  676  673 ] final  -95.36 input -179.99 | X-H torsion
[  702  698  697  694 ] final  -55.35 input  179.99 | X-H torsion
[ 2577 2569 2568 2566 ] final -109.06 input   -0.13 | X-H torsion
[ 2891 2887 2886 2883 ] final -162.87 input  179.98 | X-H torsion
[ 3175 3171 3170 3167 ] final   33.17 input -179.99 | X-H torsion
[ 5278 5270 5269 5267 ] final   74.94 input    0.55 | X-H torsion
[  641  637  636  633 ] final -139.75 input  179.99 | X-H torsion
[ 1886 1878 1877 1875 ] final -101.23 input    1.60 | X-H torsion
[  965  957  956  954 ] final  -39.71 input    0.45 | X-H torsion

>  <Gold.Protein.ActiveResidues>  (171) 
 LYS47   THR48   LEU49   GLY50   THR51   GLY52   SER53   PHE54   GLY55   ARG56  
 VAL57   MET58   LEU59   TYR69   ALA70   MET71   LYS72   ILE73   LEU74   GLU91  
 LEU95   VAL104  LYS105  MET118  VAL119  MET120  GLU121  TYR122  VAL123  PRO124 
 GLY125  GLY126  GLU127  MET128  PHE129  TYR164  ASP166  LEU167  LYS168  PRO169 
 GLU170  ASN171  LEU172  LEU173  ILE174  GLN181  VAL182  THR183  ASP184  PHE185 
 GLY186  PHE187  GLY200  THR201  ASN326  PHE327  TYR330  ARG18   ARG19   ASN20  
 ALA21   ILE22   HIS23  

>  <Gold.Protein.RotatedAtoms>  (171) 
   11.2361   19.1047    7.6741 H   0  0  0  0  0  0  0  0  0  0  0  0  # atno 641  bound_to 637 
   15.8911   13.5840    7.3806 H   0  0  0  0  0  0  0  0  0  0  0  0  # atno 681  bound_to 677 
   20.2124   11.6905   -0.2391 H   0  0  0  0  0  0  0  0  0  0  0  0  # atno 702  bound_to 698 
   -6.5079   15.7477   -1.4579 H   0  0  0  0  0  0  0  0  0  0  0  0  # atno 965  bound_to 957 
    1.1195   10.5881   10.6826 H   0  0  0  0  0  0  0  0  0  0  0  0  # atno 1886 bound_to 1878
   11.0613    2.7782   -2.9339 H   0  0  0  0  0  0  0  0  0  0  0  0  # atno 2577 bound_to 2569
    7.2830    6.4851    1.5371 H   0  0  0  0  0  0  0  0  0  0  0  0  # atno 2891 bound_to 2887
   18.7614    2.4544   -1.4035 H   0  0  0  0  0  0  0  0  0  0  0  0  # atno 3175 bound_to 3171
   13.0834   10.2071    8.8590 H   0  0  0  0  0  0  0  0  0  0  0  0  # atno 5278 bound_to 5270
   17.2854   13.6567    6.6147 LP  0  0  0  0  0  0  0  0  0  0  0  0  # atno 5914 bound_to 677 
   16.1629   12.5433    6.2062 LP  0  0  0  0  0  0  0  0  0  0  0  0  # atno 5915 bound_to 677 
   21.0442   11.5522   -1.5905 LP  0  0  0  0  0  0  0  0  0  0  0  0  # atno 5920 bound_to 698 
   19.4368   11.8378   -1.6226 LP  0  0  0  0  0  0  0  0  0  0  0  0  # atno 5921 bound_to 698 
    9.8367    1.9111   -2.4012 LP  0  0  0  0  0  0  0  0  0  0  0  0  # atno 5950 bound_to 2569
    9.5872    3.2280   -3.3339 LP  0  0  0  0  0  0  0  0  0  0  0  0  # atno 5951 bound_to 2569
    8.3429    6.5493    0.3502 LP  0  0  0  0  0  0  0  0  0  0  0  0  # atno 5982 bound_to 2887
    7.6670    5.1303    0.7931 LP  0  0  0  0  0  0  0  0  0  0  0  0  # atno 5983 bound_to 2887
   19.2211    3.0030    0.0189 LP  0  0  0  0  0  0  0  0  0  0  0  0  # atno 6000 bound_to 3171
   17.9225    2.0228   -0.1207 LP  0  0  0  0  0  0  0  0  0  0  0  0  # atno 6001 bound_to 3171
   13.0577    9.8094   10.4010 LP  0  0  0  0  0  0  0  0  0  0  0  0  # atno 6004 bound_to 5270
   14.4731   10.0183    9.6139 LP  0  0  0  0  0  0  0  0  0  0  0  0  # atno 6005 bound_to 5270
   10.4841   19.7905    8.8985 LP  0  0  0  0  0  0  0  0  0  0  0  0  # atno 6055 bound_to 637 
    9.6468   19.1903    7.6315 LP  0  0  0  0  0  0  0  0  0  0  0  0  # atno 6056 bound_to 637 
    0.9110   12.1220   11.0551 LP  0  0  0  0  0  0  0  0  0  0  0  0  # atno 6063 bound_to 1878
    2.2959   11.6106   10.3573 LP  0  0  0  0  0  0  0  0  0  0  0  0  # atno 6064 bound_to 1878
   -6.7749   17.2072   -0.8802 LP  0  0  0  0  0  0  0  0  0  0  0  0  # atno 6067 bound_to 957 
   -7.1790   15.8793   -0.0200 LP  0  0  0  0  0  0  0  0  0  0  0  0  # atno 6068 bound_to 957 

>  <STRIFE_LigEff_Score>  (171) 
2.6511666666666667

$$$$
unknown|pharmsElabsTestPreDocking|sdf|172|dock2
     RDKit          3D

 18 19  0  0  0  0  0  0  0  0999 V2000
   14.3700    9.7134    1.0441 C   0  0  0  0  0  0  0  0  0  0  0  0
   13.6709    8.4483    1.5127 C   0  0  0  0  0  0  0  0  0  0  0  0
   14.0556    7.2359    0.7985 N   0  0  0  0  0  0  0  0  0  0  0  0
   12.1778    8.5835    1.9414 C   0  0  0  0  0  0  0  0  0  0  0  0
   11.4728    7.3305    2.4840 C   0  0  0  0  0  0  0  0  0  0  0  0
    9.9431    7.5161    2.4959 C   0  0  0  0  0  0  0  0  0  0  0  0
    9.4876    8.9741    2.5954 C   0  0  0  0  0  0  0  0  0  0  0  0
    8.0099    9.1548    2.7535 C   0  0  0  0  0  0  0  0  0  0  0  0
    7.4403    9.5178    1.7014 O   0  0  0  0  0  0  0  0  0  0  0  0
    7.2465    8.9460    3.9644 N   0  0  0  0  0  0  0  0  0  0  0  0
    5.8282    9.2551    4.1098 C   0  0  0  0  0  0  0  0  0  0  0  0
    4.9503    8.9810    3.0434 C   0  0  0  0  0  0  0  0  0  0  0  0
    3.5792    9.2538    3.1538 C   0  0  0  0  0  0  0  0  0  0  0  0
    3.0628    9.8125    4.3236 C   0  0  0  0  0  0  0  0  0  0  0  0
    3.9089   10.0898    5.3892 C   0  0  0  0  0  0  0  0  0  0  0  0
    5.2675    9.8052    5.2955 C   0  0  0  0  0  0  0  0  0  0  0  0
   10.4097   10.0432    3.1506 C   0  0  0  0  0  0  0  0  0  0  0  0
   11.9066    9.7796    2.8793 C   0  0  0  0  0  0  0  0  0  0  0  0
  1  2  1  0
  2  3  1  0
  2  4  1  0
  4  5  1  0
  5  6  1  0
  6  7  1  0
  7  8  1  0
  8  9  2  0
  8 10  1  0
 10 11  1  0
 11 12  2  0
 12 13  1  0
 13 14  2  0
 14 15  1  0
 15 16  2  0
  7 17  1  0
 17 18  1  0
 18  4  1  0
 16 11  1  0
M  CHG  1   3   1
M  END
>  <EmbedRMS>  (172) 
0.24964892458419108

>  <Gold.Version>  (172) 
2020.3.0

>  <Gold.Id.Protein>  (172) 
unknown|1q8t_protein|pdb

>  <Gold.PLP.Fitness>  (172) 
56.0442

>  <Gold.PLP.PLP>  (172) 
-47.9285

>  <Gold.PLP.part.hbond>  (172) 
-2.0000

>  <Gold.PLP.part.metal>  (172) 
0.0000

>  <Gold.PLP.part.buried>  (172) 
-0.6873

>  <Gold.PLP.part.nonpolar>  (172) 
-45.6787

>  <Gold.PLP.part.repulsive>  (172) 
0.0578

>  <Gold.PLP.ligand.clash>  (172) 
0.0000

>  <Gold.PLP.ligand.torsion>  (172) 
0.8848

>  <Gold.PLP.Chemscore.Hbond>  (172) 
2.9840

>  <Gold.PLP.Chemscore.CHOScore>  (172) 
0.0000

>  <Gold.PLP.Chemscore.Metal>  (172) 
0.0000

>  <Gold.Chemscore.Hbonds>  (172) 
donor molecule, donor type, donor heavy atom, donor atom, acceptor molecule, acceptor atom, score
      L1  H     3    23       P1  2691  1.00
      L1  H     3    25       P1  2902  1.98

>  <Gold.PLP.Chemscore.Internal.Correction>  (172) 
0.9332

>  <Gold.PLP.Constraint>  (172) 
-0.0000

>  <Gold.Protein.RotatedTorsions>  (172) 
[  681  677  676  673 ] final  179.67 input -179.99 | X-H torsion
[  702  698  697  694 ] final  143.59 input  179.99 | X-H torsion
[ 2577 2569 2568 2566 ] final  101.42 input   -0.13 | X-H torsion
[ 2891 2887 2886 2883 ] final    0.68 input  179.98 | X-H torsion
[ 3175 3171 3170 3167 ] final  -97.68 input -179.99 | X-H torsion
[ 5278 5270 5269 5267 ] final   57.65 input    0.55 | X-H torsion
[  641  637  636  633 ] final   42.81 input  179.99 | X-H torsion
[ 1886 1878 1877 1875 ] final  -59.25 input    1.60 | X-H torsion
[  965  957  956  954 ] final   60.09 input    0.45 | X-H torsion

>  <Gold.Protein.ActiveResidues>  (172) 
 LYS47   THR48   LEU49   GLY50   THR51   GLY52   SER53   PHE54   GLY55   ARG56  
 VAL57   MET58   LEU59   TYR69   ALA70   MET71   LYS72   ILE73   LEU74   GLU91  
 LEU95   VAL104  LYS105  MET118  VAL119  MET120  GLU121  TYR122  VAL123  PRO124 
 GLY125  GLY126  GLU127  MET128  PHE129  TYR164  ASP166  LEU167  LYS168  PRO169 
 GLU170  ASN171  LEU172  LEU173  ILE174  GLN181  VAL182  THR183  ASP184  PHE185 
 GLY186  PHE187  GLY200  THR201  ASN326  PHE327  TYR330  ARG18   ARG19   ASN20  
 ALA21   ILE22   HIS23  

>  <Gold.Protein.RotatedAtoms>  (172) 
    9.7226   19.6052    8.4887 H   0  0  0  0  0  0  0  0  0  0  0  0  # atno 641  bound_to 637 
   16.9984   13.9095    7.0174 H   0  0  0  0  0  0  0  0  0  0  0  0  # atno 681  bound_to 677 
   20.5383   11.6662   -1.9767 H   0  0  0  0  0  0  0  0  0  0  0  0  # atno 702  bound_to 698 
   -7.0744   15.6399   -0.2155 H   0  0  0  0  0  0  0  0  0  0  0  0  # atno 965  bound_to 957 
    1.7077   10.6158   10.4280 H   0  0  0  0  0  0  0  0  0  0  0  0  # atno 1886 bound_to 1878
    9.4861    2.1458   -2.6102 H   0  0  0  0  0  0  0  0  0  0  0  0  # atno 2577 bound_to 2569
    8.0889    5.4396    0.3531 H   0  0  0  0  0  0  0  0  0  0  0  0  # atno 2891 bound_to 2887
   19.1059    2.9094    0.1223 H   0  0  0  0  0  0  0  0  0  0  0  0  # atno 3175 bound_to 3171
   12.8727   10.1649    9.0216 H   0  0  0  0  0  0  0  0  0  0  0  0  # atno 5278 bound_to 5270
   16.6822   12.6960    6.0358 LP  0  0  0  0  0  0  0  0  0  0  0  0  # atno 5914 bound_to 677 
   15.6006   13.1614    7.1673 LP  0  0  0  0  0  0  0  0  0  0  0  0  # atno 5915 bound_to 677 
   19.3149   11.8469   -0.9728 LP  0  0  0  0  0  0  0  0  0  0  0  0  # atno 5920 bound_to 698 
   20.8233   11.5687   -0.4125 LP  0  0  0  0  0  0  0  0  0  0  0  0  # atno 5921 bound_to 698 
   10.0252    3.4038   -3.4239 LP  0  0  0  0  0  0  0  0  0  0  0  0  # atno 5950 bound_to 2569
   11.0572    2.4010   -2.6519 LP  0  0  0  0  0  0  0  0  0  0  0  0  # atno 5951 bound_to 2569
    7.1367    5.8183    1.5722 LP  0  0  0  0  0  0  0  0  0  0  0  0  # atno 5982 bound_to 2887
    8.0250    6.9618    0.8172 LP  0  0  0  0  0  0  0  0  0  0  0  0  # atno 5983 bound_to 2887
   17.8848    1.9731   -0.2875 LP  0  0  0  0  0  0  0  0  0  0  0  0  # atno 6000 bound_to 3171
   18.8962    2.5739   -1.4201 LP  0  0  0  0  0  0  0  0  0  0  0  0  # atno 6001 bound_to 3171
   13.3216    9.7871   10.5023 LP  0  0  0  0  0  0  0  0  0  0  0  0  # atno 6004 bound_to 5270
   14.4309   10.0850    9.3416 LP  0  0  0  0  0  0  0  0  0  0  0  0  # atno 6005 bound_to 5270
   10.4131   18.9370    7.2192 LP  0  0  0  0  0  0  0  0  0  0  0  0  # atno 6055 bound_to 637 
   11.3119   19.5168    8.4531 LP  0  0  0  0  0  0  0  0  0  0  0  0  # atno 6056 bound_to 637 
    0.5884   11.5300   11.0964 LP  0  0  0  0  0  0  0  0  0  0  0  0  # atno 6063 bound_to 1878
    1.9992   12.1734   10.5841 LP  0  0  0  0  0  0  0  0  0  0  0  0  # atno 6064 bound_to 1878
   -6.4457   16.0189   -1.6284 LP  0  0  0  0  0  0  0  0  0  0  0  0  # atno 6067 bound_to 957 
   -6.9117   17.1812   -0.5802 LP  0  0  0  0  0  0  0  0  0  0  0  0  # atno 6068 bound_to 957 

>  <STRIFE_LigEff_Score>  (172) 
3.1135666666666664

$$$$
unknown|pharmsElabsTestPreDocking|sdf|173|dock2
     RDKit          3D

 17 18  0  0  0  0  0  0  0  0999 V2000
   14.5390    8.1050    2.8304 C   0  0  0  0  0  0  0  0  0  0  0  0
   13.2016    7.9412    2.1099 C   0  0  0  0  0  0  0  0  0  0  0  0
   13.0796    8.8395    0.9600 N   0  0  0  0  0  0  0  0  0  0  0  0
   11.9082    7.8875    2.9596 C   0  0  0  0  0  0  0  0  0  0  0  0
   10.7684    7.0998    2.2975 C   0  0  0  0  0  0  0  0  0  0  0  0
    9.3678    7.3697    2.8208 C   0  0  0  0  0  0  0  0  0  0  0  0
    9.1222    8.8315    3.0974 C   0  0  0  0  0  0  0  0  0  0  0  0
    7.6759    9.1811    3.2847 C   0  0  0  0  0  0  0  0  0  0  0  0
    7.4539    9.8786    4.3000 O   0  0  0  0  0  0  0  0  0  0  0  0
    6.5806    8.7923    2.4278 N   0  0  0  0  0  0  0  0  0  0  0  0
    5.1972    9.0800    2.7558 C   0  0  0  0  0  0  0  0  0  0  0  0
    4.6451    9.3086    4.0154 C   0  0  0  0  0  0  0  0  0  0  0  0
    3.3006    9.5200    3.8131 C   0  0  0  0  0  0  0  0  0  0  0  0
    3.0087    9.4284    2.5035 N   0  0  0  0  0  0  0  0  0  0  0  0
    4.1562    9.1599    1.8506 C   0  0  0  0  0  0  0  0  0  0  0  0
   10.1246    9.5312    3.9696 C   0  0  0  0  0  0  0  0  0  0  0  0
   11.5584    9.3015    3.4958 C   0  0  0  0  0  0  0  0  0  0  0  0
  1  2  1  0
  2  3  1  0
  2  4  1  0
  4  5  1  0
  5  6  1  0
  6  7  1  0
  7  8  1  0
  8  9  2  0
  8 10  1  0
 10 11  1  0
 11 12  1  0
 12 13  2  0
 13 14  1  0
 14 15  1  0
  7 16  1  0
 16 17  1  0
 17  4  1  0
 15 11  2  0
M  CHG  1   3   1
M  END
>  <EmbedRMS>  (173) 
0.3005329260886256

>  <Gold.Version>  (173) 
2020.3.0

>  <Gold.Id.Protein>  (173) 
unknown|1q8t_protein|pdb

>  <Gold.PLP.Fitness>  (173) 
49.3755

>  <Gold.PLP.PLP>  (173) 
-40.8696

>  <Gold.PLP.part.hbond>  (173) 
-2.2508

>  <Gold.PLP.part.metal>  (173) 
0.0000

>  <Gold.PLP.part.buried>  (173) 
-3.7131

>  <Gold.PLP.part.nonpolar>  (173) 
-34.7550

>  <Gold.PLP.part.repulsive>  (173) 
0.1041

>  <Gold.PLP.ligand.clash>  (173) 
0.0000

>  <Gold.PLP.ligand.torsion>  (173) 
0.5920

>  <Gold.PLP.Chemscore.Hbond>  (173) 
3.0236

>  <Gold.PLP.Chemscore.CHOScore>  (173) 
0.0000

>  <Gold.PLP.Chemscore.Metal>  (173) 
0.0000

>  <Gold.Chemscore.Hbonds>  (173) 
donor molecule, donor type, donor heavy atom, donor atom, acceptor molecule, acceptor atom, score
      L1  H     3    23       P1  2902  2.00
      L1  H    10    31       P1  2887  0.02
      L1  H    14    34       P1  1855  1.00

>  <Gold.PLP.Chemscore.Internal.Correction>  (173) 
0.6190

>  <Gold.PLP.Constraint>  (173) 
-0.0000

>  <Gold.Protein.RotatedTorsions>  (173) 
[  681  677  676  673 ] final   75.91 input -179.99 | X-H torsion
[  702  698  697  694 ] final  119.31 input  179.99 | X-H torsion
[ 2577 2569 2568 2566 ] final  -67.43 input   -0.13 | X-H torsion
[ 2891 2887 2886 2883 ] final  -26.38 input  179.98 | X-H torsion
[ 3175 3171 3170 3167 ] final  111.51 input -179.99 | X-H torsion
[ 5278 5270 5269 5267 ] final    1.28 input    0.55 | X-H torsion
[  641  637  636  633 ] final  -72.37 input  179.99 | X-H torsion
[ 1886 1878 1877 1875 ] final  -67.28 input    1.60 | X-H torsion
[  965  957  956  954 ] final   18.77 input    0.45 | X-H torsion

>  <Gold.Protein.ActiveResidues>  (173) 
 LYS47   THR48   LEU49   GLY50   THR51   GLY52   SER53   PHE54   GLY55   ARG56  
 VAL57   MET58   LEU59   TYR69   ALA70   MET71   LYS72   ILE73   LEU74   GLU91  
 LEU95   VAL104  LYS105  MET118  VAL119  MET120  GLU121  TYR122  VAL123  PRO124 
 GLY125  GLY126  GLU127  MET128  PHE129  TYR164  ASP166  LEU167  LYS168  PRO169 
 GLU170  ASN171  LEU172  LEU173  ILE174  GLN181  VAL182  THR183  ASP184  PHE185 
 GLY186  PHE187  GLY200  THR201  ASN326  PHE327  TYR330  ARG18   ARG19   ASN20  
 ALA21   ILE22   HIS23  

>  <Gold.Protein.RotatedAtoms>  (173) 
   10.3402   18.9505    7.2741 H   0  0  0  0  0  0  0  0  0  0  0  0  # atno 641  bound_to 637 
   16.8742   12.8748    6.0685 H   0  0  0  0  0  0  0  0  0  0  0  0  # atno 681  bound_to 677 
   20.1708   11.7324   -2.0287 H   0  0  0  0  0  0  0  0  0  0  0  0  # atno 702  bound_to 698 
   -6.8388   15.3757   -0.7388 H   0  0  0  0  0  0  0  0  0  0  0  0  # atno 965  bound_to 957 
    1.5969   10.5745   10.4698 H   0  0  0  0  0  0  0  0  0  0  0  0  # atno 1886 bound_to 1878
   10.7473    3.2218   -3.2649 H   0  0  0  0  0  0  0  0  0  0  0  0  # atno 2577 bound_to 2569
    7.8299    5.2226    0.6011 H   0  0  0  0  0  0  0  0  0  0  0  0  # atno 2891 bound_to 2887
   17.9700    1.9511   -0.7703 H   0  0  0  0  0  0  0  0  0  0  0  0  # atno 3175 bound_to 3171
   12.6593    9.9666    9.8162 H   0  0  0  0  0  0  0  0  0  0  0  0  # atno 5278 bound_to 5270
   15.5771   12.9659    6.9880 LP  0  0  0  0  0  0  0  0  0  0  0  0  # atno 5914 bound_to 677 
   16.8365   13.9806    7.2139 LP  0  0  0  0  0  0  0  0  0  0  0  0  # atno 5915 bound_to 677 
   19.4604   11.8140   -0.6053 LP  0  0  0  0  0  0  0  0  0  0  0  0  # atno 5920 bound_to 698 
   21.0644   11.5320   -0.7253 LP  0  0  0  0  0  0  0  0  0  0  0  0  # atno 5921 bound_to 698 
   10.5055    1.9304   -2.3656 LP  0  0  0  0  0  0  0  0  0  0  0  0  # atno 5950 bound_to 2569
    9.2490    2.7416   -3.0209 LP  0  0  0  0  0  0  0  0  0  0  0  0  # atno 5951 bound_to 2569
    7.1802    6.2540    1.6261 LP  0  0  0  0  0  0  0  0  0  0  0  0  # atno 5982 bound_to 2887
    8.2540    6.7545    0.5023 LP  0  0  0  0  0  0  0  0  0  0  0  0  # atno 5983 bound_to 2887
   19.2242    2.8506   -1.1623 LP  0  0  0  0  0  0  0  0  0  0  0  0  # atno 6000 bound_to 3171
   18.7522    2.7048    0.3941 LP  0  0  0  0  0  0  0  0  0  0  0  0  # atno 6001 bound_to 3171
   14.1802    9.8522   10.2749 LP  0  0  0  0  0  0  0  0  0  0  0  0  # atno 6004 bound_to 5270
   13.7970   10.2285    8.7328 LP  0  0  0  0  0  0  0  0  0  0  0  0  # atno 6005 bound_to 5270
   11.3443   19.4825    8.3894 LP  0  0  0  0  0  0  0  0  0  0  0  0  # atno 6055 bound_to 637 
    9.7302   19.6608    8.5620 LP  0  0  0  0  0  0  0  0  0  0  0  0  # atno 6056 bound_to 637 
    0.6185   11.6583   11.1050 LP  0  0  0  0  0  0  0  0  0  0  0  0  # atno 6063 bound_to 1878
    2.0857   12.0886   10.5315 LP  0  0  0  0  0  0  0  0  0  0  0  0  # atno 6064 bound_to 1878
   -6.4658   16.6813   -1.5702 LP  0  0  0  0  0  0  0  0  0  0  0  0  # atno 6067 bound_to 957 
   -7.1397   16.7970   -0.0873 LP  0  0  0  0  0  0  0  0  0  0  0  0  # atno 6068 bound_to 957 

>  <STRIFE_LigEff_Score>  (173) 
2.904441176470588

$$$$
unknown|pharmsElabsTestPreDocking|sdf|174|dock7
     RDKit          3D

 18 19  0  0  0  0  0  0  0  0999 V2000
   14.4338    9.3944    1.1450 C   0  0  0  0  0  0  0  0  0  0  0  0
   13.6445    8.1649    1.5622 C   0  0  0  0  0  0  0  0  0  0  0  0
   13.9499    6.9557    0.8055 N   0  0  0  0  0  0  0  0  0  0  0  0
   12.1610    8.3882    1.9871 C   0  0  0  0  0  0  0  0  0  0  0  0
   11.4684    7.2704    2.7825 C   0  0  0  0  0  0  0  0  0  0  0  0
    9.9392    7.4605    2.7898 C   0  0  0  0  0  0  0  0  0  0  0  0
    9.4853    8.9110    2.6075 C   0  0  0  0  0  0  0  0  0  0  0  0
    8.0113    9.1250    2.7579 C   0  0  0  0  0  0  0  0  0  0  0  0
    7.4618    9.5367    1.7131 O   0  0  0  0  0  0  0  0  0  0  0  0
    7.2307    8.8972    3.9543 N   0  0  0  0  0  0  0  0  0  0  0  0
    5.8195    9.2384    4.0969 C   0  0  0  0  0  0  0  0  0  0  0  0
    4.9454    9.0216    3.0143 C   0  0  0  0  0  0  0  0  0  0  0  0
    3.5807    9.3265    3.1210 C   0  0  0  0  0  0  0  0  0  0  0  0
    3.0674    9.8607    4.3035 C   0  0  0  0  0  0  0  0  0  0  0  0
    3.9099   10.0816    5.3851 C   0  0  0  0  0  0  0  0  0  0  0  0
    5.2615    9.7647    5.2946 C   0  0  0  0  0  0  0  0  0  0  0  0
   10.4186   10.0655    2.9198 C   0  0  0  0  0  0  0  0  0  0  0  0
   11.9095    9.7476    2.6745 C   0  0  0  0  0  0  0  0  0  0  0  0
  1  2  1  0
  2  3  1  0
  2  4  1  0
  4  5  1  0
  5  6  1  0
  6  7  1  0
  7  8  1  0
  8  9  2  0
  8 10  1  0
 10 11  1  0
 11 12  2  0
 12 13  1  0
 13 14  2  0
 14 15  1  0
 15 16  2  0
  7 17  1  0
 17 18  1  0
 18  4  1  0
 16 11  1  0
M  CHG  1   3   1
M  END
>  <EmbedRMS>  (174) 
0.24964892458419108

>  <Gold.Version>  (174) 
2020.3.0

>  <Gold.Id.Protein>  (174) 
unknown|1q8t_protein|pdb

>  <Gold.PLP.Fitness>  (174) 
55.7251

>  <Gold.PLP.PLP>  (174) 
-47.6755

>  <Gold.PLP.part.hbond>  (174) 
-2.0000

>  <Gold.PLP.part.metal>  (174) 
0.0000

>  <Gold.PLP.part.buried>  (174) 
-1.1615

>  <Gold.PLP.part.nonpolar>  (174) 
-45.1136

>  <Gold.PLP.part.repulsive>  (174) 
0.0793

>  <Gold.PLP.ligand.clash>  (174) 
0.0000

>  <Gold.PLP.ligand.torsion>  (174) 
0.9307

>  <Gold.PLP.Chemscore.Hbond>  (174) 
2.9920

>  <Gold.PLP.Chemscore.CHOScore>  (174) 
0.0000

>  <Gold.PLP.Chemscore.Metal>  (174) 
0.0000

>  <Gold.Chemscore.Hbonds>  (174) 
donor molecule, donor type, donor heavy atom, donor atom, acceptor molecule, acceptor atom, score
      L1  H     3    23       P1  2691  0.99
      L1  H     3    25       P1  2902  2.00

>  <Gold.PLP.Chemscore.Internal.Correction>  (174) 
0.9350

>  <Gold.PLP.Constraint>  (174) 
-0.0000

>  <Gold.Protein.RotatedTorsions>  (174) 
[  681  677  676  673 ] final   50.15 input -179.99 | X-H torsion
[  702  698  697  694 ] final   43.62 input  179.99 | X-H torsion
[ 2577 2569 2568 2566 ] final  -13.72 input   -0.13 | X-H torsion
[ 2891 2887 2886 2883 ] final  -34.55 input  179.98 | X-H torsion
[ 3175 3171 3170 3167 ] final  105.14 input -179.99 | X-H torsion
[ 5278 5270 5269 5267 ] final  114.45 input    0.55 | X-H torsion
[  641  637  636  633 ] final   89.85 input  179.99 | X-H torsion
[ 1886 1878 1877 1875 ] final   64.17 input    1.60 | X-H torsion
[  965  957  956  954 ] final  -90.61 input    0.45 | X-H torsion

>  <Gold.Protein.ActiveResidues>  (174) 
 LYS47   THR48   LEU49   GLY50   THR51   GLY52   SER53   PHE54   GLY55   ARG56  
 VAL57   MET58   LEU59   TYR69   ALA70   MET71   LYS72   ILE73   LEU74   GLU91  
 LEU95   VAL104  LYS105  MET118  VAL119  MET120  GLU121  TYR122  VAL123  PRO124 
 GLY125  GLY126  GLU127  MET128  PHE129  TYR164  ASP166  LEU167  LYS168  PRO169 
 GLU170  ASN171  LEU172  LEU173  ILE174  GLN181  VAL182  THR183  ASP184  PHE185 
 GLY186  PHE187  GLY200  THR201  ASN326  PHE327  TYR330  ARG18   ARG19   ASN20  
 ALA21   ILE22   HIS23  

>  <Gold.Protein.RotatedAtoms>  (174) 
   10.3209   19.7559    8.8492 H   0  0  0  0  0  0  0  0  0  0  0  0  # atno 641  bound_to 637 
   16.5301   12.6725    6.0812 H   0  0  0  0  0  0  0  0  0  0  0  0  # atno 681  bound_to 677 
   19.3644   11.8611   -1.2921 H   0  0  0  0  0  0  0  0  0  0  0  0  # atno 702  bound_to 698 
   -6.4459   16.5052   -1.5784 H   0  0  0  0  0  0  0  0  0  0  0  0  # atno 965  bound_to 957 
    1.9260   12.1686   10.5966 H   0  0  0  0  0  0  0  0  0  0  0  0  # atno 1886 bound_to 1878
    9.9597    3.3410   -3.4054 H   0  0  0  0  0  0  0  0  0  0  0  0  # atno 2577 bound_to 2569
    7.7453    5.1921    0.6918 H   0  0  0  0  0  0  0  0  0  0  0  0  # atno 2891 bound_to 2887
   18.0029    1.9633   -0.8635 H   0  0  0  0  0  0  0  0  0  0  0  0  # atno 3175 bound_to 3171
   13.6795   10.2386    8.7567 H   0  0  0  0  0  0  0  0  0  0  0  0  # atno 5278 bound_to 5270
   15.6458   13.2808    7.2577 LP  0  0  0  0  0  0  0  0  0  0  0  0  # atno 5914 bound_to 677 
   17.1299   13.8785    6.9308 LP  0  0  0  0  0  0  0  0  0  0  0  0  # atno 5915 bound_to 677 
   20.5430   11.6152   -0.2490 LP  0  0  0  0  0  0  0  0  0  0  0  0  # atno 5920 bound_to 698 
   20.8301   11.5953   -1.8564 LP  0  0  0  0  0  0  0  0  0  0  0  0  # atno 5921 bound_to 698 
   11.0822    2.4642   -2.6939 LP  0  0  0  0  0  0  0  0  0  0  0  0  # atno 5950 bound_to 2569
    9.5016    2.0823   -2.5446 LP  0  0  0  0  0  0  0  0  0  0  0  0  # atno 5951 bound_to 2569
    7.2196    6.3816    1.6111 LP  0  0  0  0  0  0  0  0  0  0  0  0  # atno 5982 bound_to 2887
    8.3037    6.6589    0.4218 LP  0  0  0  0  0  0  0  0  0  0  0  0  # atno 5983 bound_to 2887
   19.2736    2.8976   -1.0828 LP  0  0  0  0  0  0  0  0  0  0  0  0  # atno 6000 bound_to 3171
   18.6681    2.6449    0.4126 LP  0  0  0  0  0  0  0  0  0  0  0  0  # atno 6001 bound_to 3171
   12.6468    9.9219    9.9272 LP  0  0  0  0  0  0  0  0  0  0  0  0  # atno 6004 bound_to 5270
   14.2569    9.8726   10.1953 LP  0  0  0  0  0  0  0  0  0  0  0  0  # atno 6005 bound_to 5270
    9.7431   19.1218    7.5079 LP  0  0  0  0  0  0  0  0  0  0  0  0  # atno 6055 bound_to 637 
   11.3517   19.1733    7.7847 LP  0  0  0  0  0  0  0  0  0  0  0  0  # atno 6056 bound_to 637 
    1.7771   10.5940   10.4127 LP  0  0  0  0  0  0  0  0  0  0  0  0  # atno 6063 bound_to 1878
    0.5806   11.4748   11.0904 LP  0  0  0  0  0  0  0  0  0  0  0  0  # atno 6064 bound_to 1878
   -7.0928   16.9318   -0.1875 LP  0  0  0  0  0  0  0  0  0  0  0  0  # atno 6067 bound_to 957 
   -6.9265   15.3569   -0.5857 LP  0  0  0  0  0  0  0  0  0  0  0  0  # atno 6068 bound_to 957 

>  <STRIFE_LigEff_Score>  (174) 
3.095838888888889

$$$$
unknown|pharmsElabsTestPreDocking|sdf|175|dock8
     RDKit          3D

 18 18  0  0  0  0  0  0  0  0999 V2000
    4.3836    9.1173    1.4987 C   0  0  0  0  0  0  0  0  0  0  0  0
    3.9498    9.3321    2.7437 C   0  0  0  0  0  0  0  0  0  0  0  0
    2.5806    9.4935    2.9676 O   0  0  0  0  0  0  0  0  0  0  0  0
    4.8912    9.4541    3.8897 C   0  0  0  0  0  0  0  0  0  0  0  0
    4.5305   10.2005    4.9478 C   0  0  0  0  0  0  0  0  0  0  0  0
    5.4206   10.4177    6.1329 C   0  0  0  0  0  0  0  0  0  0  0  0
    6.2095    8.8741    3.8434 N   0  0  0  0  0  0  0  0  0  0  0  0
    7.2475    9.2770    2.9393 C   0  0  0  0  0  0  0  0  0  0  0  0
    7.0063   10.0886    2.0020 O   0  0  0  0  0  0  0  0  0  0  0  0
    8.6390    8.7348    3.1343 C   0  0  0  0  0  0  0  0  0  0  0  0
    9.0303    7.8244    1.9736 C   0  0  0  0  0  0  0  0  0  0  0  0
   10.3691    7.1448    2.2254 C   0  0  0  0  0  0  0  0  0  0  0  0
   11.4941    8.0622    2.7755 C   0  0  0  0  0  0  0  0  0  0  0  0
   12.8213    8.1893    2.0016 C   0  0  0  0  0  0  0  0  0  0  0  0
   14.1193    8.2693    2.8051 C   0  0  0  0  0  0  0  0  0  0  0  0
   12.7704    9.2426    0.9785 N   0  0  0  0  0  0  0  0  0  0  0  0
   11.0622    9.3760    3.4962 C   0  0  0  0  0  0  0  0  0  0  0  0
    9.6434    9.8780    3.2331 C   0  0  0  0  0  0  0  0  0  0  0  0
  1  2  2  0
  2  3  1  0
  2  4  1  0
  4  5  2  0
  5  6  1  0
  4  7  1  0
  7  8  1  0
  8  9  2  0
  8 10  1  0
 10 11  1  0
 11 12  1  0
 12 13  1  0
 13 14  1  0
 14 15  1  0
 14 16  1  0
 13 17  1  0
 17 18  1  0
 18 10  1  0
M  CHG  1  16   1
M  END
>  <EmbedRMS>  (175) 
0.20265595005683737

>  <Gold.Version>  (175) 
2020.3.0

>  <Gold.Id.Protein>  (175) 
unknown|1q8t_protein|pdb

>  <Gold.PLP.Fitness>  (175) 
44.9404

>  <Gold.PLP.PLP>  (175) 
-38.1973

>  <Gold.PLP.part.hbond>  (175) 
-3.0000

>  <Gold.PLP.part.metal>  (175) 
0.0000

>  <Gold.PLP.part.buried>  (175) 
-1.9471

>  <Gold.PLP.part.nonpolar>  (175) 
-34.9043

>  <Gold.PLP.part.repulsive>  (175) 
0.0000

>  <Gold.PLP.ligand.clash>  (175) 
0.0000

>  <Gold.PLP.ligand.torsion>  (175) 
1.4522

>  <Gold.PLP.Chemscore.Hbond>  (175) 
2.8036

>  <Gold.PLP.Chemscore.CHOScore>  (175) 
0.0000

>  <Gold.PLP.Chemscore.Metal>  (175) 
0.0000

>  <Gold.Chemscore.Hbonds>  (175) 
donor molecule, donor type, donor heavy atom, donor atom, acceptor molecule, acceptor atom, score
      L1  H     3    21       P1  1855  0.64
      L1  H    16    37       P1  2902  1.95
      P1  H  1888  1903       L1     3  0.21

>  <Gold.PLP.Chemscore.Internal.Correction>  (175) 
1.2365

>  <Gold.PLP.Constraint>  (175) 
-0.0000

>  <Gold.Protein.RotatedTorsions>  (175) 
[  681  677  676  673 ] final  153.04 input -179.99 | X-H torsion
[  702  698  697  694 ] final  140.87 input  179.99 | X-H torsion
[ 2577 2569 2568 2566 ] final    8.43 input   -0.13 | X-H torsion
[ 2891 2887 2886 2883 ] final   20.72 input  179.98 | X-H torsion
[ 3175 3171 3170 3167 ] final   56.06 input -179.99 | X-H torsion
[ 5278 5270 5269 5267 ] final -157.71 input    0.55 | X-H torsion
[  641  637  636  633 ] final   51.35 input  179.99 | X-H torsion
[ 1886 1878 1877 1875 ] final   84.84 input    1.60 | X-H torsion
[  965  957  956  954 ] final  122.24 input    0.45 | X-H torsion

>  <Gold.Protein.ActiveResidues>  (175) 
 LYS47   THR48   LEU49   GLY50   THR51   GLY52   SER53   PHE54   GLY55   ARG56  
 VAL57   MET58   LEU59   TYR69   ALA70   MET71   LYS72   ILE73   LEU74   GLU91  
 LEU95   VAL104  LYS105  MET118  VAL119  MET120  GLU121  TYR122  VAL123  PRO124 
 GLY125  GLY126  GLU127  MET128  PHE129  TYR164  ASP166  LEU167  LYS168  PRO169 
 GLU170  ASN171  LEU172  LEU173  ILE174  GLN181  VAL182  THR183  ASP184  PHE185 
 GLY186  PHE187  GLY200  THR201  ASN326  PHE327  TYR330  ARG18   ARG19   ASN20  
 ALA21   ILE22   HIS23  

>  <Gold.Protein.RotatedAtoms>  (175) 
    9.8041   19.6496    8.5845 H   0  0  0  0  0  0  0  0  0  0  0  0  # atno 641  bound_to 637 
   17.2044   13.7276    6.7095 H   0  0  0  0  0  0  0  0  0  0  0  0  # atno 681  bound_to 677 
   20.4987   11.6735   -1.9903 H   0  0  0  0  0  0  0  0  0  0  0  0  # atno 702  bound_to 698 
   -7.1570   16.5385   -0.0153 H   0  0  0  0  0  0  0  0  0  0  0  0  # atno 965  bound_to 957 
    1.6626   12.2914   10.7337 H   0  0  0  0  0  0  0  0  0  0  0  0  # atno 1886 bound_to 1878
    9.6490    3.2100   -3.3372 H   0  0  0  0  0  0  0  0  0  0  0  0  # atno 2577 bound_to 2569
    8.2353    5.6923    0.2441 H   0  0  0  0  0  0  0  0  0  0  0  0  # atno 2891 bound_to 2887
   18.4751    2.2475   -1.3634 H   0  0  0  0  0  0  0  0  0  0  0  0  # atno 3175 bound_to 3171
   14.4187   10.0065    9.7289 H   0  0  0  0  0  0  0  0  0  0  0  0  # atno 5278 bound_to 5270
   16.2852   12.5567    6.1437 LP  0  0  0  0  0  0  0  0  0  0  0  0  # atno 5914 bound_to 677 
   15.7809   13.4922    7.3835 LP  0  0  0  0  0  0  0  0  0  0  0  0  # atno 5915 bound_to 677 
   19.3234   11.8445   -0.9289 LP  0  0  0  0  0  0  0  0  0  0  0  0  # atno 5920 bound_to 698 
   20.8565   11.5633   -0.4421 LP  0  0  0  0  0  0  0  0  0  0  0  0  # atno 5921 bound_to 698 
   11.1124    2.7617   -2.8983 LP  0  0  0  0  0  0  0  0  0  0  0  0  # atno 5950 bound_to 2569
    9.7985    1.9227   -2.4121 LP  0  0  0  0  0  0  0  0  0  0  0  0  # atno 5951 bound_to 2569
    7.1930    5.5249    1.4367 LP  0  0  0  0  0  0  0  0  0  0  0  0  # atno 5982 bound_to 2887
    7.8146    6.9891    1.0675 LP  0  0  0  0  0  0  0  0  0  0  0  0  # atno 5983 bound_to 2887
   19.3623    3.0628   -0.3224 LP  0  0  0  0  0  0  0  0  0  0  0  0  # atno 6000 bound_to 3171
   18.0826    2.1806    0.1783 LP  0  0  0  0  0  0  0  0  0  0  0  0  # atno 6001 bound_to 3171
   13.1686   10.2143    8.7640 LP  0  0  0  0  0  0  0  0  0  0  0  0  # atno 6004 bound_to 5270
   12.9574    9.8244   10.3357 LP  0  0  0  0  0  0  0  0  0  0  0  0  # atno 6005 bound_to 5270
   10.2740   18.9517    7.2328 LP  0  0  0  0  0  0  0  0  0  0  0  0  # atno 6055 bound_to 637 
   11.3651   19.4553    8.3385 LP  0  0  0  0  0  0  0  0  0  0  0  0  # atno 6056 bound_to 637 
    2.0363   10.7963   10.3329 LP  0  0  0  0  0  0  0  0  0  0  0  0  # atno 6063 bound_to 1878
    0.5988   11.1432   11.0258 LP  0  0  0  0  0  0  0  0  0  0  0  0  # atno 6064 bound_to 1878
   -6.7432   15.3483   -0.9886 LP  0  0  0  0  0  0  0  0  0  0  0  0  # atno 6067 bound_to 957 
   -6.5271   16.9054   -1.4308 LP  0  0  0  0  0  0  0  0  0  0  0  0  # atno 6068 bound_to 957 

>  <STRIFE_LigEff_Score>  (175) 
2.4966888888888885

$$$$
unknown|pharmsElabsTestPreDocking|sdf|176|dock6
     RDKit          3D

 17 18  0  0  0  0  0  0  0  0999 V2000
   13.7309    7.1129    3.5197 C   0  0  0  0  0  0  0  0  0  0  0  0
   13.4649    7.9527    2.2547 C   0  0  0  0  0  0  0  0  0  0  0  0
   13.7431    7.1353    1.0668 N   0  0  0  0  0  0  0  0  0  0  0  0
   12.0042    8.4927    2.2678 C   0  0  0  0  0  0  0  0  0  0  0  0
   11.0085    7.3155    2.3197 C   0  0  0  0  0  0  0  0  0  0  0  0
    9.5825    7.8265    2.1716 C   0  0  0  0  0  0  0  0  0  0  0  0
    9.2504    8.8025    3.3048 C   0  0  0  0  0  0  0  0  0  0  0  0
    7.8386    9.2937    3.1693 C   0  0  0  0  0  0  0  0  0  0  0  0
    7.4982    9.9613    2.1544 O   0  0  0  0  0  0  0  0  0  0  0  0
    6.9000    8.9950    4.2105 N   0  0  0  0  0  0  0  0  0  0  0  0
    5.5159    9.3612    4.2183 C   0  0  0  0  0  0  0  0  0  0  0  0
    4.7798    9.8304    5.2944 C   0  0  0  0  0  0  0  0  0  0  0  0
    3.5031   10.0307    4.8142 C   0  0  0  0  0  0  0  0  0  0  0  0
    3.5162    9.6793    3.4793 C   0  0  0  0  0  0  0  0  0  0  0  0
    4.7449    9.2721    3.1206 N   0  0  0  0  0  0  0  0  0  0  0  0
   10.2447    9.9753    3.3479 C   0  0  0  0  0  0  0  0  0  0  0  0
   11.6942    9.4682    3.4305 C   0  0  0  0  0  0  0  0  0  0  0  0
  1  2  1  0
  2  3  1  0
  2  4  1  0
  4  5  1  0
  5  6  1  0
  6  7  1  0
  7  8  1  0
  8  9  2  0
  8 10  1  0
 10 11  1  0
 11 12  2  0
 12 13  1  0
 13 14  2  0
 14 15  1  0
  7 16  1  0
 16 17  1  0
 17  4  1  0
 15 11  1  0
M  CHG  1   3   1
M  END
>  <EmbedRMS>  (176) 
0.03061905892919758

>  <Gold.Version>  (176) 
2020.3.0

>  <Gold.Id.Protein>  (176) 
unknown|1q8t_protein|pdb

>  <Gold.PLP.Fitness>  (176) 
53.6422

>  <Gold.PLP.PLP>  (176) 
-42.2965

>  <Gold.PLP.part.hbond>  (176) 
-2.0000

>  <Gold.PLP.part.metal>  (176) 
0.0000

>  <Gold.PLP.part.buried>  (176) 
-4.2088

>  <Gold.PLP.part.nonpolar>  (176) 
-36.6688

>  <Gold.PLP.part.repulsive>  (176) 
0.0620

>  <Gold.PLP.ligand.clash>  (176) 
0.0000

>  <Gold.PLP.ligand.torsion>  (176) 
0.3466

>  <Gold.PLP.Chemscore.Hbond>  (176) 
3.0000

>  <Gold.PLP.Chemscore.CHOScore>  (176) 
1.0000

>  <Gold.PLP.Chemscore.Metal>  (176) 
0.0000

>  <Gold.Chemscore.Hbonds>  (176) 
donor molecule, donor type, donor heavy atom, donor atom, acceptor molecule, acceptor atom, score
      L1  H     3    22       P1  2902  2.00
      L1  H     3    24       P1  2691  1.00
      L1  C    14    34       P1  1855  1.00

>  <Gold.PLP.Chemscore.Internal.Correction>  (176) 
0.0390

>  <Gold.PLP.Constraint>  (176) 
-0.0000

>  <Gold.Protein.RotatedTorsions>  (176) 
[  681  677  676  673 ] final  -87.69 input -179.99 | X-H torsion
[  702  698  697  694 ] final    7.75 input  179.99 | X-H torsion
[ 2577 2569 2568 2566 ] final  -92.39 input   -0.13 | X-H torsion
[ 2891 2887 2886 2883 ] final   64.99 input  179.98 | X-H torsion
[ 3175 3171 3170 3167 ] final  -90.57 input -179.99 | X-H torsion
[ 5278 5270 5269 5267 ] final   52.59 input    0.55 | X-H torsion
[  641  637  636  633 ] final  -73.73 input  179.99 | X-H torsion
[ 1886 1878 1877 1875 ] final  -83.04 input    1.60 | X-H torsion
[  965  957  956  954 ] final  -69.01 input    0.45 | X-H torsion

>  <Gold.Protein.ActiveResidues>  (176) 
 LYS47   THR48   LEU49   GLY50   THR51   GLY52   SER53   PHE54   GLY55   ARG56  
 VAL57   MET58   LEU59   TYR69   ALA70   MET71   LYS72   ILE73   LEU74   GLU91  
 LEU95   VAL104  LYS105  MET118  VAL119  MET120  GLU121  TYR122  VAL123  PRO124 
 GLY125  GLY126  GLU127  MET128  PHE129  TYR164  ASP166  LEU167  LYS168  PRO169 
 GLU170  ASN171  LEU172  LEU173  ILE174  GLN181  VAL182  THR183  ASP184  PHE185 
 GLY186  PHE187  GLY200  THR201  ASN326  PHE327  TYR330  ARG18   ARG19   ASN20  
 ALA21   ILE22   HIS23  

>  <Gold.Protein.RotatedAtoms>  (176) 
   10.3613   18.9483    7.2721 H   0  0  0  0  0  0  0  0  0  0  0  0  # atno 641  bound_to 637 
   15.8138   13.4997    7.3450 H   0  0  0  0  0  0  0  0  0  0  0  0  # atno 681  bound_to 677 
   19.4367   11.8377   -0.7454 H   0  0  0  0  0  0  0  0  0  0  0  0  # atno 702  bound_to 698 
   -6.4376   16.1708   -1.6036 H   0  0  0  0  0  0  0  0  0  0  0  0  # atno 965  bound_to 957 
    1.3721   10.5424   10.5635 H   0  0  0  0  0  0  0  0  0  0  0  0  # atno 1886 bound_to 1878
   10.9849    2.9793   -3.0791 H   0  0  0  0  0  0  0  0  0  0  0  0  # atno 2577 bound_to 2569
    8.3350    6.3586    0.2883 H   0  0  0  0  0  0  0  0  0  0  0  0  # atno 2891 bound_to 2887
   19.1710    2.9469    0.0405 H   0  0  0  0  0  0  0  0  0  0  0  0  # atno 3175 bound_to 3171
   12.8216   10.1499    9.0800 H   0  0  0  0  0  0  0  0  0  0  0  0  # atno 5278 bound_to 5270
   17.2553   13.7338    6.7097 LP  0  0  0  0  0  0  0  0  0  0  0  0  # atno 5914 bound_to 677 
   16.2744   12.5549    6.1486 LP  0  0  0  0  0  0  0  0  0  0  0  0  # atno 5915 bound_to 677 
   20.9956   11.5418   -0.6051 LP  0  0  0  0  0  0  0  0  0  0  0  0  # atno 5920 bound_to 698 
   20.3014   11.6933   -2.0754 LP  0  0  0  0  0  0  0  0  0  0  0  0  # atno 5921 bound_to 698 
   10.1026    1.8702   -2.3533 LP  0  0  0  0  0  0  0  0  0  0  0  0  # atno 5950 bound_to 2569
    9.4017    3.0571   -3.2288 LP  0  0  0  0  0  0  0  0  0  0  0  0  # atno 5951 bound_to 2569
    7.5389    5.1457    0.9453 LP  0  0  0  0  0  0  0  0  0  0  0  0  # atno 5982 bound_to 2887
    7.3639    6.6670    1.5124 LP  0  0  0  0  0  0  0  0  0  0  0  0  # atno 5983 bound_to 2887
   17.9066    2.0037   -0.1768 LP  0  0  0  0  0  0  0  0  0  0  0  0  # atno 6000 bound_to 3171
   18.8059    2.5038   -1.4448 LP  0  0  0  0  0  0  0  0  0  0  0  0  # atno 6001 bound_to 3171
   13.4035    9.7844   10.5169 LP  0  0  0  0  0  0  0  0  0  0  0  0  # atno 6004 bound_to 5270
   14.4028   10.1035    9.2655 LP  0  0  0  0  0  0  0  0  0  0  0  0  # atno 6005 bound_to 5270
   11.3357   19.4923    8.4076 LP  0  0  0  0  0  0  0  0  0  0  0  0  # atno 6055 bound_to 637 
    9.7166   19.6533    8.5458 LP  0  0  0  0  0  0  0  0  0  0  0  0  # atno 6056 bound_to 637 
    0.7236   11.8945   11.0989 LP  0  0  0  0  0  0  0  0  0  0  0  0  # atno 6063 bound_to 1878
    2.2173   11.8861   10.4390 LP  0  0  0  0  0  0  0  0  0  0  0  0  # atno 6064 bound_to 1878
   -6.9706   17.1320   -0.4517 LP  0  0  0  0  0  0  0  0  0  0  0  0  # atno 6067 bound_to 957 
   -7.0574   15.5089   -0.2949 LP  0  0  0  0  0  0  0  0  0  0  0  0  # atno 6068 bound_to 957 

>  <STRIFE_LigEff_Score>  (176) 
3.155423529411765

$$$$
unknown|pharmsElabsTestPreDocking|sdf|177|dock6
     RDKit          3D

 19 19  0  0  0  0  0  0  0  0999 V2000
   14.8913    8.6373    2.0356 C   0  0  0  0  0  0  0  0  0  0  0  0
   13.7679    7.6027    2.0873 C   0  0  0  0  0  0  0  0  0  0  0  0
   13.5688    6.9382    0.7979 N   0  0  0  0  0  0  0  0  0  0  0  0
   12.4318    7.9982    2.7630 C   0  0  0  0  0  0  0  0  0  0  0  0
   11.2492    7.1086    2.3550 C   0  0  0  0  0  0  0  0  0  0  0  0
    9.8616    7.6769    2.5975 C   0  0  0  0  0  0  0  0  0  0  0  0
    9.7632    9.1432    2.2576 C   0  0  0  0  0  0  0  0  0  0  0  0
    8.3529    9.6475    2.1620 C   0  0  0  0  0  0  0  0  0  0  0  0
    7.7590    9.6948    3.2645 O   0  0  0  0  0  0  0  0  0  0  0  0
    7.6730   10.0756    0.9597 N   0  0  0  0  0  0  0  0  0  0  0  0
    8.3544   10.2073   -0.3178 C   0  0  0  0  0  0  0  0  0  0  0  0
    9.9273   10.6797   -0.3273 S   0  0  0  0  0  0  0  0  0  0  0  0
    7.7583    9.6654   -1.5191 N   0  0  0  0  0  0  0  0  0  0  0  0
    8.0780    9.9721   -2.8896 C   0  0  0  0  0  0  0  0  0  0  0  0
    9.4144    9.7535   -3.3534 N   0  0  0  0  0  0  0  0  0  0  0  0
    7.1898   10.4781   -3.6905 N   0  0  0  0  0  0  0  0  0  0  0  0
    7.4855   10.8534   -5.0119 N   0  0  0  0  0  0  0  0  0  0  0  0
   10.7904   10.0480    2.8767 C   0  0  0  0  0  0  0  0  0  0  0  0
   12.2135    9.5321    2.6678 C   0  0  0  0  0  0  0  0  0  0  0  0
  1  2  1  0
  2  3  1  0
  2  4  1  0
  4  5  1  0
  5  6  1  0
  6  7  1  0
  7  8  1  0
  8  9  2  0
  8 10  1  0
 10 11  1  0
 11 12  2  0
 11 13  1  0
 13 14  1  0
 14 15  1  0
 14 16  2  0
 16 17  1  0
  7 18  1  0
 18 19  1  0
 19  4  1  0
M  CHG  1   3   1
M  END
>  <EmbedRMS>  (177) 
0.28641871395007357

>  <Gold.Version>  (177) 
2020.3.0

>  <Gold.Id.Protein>  (177) 
unknown|1q8t_protein|pdb

>  <Gold.PLP.Fitness>  (177) 
43.1240

>  <Gold.PLP.PLP>  (177) 
-29.3706

>  <Gold.PLP.part.hbond>  (177) 
-5.2885

>  <Gold.PLP.part.metal>  (177) 
0.0000

>  <Gold.PLP.part.buried>  (177) 
-1.5139

>  <Gold.PLP.part.nonpolar>  (177) 
-26.2181

>  <Gold.PLP.part.repulsive>  (177) 
0.5889

>  <Gold.PLP.ligand.clash>  (177) 
0.0000

>  <Gold.PLP.ligand.torsion>  (177) 
2.0802

>  <Gold.PLP.Chemscore.Hbond>  (177) 
5.6302

>  <Gold.PLP.Chemscore.CHOScore>  (177) 
0.0000

>  <Gold.PLP.Chemscore.Metal>  (177) 
0.0000

>  <Gold.Chemscore.Hbonds>  (177) 
donor molecule, donor type, donor heavy atom, donor atom, acceptor molecule, acceptor atom, score
      L1  H     3    24       P1  2691  0.79
      L1  H     3    26       P1  2902  1.98
      L1  H    15    35       P1  1345  1.00
      L1  H    15    36       P1  1345  1.00
      L1  H    17    38       P1  1345  0.82
      P1  H  1002  1014       L1    15  0.04

>  <Gold.PLP.Chemscore.Internal.Correction>  (177) 
1.0231

>  <Gold.PLP.Constraint>  (177) 
-0.0000

>  <Gold.Protein.RotatedTorsions>  (177) 
[  681  677  676  673 ] final  -67.37 input -179.99 | X-H torsion
[  702  698  697  694 ] final  -30.01 input  179.99 | X-H torsion
[ 2577 2569 2568 2566 ] final -137.02 input   -0.13 | X-H torsion
[ 2891 2887 2886 2883 ] final  -77.83 input  179.98 | X-H torsion
[ 3175 3171 3170 3167 ] final  -13.17 input -179.99 | X-H torsion
[ 5278 5270 5269 5267 ] final  172.54 input    0.55 | X-H torsion
[  641  637  636  633 ] final   73.44 input  179.99 | X-H torsion
[ 1886 1878 1877 1875 ] final  139.18 input    1.60 | X-H torsion
[  965  957  956  954 ] final  154.26 input    0.45 | X-H torsion

>  <Gold.Protein.ActiveResidues>  (177) 
 LYS47   THR48   LEU49   GLY50   THR51   GLY52   SER53   PHE54   GLY55   ARG56  
 VAL57   MET58   LEU59   TYR69   ALA70   MET71   LYS72   ILE73   LEU74   GLU91  
 LEU95   VAL104  LYS105  MET118  VAL119  MET120  GLU121  TYR122  VAL123  PRO124 
 GLY125  GLY126  GLU127  MET128  PHE129  TYR164  ASP166  LEU167  LYS168  PRO169 
 GLU170  ASN171  LEU172  LEU173  ILE174  GLN181  VAL182  THR183  ASP184  PHE185 
 GLY186  PHE187  GLY200  THR201  ASN326  PHE327  TYR330  ARG18   ARG19   ASN20  
 ALA21   ILE22   HIS23  

>  <Gold.Protein.RotatedAtoms>  (177) 
   10.0779   19.7313    8.7744 H   0  0  0  0  0  0  0  0  0  0  0  0  # atno 641  bound_to 637 
   15.6655   13.2611    7.2003 H   0  0  0  0  0  0  0  0  0  0  0  0  # atno 681  bound_to 677 
   19.8367   11.7589   -0.3329 H   0  0  0  0  0  0  0  0  0  0  0  0  # atno 702  bound_to 698 
   -7.0407   16.9501   -0.2622 H   0  0  0  0  0  0  0  0  0  0  0  0  # atno 965  bound_to 957 
    0.9260   12.0855   11.0233 H   0  0  0  0  0  0  0  0  0  0  0  0  # atno 1886 bound_to 1878
   11.0223    2.4228   -2.6900 H   0  0  0  0  0  0  0  0  0  0  0  0  # atno 2577 bound_to 2569
    7.3383    5.3249    1.1951 H   0  0  0  0  0  0  0  0  0  0  0  0  # atno 2891 bound_to 2887
   19.2403    2.8523   -1.0734 H   0  0  0  0  0  0  0  0  0  0  0  0  # atno 3175 bound_to 3171
   14.3591   10.1152    9.2859 H   0  0  0  0  0  0  0  0  0  0  0  0  # atno 5278 bound_to 5270
   17.1070   13.8941    6.9606 LP  0  0  0  0  0  0  0  0  0  0  0  0  # atno 5914 bound_to 677 
   16.5788   12.6457    6.0500 LP  0  0  0  0  0  0  0  0  0  0  0  0  # atno 5915 bound_to 677 
   21.1566   11.5246   -1.1934 LP  0  0  0  0  0  0  0  0  0  0  0  0  # atno 5920 bound_to 698 
   19.7196   11.7934   -1.9211 LP  0  0  0  0  0  0  0  0  0  0  0  0  # atno 5921 bound_to 698 
    9.4650    2.1139   -2.5693 LP  0  0  0  0  0  0  0  0  0  0  0  0  # atno 5950 bound_to 2569
   10.0000    3.3993   -3.4226 LP  0  0  0  0  0  0  0  0  0  0  0  0  # atno 5951 bound_to 2569
    7.5829    6.8942    1.3131 LP  0  0  0  0  0  0  0  0  0  0  0  0  # atno 5982 bound_to 2887
    8.3688    6.0066    0.1902 LP  0  0  0  0  0  0  0  0  0  0  0  0  # atno 5983 bound_to 2887
   18.6906    2.6611    0.4088 LP  0  0  0  0  0  0  0  0  0  0  0  0  # atno 6000 bound_to 3171
   17.9490    1.9459   -0.8581 LP  0  0  0  0  0  0  0  0  0  0  0  0  # atno 6001 bound_to 3171
   12.7843   10.1400    9.0487 LP  0  0  0  0  0  0  0  0  0  0  0  0  # atno 6004 bound_to 5270
   13.4043    9.7844   10.5170 LP  0  0  0  0  0  0  0  0  0  0  0  0  # atno 6005 bound_to 5270
    9.9419   19.0307    7.3512 LP  0  0  0  0  0  0  0  0  0  0  0  0  # atno 6055 bound_to 637 
   11.4088   19.2903    8.0201 LP  0  0  0  0  0  0  0  0  0  0  0  0  # atno 6056 bound_to 637 
    2.2950   11.6172   10.3588 LP  0  0  0  0  0  0  0  0  0  0  0  0  # atno 6063 bound_to 1878
    1.1155   10.5390   10.6950 LP  0  0  0  0  0  0  0  0  0  0  0  0  # atno 6064 bound_to 1878
   -6.9580   15.3804   -0.5161 LP  0  0  0  0  0  0  0  0  0  0  0  0  # atno 6067 bound_to 957 
   -6.4349   16.4398   -1.6434 LP  0  0  0  0  0  0  0  0  0  0  0  0  # atno 6068 bound_to 957 

>  <STRIFE_LigEff_Score>  (177) 
2.2696842105263157

$$$$
unknown|pharmsElabsTestPreDocking|sdf|178|dock8
     RDKit          3D

 19 20  0  0  0  0  0  0  0  0999 V2000
   13.8473    7.5351    2.7836 C   0  0  0  0  0  0  0  0  0  0  0  0
   13.6091    8.8904    2.0933 C   0  0  0  0  0  0  0  0  0  0  0  0
   14.2261    8.8684    0.7600 N   0  0  0  0  0  0  0  0  0  0  0  0
   12.0794    9.2166    2.0404 C   0  0  0  0  0  0  0  0  0  0  0  0
   11.3379    8.0426    1.3750 C   0  0  0  0  0  0  0  0  0  0  0  0
    9.8480    8.2948    1.1732 C   0  0  0  0  0  0  0  0  0  0  0  0
    9.2403    9.2709    2.1690 C   0  0  0  0  0  0  0  0  0  0  0  0
    7.7409    9.3188    2.1264 C   0  0  0  0  0  0  0  0  0  0  0  0
    7.1675    8.3021    2.5892 O   0  0  0  0  0  0  0  0  0  0  0  0
    6.9372   10.3964    1.6136 N   0  0  0  0  0  0  0  0  0  0  0  0
    5.4790   10.2079    1.5543 C   0  0  0  0  0  0  0  0  0  0  0  0
    4.8792   10.0177    2.9140 C   0  0  0  0  0  0  0  0  0  0  0  0
    5.6452   10.2384    4.0662 C   0  0  0  0  0  0  0  0  0  0  0  0
    5.0695   10.0725    5.3260 C   0  0  0  0  0  0  0  0  0  0  0  0
    3.7302    9.6886    5.4204 C   0  0  0  0  0  0  0  0  0  0  0  0
    3.0001    9.4772    4.2929 N   0  0  0  0  0  0  0  0  0  0  0  0
    3.5388    9.6319    3.0544 C   0  0  0  0  0  0  0  0  0  0  0  0
    9.9283    9.5873    3.4831 C   0  0  0  0  0  0  0  0  0  0  0  0
   11.4681    9.4698    3.4422 C   0  0  0  0  0  0  0  0  0  0  0  0
  1  2  1  0
  2  3  1  0
  2  4  1  0
  4  5  1  0
  5  6  1  0
  6  7  1  0
  7  8  1  0
  8  9  2  0
  8 10  1  0
 10 11  1  0
 11 12  1  0
 12 13  2  0
 13 14  1  0
 14 15  2  0
 15 16  1  0
 16 17  2  0
  7 18  1  0
 18 19  1  0
 19  4  1  0
 17 12  1  0
M  CHG  1   3   1
M  END
>  <EmbedRMS>  (178) 
0.17084101544492625

>  <Gold.Version>  (178) 
2020.3.0

>  <Gold.Id.Protein>  (178) 
unknown|1q8t_protein|pdb

>  <Gold.PLP.Fitness>  (178) 
62.4759

>  <Gold.PLP.PLP>  (178) 
-45.8358

>  <Gold.PLP.part.hbond>  (178) 
-3.0000

>  <Gold.PLP.part.metal>  (178) 
0.0000

>  <Gold.PLP.part.buried>  (178) 
-2.8106

>  <Gold.PLP.part.nonpolar>  (178) 
-41.1451

>  <Gold.PLP.part.repulsive>  (178) 
0.1472

>  <Gold.PLP.ligand.clash>  (178) 
0.0000

>  <Gold.PLP.ligand.torsion>  (178) 
0.5496

>  <Gold.PLP.Chemscore.Hbond>  (178) 
4.0000

>  <Gold.PLP.Chemscore.CHOScore>  (178) 
1.6758

>  <Gold.PLP.Chemscore.Metal>  (178) 
0.0000

>  <Gold.Chemscore.Hbonds>  (178) 
donor molecule, donor type, donor heavy atom, donor atom, acceptor molecule, acceptor atom, score
      L1  H     3    25       P1  2902  2.00
      P1  H  2887  2891       L1     9  1.00
      P1  H  1888  1903       L1    16  1.00
      L1  C    15    38       P1  1891  0.98
      L1  C    17    39       P1  1855  0.69

>  <Gold.PLP.Chemscore.Internal.Correction>  (178) 
0.7118

>  <Gold.PLP.Constraint>  (178) 
-0.0000

>  <Gold.Protein.RotatedTorsions>  (178) 
[  681  677  676  673 ] final   63.91 input -179.99 | X-H torsion
[  702  698  697  694 ] final -129.57 input  179.99 | X-H torsion
[ 2577 2569 2568 2566 ] final   87.80 input   -0.13 | X-H torsion
[ 2891 2887 2886 2883 ] final  167.67 input  179.98 | X-H torsion
[ 3175 3171 3170 3167 ] final  -25.48 input -179.99 | X-H torsion
[ 5278 5270 5269 5267 ] final  157.42 input    0.55 | X-H torsion
[  641  637  636  633 ] final  -97.66 input  179.99 | X-H torsion
[ 1886 1878 1877 1875 ] final  167.96 input    1.60 | X-H torsion
[  965  957  956  954 ] final  -47.57 input    0.45 | X-H torsion

>  <Gold.Protein.ActiveResidues>  (178) 
 LYS47   THR48   LEU49   GLY50   THR51   GLY52   SER53   PHE54   GLY55   ARG56  
 VAL57   MET58   LEU59   TYR69   ALA70   MET71   LYS72   ILE73   LEU74   GLU91  
 LEU95   VAL104  LYS105  MET118  VAL119  MET120  GLU121  TYR122  VAL123  PRO124 
 GLY125  GLY126  GLU127  MET128  PHE129  TYR164  ASP166  LEU167  LYS168  PRO169 
 GLU170  ASN171  LEU172  LEU173  ILE174  GLN181  VAL182  THR183  ASP184  PHE185 
 GLY186  PHE187  GLY200  THR201  ASN326  PHE327  TYR330  ARG18   ARG19   ASN20  
 ALA21   ILE22   HIS23  

>  <Gold.Protein.RotatedAtoms>  (178) 
   10.7305   18.9468    7.3096 H   0  0  0  0  0  0  0  0  0  0  0  0  # atno 641  bound_to 637 
   16.7209   12.7677    6.0574 H   0  0  0  0  0  0  0  0  0  0  0  0  # atno 681  bound_to 677 
   21.0762   11.5496   -0.8744 H   0  0  0  0  0  0  0  0  0  0  0  0  # atno 702  bound_to 698 
   -6.4804   15.8523   -1.5161 H   0  0  0  0  0  0  0  0  0  0  0  0  # atno 965  bound_to 957 
    0.6771   11.7196   11.0707 H   0  0  0  0  0  0  0  0  0  0  0  0  # atno 1886 bound_to 1878
    9.3723    2.2891   -2.7181 H   0  0  0  0  0  0  0  0  0  0  0  0  # atno 2577 bound_to 2569
    7.5255    6.8136    1.3348 H   0  0  0  0  0  0  0  0  0  0  0  0  # atno 2891 bound_to 2887
   19.3133    2.9275   -0.9124 H   0  0  0  0  0  0  0  0  0  0  0  0  # atno 3175 bound_to 3171
   14.2417   10.1630    9.0871 H   0  0  0  0  0  0  0  0  0  0  0  0  # atno 5278 bound_to 5270
   15.5879   13.1090    7.1232 LP  0  0  0  0  0  0  0  0  0  0  0  0  # atno 5914 bound_to 677 
   16.9871   13.9502    7.0904 LP  0  0  0  0  0  0  0  0  0  0  0  0  # atno 5915 bound_to 677 
   20.0226   11.7423   -2.0535 LP  0  0  0  0  0  0  0  0  0  0  0  0  # atno 5920 bound_to 698 
   19.5498   11.7959   -0.4913 LP  0  0  0  0  0  0  0  0  0  0  0  0  # atno 5921 bound_to 698 
   10.2482    3.4194   -3.4184 LP  0  0  0  0  0  0  0  0  0  0  0  0  # atno 5950 bound_to 2569
   10.9541    2.2346   -2.5439 LP  0  0  0  0  0  0  0  0  0  0  0  0  # atno 5951 bound_to 2569
    8.3800    6.0959    0.1986 LP  0  0  0  0  0  0  0  0  0  0  0  0  # atno 5982 bound_to 2887
    7.3746    5.2381    1.1576 LP  0  0  0  0  0  0  0  0  0  0  0  0  # atno 5983 bound_to 2887
   18.5277    2.5416    0.4178 LP  0  0  0  0  0  0  0  0  0  0  0  0  # atno 6000 bound_to 3171
   18.0350    1.9862   -1.0366 LP  0  0  0  0  0  0  0  0  0  0  0  0  # atno 6001 bound_to 3171
   12.6598   10.0874    9.2567 LP  0  0  0  0  0  0  0  0  0  0  0  0  # atno 6004 bound_to 5270
   13.6523    9.7867   10.5181 LP  0  0  0  0  0  0  0  0  0  0  0  0  # atno 6005 bound_to 5270
   11.1115   19.6477    8.6875 LP  0  0  0  0  0  0  0  0  0  0  0  0  # atno 6055 bound_to 637 
    9.5520   19.4994    8.2265 LP  0  0  0  0  0  0  0  0  0  0  0  0  # atno 6056 bound_to 637 
    2.1311   12.0321   10.5019 LP  0  0  0  0  0  0  0  0  0  0  0  0  # atno 6063 bound_to 1878
    1.5415   10.5093   10.5021 LP  0  0  0  0  0  0  0  0  0  0  0  0  # atno 6064 bound_to 1878
   -6.8284   17.2109   -0.7625 LP  0  0  0  0  0  0  0  0  0  0  0  0  # atno 6067 bound_to 957 
   -7.1545   15.7655   -0.0763 LP  0  0  0  0  0  0  0  0  0  0  0  0  # atno 6068 bound_to 957 

>  <STRIFE_LigEff_Score>  (178) 
3.288205263157895

$$$$
unknown|pharmsElabsTestPreDocking|sdf|179|dock7
     RDKit          3D

 18 19  0  0  0  0  0  0  0  0999 V2000
    4.9493    9.7998    5.5504 C   0  0  0  0  0  0  0  0  0  0  0  0
    4.6817    9.5346    4.1019 C   0  0  0  0  0  0  0  0  0  0  0  0
    3.4629    9.6866    3.5499 N   0  0  0  0  0  0  0  0  0  0  0  0
    3.5979    9.4786    2.2267 C   0  0  0  0  0  0  0  0  0  0  0  0
    4.9148    9.1822    1.9169 C   0  0  0  0  0  0  0  0  0  0  0  0
    5.6058    9.1975    3.1152 C   0  0  0  0  0  0  0  0  0  0  0  0
    7.0305    8.9905    3.2678 N   0  0  0  0  0  0  0  0  0  0  0  0
    7.9622    9.3206    2.2188 C   0  0  0  0  0  0  0  0  0  0  0  0
    7.5593    9.9660    1.2209 O   0  0  0  0  0  0  0  0  0  0  0  0
    9.4313    9.0052    2.2139 C   0  0  0  0  0  0  0  0  0  0  0  0
    9.7774    7.5251    2.3985 C   0  0  0  0  0  0  0  0  0  0  0  0
   11.2846    7.2398    2.5691 C   0  0  0  0  0  0  0  0  0  0  0  0
   12.1366    8.3406    1.9172 C   0  0  0  0  0  0  0  0  0  0  0  0
   13.6482    8.0422    1.6709 C   0  0  0  0  0  0  0  0  0  0  0  0
   14.5521    9.2351    1.4094 C   0  0  0  0  0  0  0  0  0  0  0  0
   13.9799    6.8441    0.9070 N   0  0  0  0  0  0  0  0  0  0  0  0
   11.8775    9.6849    2.6276 C   0  0  0  0  0  0  0  0  0  0  0  0
   10.3884   10.0868    2.6881 C   0  0  0  0  0  0  0  0  0  0  0  0
  1  2  1  0
  2  3  1  0
  3  4  1  0
  4  5  2  0
  5  6  1  0
  6  7  1  0
  7  8  1  0
  8  9  2  0
  8 10  1  0
 10 11  1  0
 11 12  1  0
 12 13  1  0
 13 14  1  0
 14 15  1  0
 14 16  1  0
 13 17  1  0
 17 18  1  0
  6  2  2  0
 18 10  1  0
M  CHG  1  16   1
M  END
>  <EmbedRMS>  (179) 
0.24995529680257836

>  <Gold.Version>  (179) 
2020.3.0

>  <Gold.Id.Protein>  (179) 
unknown|1q8t_protein|pdb

>  <Gold.PLP.Fitness>  (179) 
52.7265

>  <Gold.PLP.PLP>  (179) 
-41.2925

>  <Gold.PLP.part.hbond>  (179) 
-2.0000

>  <Gold.PLP.part.metal>  (179) 
0.0000

>  <Gold.PLP.part.buried>  (179) 
-3.5317

>  <Gold.PLP.part.nonpolar>  (179) 
-36.8058

>  <Gold.PLP.part.repulsive>  (179) 
0.1700

>  <Gold.PLP.ligand.clash>  (179) 
0.0000

>  <Gold.PLP.ligand.torsion>  (179) 
0.7936

>  <Gold.PLP.Chemscore.Hbond>  (179) 
2.9600

>  <Gold.PLP.Chemscore.CHOScore>  (179) 
1.0000

>  <Gold.PLP.Chemscore.Metal>  (179) 
0.0000

>  <Gold.Chemscore.Hbonds>  (179) 
donor molecule, donor type, donor heavy atom, donor atom, acceptor molecule, acceptor atom, score
      L1  H    16    37       P1  2902  2.00
      L1  H    16    38       P1  2691  0.96
      L1  C     4    23       P1  1855  1.00

>  <Gold.PLP.Chemscore.Internal.Correction>  (179) 
1.1412

>  <Gold.PLP.Constraint>  (179) 
-0.0000

>  <Gold.Protein.RotatedTorsions>  (179) 
[  681  677  676  673 ] final   44.78 input -179.99 | X-H torsion
[  702  698  697  694 ] final  -14.20 input  179.99 | X-H torsion
[ 2577 2569 2568 2566 ] final  110.90 input   -0.13 | X-H torsion
[ 2891 2887 2886 2883 ] final   61.62 input  179.98 | X-H torsion
[ 3175 3171 3170 3167 ] final  135.55 input -179.99 | X-H torsion
[ 5278 5270 5269 5267 ] final   12.76 input    0.55 | X-H torsion
[  641  637  636  633 ] final  159.89 input  179.99 | X-H torsion
[ 1886 1878 1877 1875 ] final  -33.29 input    1.60 | X-H torsion
[  965  957  956  954 ] final  127.78 input    0.45 | X-H torsion

>  <Gold.Protein.ActiveResidues>  (179) 
 LYS47   THR48   LEU49   GLY50   THR51   GLY52   SER53   PHE54   GLY55   ARG56  
 VAL57   MET58   LEU59   TYR69   ALA70   MET71   LYS72   ILE73   LEU74   GLU91  
 LEU95   VAL104  LYS105  MET118  VAL119  MET120  GLU121  TYR122  VAL123  PRO124 
 GLY125  GLY126  GLU127  MET128  PHE129  TYR164  ASP166  LEU167  LYS168  PRO169 
 GLU170  ASN171  LEU172  LEU173  ILE174  GLN181  VAL182  THR183  ASP184  PHE185 
 GLY186  PHE187  GLY200  THR201  ASN326  PHE327  TYR330  ARG18   ARG19   ASN20  
 ALA21   ILE22   HIS23  

>  <Gold.Protein.RotatedAtoms>  (179) 
   11.2472   19.5136    8.4761 H   0  0  0  0  0  0  0  0  0  0  0  0  # atno 641  bound_to 637 
   16.4534   12.6445    6.1008 H   0  0  0  0  0  0  0  0  0  0  0  0  # atno 681  bound_to 677 
   19.6369   11.7970   -0.4720 H   0  0  0  0  0  0  0  0  0  0  0  0  # atno 702  bound_to 698 
   -7.1439   16.6197   -0.0423 H   0  0  0  0  0  0  0  0  0  0  0  0  # atno 965  bound_to 957 
    2.0185   10.8520   10.3313 H   0  0  0  0  0  0  0  0  0  0  0  0  # atno 1886 bound_to 1878
    9.5887    2.0620   -2.5445 H   0  0  0  0  0  0  0  0  0  0  0  0  # atno 2577 bound_to 2569
    8.3396    6.3090    0.2710 H   0  0  0  0  0  0  0  0  0  0  0  0  # atno 2891 bound_to 2887
   17.9230    1.9647   -0.4006 H   0  0  0  0  0  0  0  0  0  0  0  0  # atno 3175 bound_to 3171
   12.6348   10.0089    9.6437 H   0  0  0  0  0  0  0  0  0  0  0  0  # atno 5278 bound_to 5270
   15.6811   13.3483    7.3027 LP  0  0  0  0  0  0  0  0  0  0  0  0  # atno 5914 bound_to 677 
   17.1754   13.8406    6.8651 LP  0  0  0  0  0  0  0  0  0  0  0  0  # atno 5915 bound_to 677 
   21.1363   11.5233   -0.9349 LP  0  0  0  0  0  0  0  0  0  0  0  0  # atno 5920 bound_to 698 
   19.9502   11.7547   -2.0332 LP  0  0  0  0  0  0  0  0  0  0  0  0  # atno 5921 bound_to 698 
    9.8744    3.3677   -3.4098 LP  0  0  0  0  0  0  0  0  0  0  0  0  # atno 5950 bound_to 2569
   11.1000    2.5255   -2.7352 LP  0  0  0  0  0  0  0  0  0  0  0  0  # atno 5951 bound_to 2569
    7.5048    5.1574    0.9875 LP  0  0  0  0  0  0  0  0  0  0  0  0  # atno 5982 bound_to 2887
    7.3931    6.7077    1.4883 LP  0  0  0  0  0  0  0  0  0  0  0  0  # atno 5983 bound_to 2887
   18.9783    2.6394   -1.3838 LP  0  0  0  0  0  0  0  0  0  0  0  0  # atno 6000 bound_to 3171
   19.0476    2.9016    0.2265 LP  0  0  0  0  0  0  0  0  0  0  0  0  # atno 6001 bound_to 3171
   14.0312    9.8230   10.3869 LP  0  0  0  0  0  0  0  0  0  0  0  0  # atno 6004 bound_to 5270
   13.9716   10.2132    8.8023 LP  0  0  0  0  0  0  0  0  0  0  0  0  # atno 6005 bound_to 5270
    9.6584   19.6162    8.4667 LP  0  0  0  0  0  0  0  0  0  0  0  0  # atno 6055 bound_to 637 
   10.4609   18.9341    7.2188 LP  0  0  0  0  0  0  0  0  0  0  0  0  # atno 6056 bound_to 637 
    0.6059   11.1144   11.0177 LP  0  0  0  0  0  0  0  0  0  0  0  0  # atno 6063 bound_to 1878
    1.6545   12.3403   10.7646 LP  0  0  0  0  0  0  0  0  0  0  0  0  # atno 6064 bound_to 1878
   -6.7806   15.3330   -0.9069 LP  0  0  0  0  0  0  0  0  0  0  0  0  # atno 6067 bound_to 957 
   -6.5036   16.8352   -1.4841 LP  0  0  0  0  0  0  0  0  0  0  0  0  # atno 6068 bound_to 957 

>  <STRIFE_LigEff_Score>  (179) 
2.92925

$$$$
unknown|pharmsElabsTestPreDocking|sdf|180|dock8
     RDKit          3D

 18 19  0  0  0  0  0  0  0  0999 V2000
   13.9218    9.3437    1.5868 C   0  0  0  0  0  0  0  0  0  0  0  0
   13.1721    8.0787    2.0014 C   0  0  0  0  0  0  0  0  0  0  0  0
   13.1020    7.0971    0.9170 N   0  0  0  0  0  0  0  0  0  0  0  0
   11.8250    8.2317    2.7510 C   0  0  0  0  0  0  0  0  0  0  0  0
   10.8184    7.1121    2.4474 C   0  0  0  0  0  0  0  0  0  0  0  0
    9.3598    7.4082    2.7606 C   0  0  0  0  0  0  0  0  0  0  0  0
    8.9550    8.8124    2.3860 C   0  0  0  0  0  0  0  0  0  0  0  0
    7.4691    9.0439    2.3766 C   0  0  0  0  0  0  0  0  0  0  0  0
    6.9937    9.3122    1.2479 O   0  0  0  0  0  0  0  0  0  0  0  0
    6.5924    9.0153    3.5222 N   0  0  0  0  0  0  0  0  0  0  0  0
    5.1523    9.0983    3.3811 C   0  0  0  0  0  0  0  0  0  0  0  0
    4.5063    8.8891    2.2147 N   0  0  0  0  0  0  0  0  0  0  0  0
    3.2139    9.1061    2.5555 C   0  0  0  0  0  0  0  0  0  0  0  0
    3.0719    9.4468    3.8513 N   0  0  0  0  0  0  0  0  0  0  0  0
    4.2899    9.4471    4.3624 N   0  0  0  0  0  0  0  0  0  0  0  0
    4.5788    9.8843    5.7240 C   0  0  0  0  0  0  0  0  0  0  0  0
    9.8215    9.9224    2.9120 C   0  0  0  0  0  0  0  0  0  0  0  0
   11.3029    9.6873    2.6250 C   0  0  0  0  0  0  0  0  0  0  0  0
  1  2  1  0
  2  3  1  0
  2  4  1  0
  4  5  1  0
  5  6  1  0
  6  7  1  0
  7  8  1  0
  8  9  2  0
  8 10  1  0
 10 11  1  0
 11 12  2  0
 12 13  1  0
 13 14  2  0
 14 15  1  0
 15 16  1  0
  7 17  1  0
 17 18  1  0
 18  4  1  0
 15 11  1  0
M  CHG  1   3   1
M  END
>  <EmbedRMS>  (180) 
0.293000697254303

>  <Gold.Version>  (180) 
2020.3.0

>  <Gold.Id.Protein>  (180) 
unknown|1q8t_protein|pdb

>  <Gold.PLP.Fitness>  (180) 
51.4280

>  <Gold.PLP.PLP>  (180) 
-39.8793

>  <Gold.PLP.part.hbond>  (180) 
-2.9950

>  <Gold.PLP.part.metal>  (180) 
0.0000

>  <Gold.PLP.part.buried>  (180) 
-2.8481

>  <Gold.PLP.part.nonpolar>  (180) 
-35.3662

>  <Gold.PLP.part.repulsive>  (180) 
0.2182

>  <Gold.PLP.ligand.clash>  (180) 
0.0346

>  <Gold.PLP.ligand.torsion>  (180) 
1.5403

>  <Gold.PLP.Chemscore.Hbond>  (180) 
3.6873

>  <Gold.PLP.Chemscore.CHOScore>  (180) 
1.0000

>  <Gold.PLP.Chemscore.Metal>  (180) 
0.0000

>  <Gold.Chemscore.Hbonds>  (180) 
donor molecule, donor type, donor heavy atom, donor atom, acceptor molecule, acceptor atom, score
      L1  H     3    23       P1  2691  0.72
      L1  H     3    25       P1  2902  1.98
      P1  H  1888  1903       L1    14  0.98
      L1  C    13    33       P1  1855  1.00

>  <Gold.PLP.Chemscore.Internal.Correction>  (180) 
0.6019

>  <Gold.PLP.Constraint>  (180) 
-0.0000

>  <Gold.Protein.RotatedTorsions>  (180) 
[  681  677  676  673 ] final   34.14 input -179.99 | X-H torsion
[  702  698  697  694 ] final  156.50 input  179.99 | X-H torsion
[ 2577 2569 2568 2566 ] final  164.97 input   -0.13 | X-H torsion
[ 2891 2887 2886 2883 ] final  -11.88 input  179.98 | X-H torsion
[ 3175 3171 3170 3167 ] final -136.87 input -179.99 | X-H torsion
[ 5278 5270 5269 5267 ] final   48.54 input    0.55 | X-H torsion
[  641  637  636  633 ] final  101.61 input  179.99 | X-H torsion
[ 1886 1878 1877 1875 ] final  -90.26 input    1.60 | X-H torsion
[  965  957  956  954 ] final  151.85 input    0.45 | X-H torsion

>  <Gold.Protein.ActiveResidues>  (180) 
 LYS47   THR48   LEU49   GLY50   THR51   GLY52   SER53   PHE54   GLY55   ARG56  
 VAL57   MET58   LEU59   TYR69   ALA70   MET71   LYS72   ILE73   LEU74   GLU91  
 LEU95   VAL104  LYS105  MET118  VAL119  MET120  GLU121  TYR122  VAL123  PRO124 
 GLY125  GLY126  GLU127  MET128  PHE129  TYR164  ASP166  LEU167  LYS168  PRO169 
 GLU170  ASN171  LEU172  LEU173  ILE174  GLN181  VAL182  THR183  ASP184  PHE185 
 GLY186  PHE187  GLY200  THR201  ASN326  PHE327  TYR330  ARG18   ARG19   ASN20  
 ALA21   ILE22   HIS23  

>  <Gold.Protein.RotatedAtoms>  (180) 
   10.5038   19.7530    8.8637 H   0  0  0  0  0  0  0  0  0  0  0  0  # atno 641  bound_to 637 
   16.3017   12.6054    6.1561 H   0  0  0  0  0  0  0  0  0  0  0  0  # atno 681  bound_to 677 
   20.7156   11.6331   -1.8867 H   0  0  0  0  0  0  0  0  0  0  0  0  # atno 702  bound_to 698 
   -7.0525   16.9251   -0.2367 H   0  0  0  0  0  0  0  0  0  0  0  0  # atno 965  bound_to 957 
    1.2697   10.5500   10.6099 H   0  0  0  0  0  0  0  0  0  0  0  0  # atno 1886 bound_to 1878
   10.3765    1.9249   -2.3916 H   0  0  0  0  0  0  0  0  0  0  0  0  # atno 2577 bound_to 2569
    7.9748    5.3181    0.4562 H   0  0  0  0  0  0  0  0  0  0  0  0  # atno 2891 bound_to 2887
   18.6515    2.6054    0.3713 H   0  0  0  0  0  0  0  0  0  0  0  0  # atno 3175 bound_to 3171
   12.7847   10.1372    9.1298 H   0  0  0  0  0  0  0  0  0  0  0  0  # atno 5278 bound_to 5270
   15.7703   13.4789    7.3770 LP  0  0  0  0  0  0  0  0  0  0  0  0  # atno 5914 bound_to 677 
   17.2459   13.7510    6.7326 LP  0  0  0  0  0  0  0  0  0  0  0  0  # atno 5915 bound_to 677 
   19.3029   11.8531   -1.1843 LP  0  0  0  0  0  0  0  0  0  0  0  0  # atno 5920 bound_to 698 
   20.6488   11.5973   -0.2956 LP  0  0  0  0  0  0  0  0  0  0  0  0  # atno 5921 bound_to 698 
    9.2778    2.8425   -3.0889 LP  0  0  0  0  0  0  0  0  0  0  0  0  # atno 5950 bound_to 2569
   10.8671    3.1950   -3.2172 LP  0  0  0  0  0  0  0  0  0  0  0  0  # atno 5951 bound_to 2569
    7.1398    6.0196    1.6168 LP  0  0  0  0  0  0  0  0  0  0  0  0  # atno 5982 bound_to 2887
    8.1420    6.8883    0.6641 LP  0  0  0  0  0  0  0  0  0  0  0  0  # atno 5983 bound_to 2887
   17.9716    1.9553   -0.9136 LP  0  0  0  0  0  0  0  0  0  0  0  0  # atno 6000 bound_to 3171
   19.2877    2.9115   -1.0560 LP  0  0  0  0  0  0  0  0  0  0  0  0  # atno 6001 bound_to 3171
   13.4697    9.7834   10.5235 LP  0  0  0  0  0  0  0  0  0  0  0  0  # atno 6004 bound_to 5270
   14.3754   10.1177    9.2065 LP  0  0  0  0  0  0  0  0  0  0  0  0  # atno 6005 bound_to 5270
    9.6362   19.1997    7.6488 LP  0  0  0  0  0  0  0  0  0  0  0  0  # atno 6055 bound_to 637 
   11.2659   19.0984    7.6285 LP  0  0  0  0  0  0  0  0  0  0  0  0  # atno 6056 bound_to 637 
    0.7903   11.9918   11.0861 LP  0  0  0  0  0  0  0  0  0  0  0  0  # atno 6063 bound_to 1878
    2.2584   11.7808   10.4029 LP  0  0  0  0  0  0  0  0  0  0  0  0  # atno 6064 bound_to 1878
   -6.9425   15.3680   -0.5504 LP  0  0  0  0  0  0  0  0  0  0  0  0  # atno 6067 bound_to 957 
   -6.4379   16.4786   -1.6359 LP  0  0  0  0  0  0  0  0  0  0  0  0  # atno 6068 bound_to 957 

>  <STRIFE_LigEff_Score>  (180) 
2.857111111111111

$$$$
unknown|pharmsElabsTestPreDocking|sdf|181|dock10
     RDKit          3D

 18 19  0  0  0  0  0  0  0  0999 V2000
   14.6838    9.6124    0.8123 C   0  0  0  0  0  0  0  0  0  0  0  0
   14.1786    8.4170    1.6199 C   0  0  0  0  0  0  0  0  0  0  0  0
   13.9039    7.2693    0.7444 N   0  0  0  0  0  0  0  0  0  0  0  0
   13.0492    8.6550    2.6413 C   0  0  0  0  0  0  0  0  0  0  0  0
   12.2012    7.4554    3.1423 C   0  0  0  0  0  0  0  0  0  0  0  0
   10.7009    7.5725    2.9177 C   0  0  0  0  0  0  0  0  0  0  0  0
   10.1842    8.9584    3.2984 C   0  0  0  0  0  0  0  0  0  0  0  0
    8.6835    9.0014    3.2057 C   0  0  0  0  0  0  0  0  0  0  0  0
    8.1127    8.6505    2.1372 O   0  0  0  0  0  0  0  0  0  0  0  0
    7.9243    9.4665    4.3302 N   0  0  0  0  0  0  0  0  0  0  0  0
    6.4950    9.5415    4.3934 C   0  0  0  0  0  0  0  0  0  0  0  0
    5.7218   10.0898    5.4082 C   0  0  0  0  0  0  0  0  0  0  0  0
    4.4266    9.8992    4.9813 C   0  0  0  0  0  0  0  0  0  0  0  0
    4.4564    9.2857    3.7845 N   0  0  0  0  0  0  0  0  0  0  0  0
    3.2945    8.8818    3.0081 C   0  0  0  0  0  0  0  0  0  0  0  0
    5.7053    9.0527    3.4196 N   0  0  0  0  0  0  0  0  0  0  0  0
   10.8001    9.9942    2.3642 C   0  0  0  0  0  0  0  0  0  0  0  0
   12.3238   10.0242    2.4643 C   0  0  0  0  0  0  0  0  0  0  0  0
  1  2  1  0
  2  3  1  0
  2  4  1  0
  4  5  1  0
  5  6  1  0
  6  7  1  0
  7  8  1  0
  8  9  2  0
  8 10  1  0
 10 11  1  0
 11 12  1  0
 12 13  2  0
 13 14  1  0
 14 15  1  0
 14 16  1  0
  7 17  1  0
 17 18  1  0
 18  4  1  0
 16 11  2  0
M  CHG  1   3   1
M  END
>  <EmbedRMS>  (181) 
0.20203882927987918

>  <Gold.Version>  (181) 
2020.3.0

>  <Gold.Id.Protein>  (181) 
unknown|1q8t_protein|pdb

>  <Gold.PLP.Fitness>  (181) 
51.0906

>  <Gold.PLP.PLP>  (181) 
-44.4742

>  <Gold.PLP.part.hbond>  (181) 
-3.0000

>  <Gold.PLP.part.metal>  (181) 
0.0000

>  <Gold.PLP.part.buried>  (181) 
-6.1809

>  <Gold.PLP.part.nonpolar>  (181) 
-36.0154

>  <Gold.PLP.part.repulsive>  (181) 
0.0525

>  <Gold.PLP.ligand.clash>  (181) 
0.0000

>  <Gold.PLP.ligand.torsion>  (181) 
1.0889

>  <Gold.PLP.Chemscore.Hbond>  (181) 
2.8000

>  <Gold.PLP.Chemscore.CHOScore>  (181) 
0.0000

>  <Gold.PLP.Chemscore.Metal>  (181) 
0.0000

>  <Gold.Chemscore.Hbonds>  (181) 
donor molecule, donor type, donor heavy atom, donor atom, acceptor molecule, acceptor atom, score
      L1  H     3    24       P1  2902  2.00
      L1  H     3    25       P1  2691  0.80

>  <Gold.PLP.Chemscore.Internal.Correction>  (181) 
0.3943

>  <Gold.PLP.Constraint>  (181) 
-0.0000

>  <Gold.Protein.RotatedTorsions>  (181) 
[  681  677  676  673 ] final   67.98 input -179.99 | X-H torsion
[  702  698  697  694 ] final -123.74 input  179.99 | X-H torsion
[ 2577 2569 2568 2566 ] final  -48.57 input   -0.13 | X-H torsion
[ 2891 2887 2886 2883 ] final  -23.33 input  179.98 | X-H torsion
[ 3175 3171 3170 3167 ] final   74.04 input -179.99 | X-H torsion
[ 5278 5270 5269 5267 ] final  130.36 input    0.55 | X-H torsion
[  641  637  636  633 ] final -116.40 input  179.99 | X-H torsion
[ 1886 1878 1877 1875 ] final   28.69 input    1.60 | X-H torsion
[  965  957  956  954 ] final  -28.34 input    0.45 | X-H torsion

>  <Gold.Protein.ActiveResidues>  (181) 
 LYS47   THR48   LEU49   GLY50   THR51   GLY52   SER53   PHE54   GLY55   ARG56  
 VAL57   MET58   LEU59   TYR69   ALA70   MET71   LYS72   ILE73   LEU74   GLU91  
 LEU95   VAL104  LYS105  MET118  VAL119  MET120  GLU121  TYR122  VAL123  PRO124 
 GLY125  GLY126  GLU127  MET128  PHE129  TYR164  ASP166  LEU167  LYS168  PRO169 
 GLU170  ASN171  LEU172  LEU173  ILE174  GLN181  VAL182  THR183  ASP184  PHE185 
 GLY186  PHE187  GLY200  THR201  ASN326  PHE327  TYR330  ARG18   ARG19   ASN20  
 ALA21   ILE22   HIS23  

>  <Gold.Protein.RotatedAtoms>  (181) 
   10.9914   18.9942    7.4310 H   0  0  0  0  0  0  0  0  0  0  0  0  # atno 641  bound_to 637 
   16.7746   12.8017    6.0578 H   0  0  0  0  0  0  0  0  0  0  0  0  # atno 681  bound_to 677 
   21.0455   11.5534   -0.7888 H   0  0  0  0  0  0  0  0  0  0  0  0  # atno 702  bound_to 698 
   -6.5575   15.6144   -1.3518 H   0  0  0  0  0  0  0  0  0  0  0  0  # atno 965  bound_to 957 
    2.2152   11.7506   10.3979 H   0  0  0  0  0  0  0  0  0  0  0  0  # atno 1886 bound_to 1878
   10.4941    3.3341   -3.3615 H   0  0  0  0  0  0  0  0  0  0  0  0  # atno 2577 bound_to 2569
    7.8611    5.2383    0.5688 H   0  0  0  0  0  0  0  0  0  0  0  0  # atno 2891 bound_to 2887
   18.2667    2.1097   -1.2373 H   0  0  0  0  0  0  0  0  0  0  0  0  # atno 3175 bound_to 3171
   13.9160   10.2230    8.8299 H   0  0  0  0  0  0  0  0  0  0  0  0  # atno 5278 bound_to 5270
   15.5800   13.0594    7.0789 LP  0  0  0  0  0  0  0  0  0  0  0  0  # atno 5914 bound_to 677 
   16.9384   13.9639    7.1342 LP  0  0  0  0  0  0  0  0  0  0  0  0  # atno 5915 bound_to 677 
   20.1155   11.7261   -2.0704 LP  0  0  0  0  0  0  0  0  0  0  0  0  # atno 5920 bound_to 698 
   19.4892   11.8081   -0.5645 LP  0  0  0  0  0  0  0  0  0  0  0  0  # atno 5921 bound_to 698 
   10.7729    2.0658   -2.4400 LP  0  0  0  0  0  0  0  0  0  0  0  0  # atno 5950 bound_to 2569
    9.2482    2.4879   -2.8448 LP  0  0  0  0  0  0  0  0  0  0  0  0  # atno 5951 bound_to 2569
    7.1686    6.2053    1.6280 LP  0  0  0  0  0  0  0  0  0  0  0  0  # atno 5982 bound_to 2887
    8.2329    6.7866    0.5344 LP  0  0  0  0  0  0  0  0  0  0  0  0  # atno 5983 bound_to 2887
   19.3932    3.0474   -0.6149 LP  0  0  0  0  0  0  0  0  0  0  0  0  # atno 6000 bound_to 3171
   18.2710    2.3411    0.3382 LP  0  0  0  0  0  0  0  0  0  0  0  0  # atno 6001 bound_to 3171
   12.5905    9.9824    9.6797 LP  0  0  0  0  0  0  0  0  0  0  0  0  # atno 6004 bound_to 5270
   14.0643    9.8285   10.3659 LP  0  0  0  0  0  0  0  0  0  0  0  0  # atno 6005 bound_to 5270
   10.8560   19.7363    8.8331 LP  0  0  0  0  0  0  0  0  0  0  0  0  # atno 6055 bound_to 637 
    9.5327   19.3609    7.9531 LP  0  0  0  0  0  0  0  0  0  0  0  0  # atno 6056 bound_to 637 
    1.2524   10.5035   10.6285 LP  0  0  0  0  0  0  0  0  0  0  0  0  # atno 6063 bound_to 1878
    0.8010   12.0053   11.0837 LP  0  0  0  0  0  0  0  0  0  0  0  0  # atno 6064 bound_to 1878
   -6.6993   17.1707   -1.0470 LP  0  0  0  0  0  0  0  0  0  0  0  0  # atno 6067 bound_to 957 
   -7.2025   16.0562    0.0352 LP  0  0  0  0  0  0  0  0  0  0  0  0  # atno 6068 bound_to 957 

>  <STRIFE_LigEff_Score>  (181) 
2.838366666666667

$$$$
unknown|pharmsElabsTestPreDocking|sdf|182|dock4
     RDKit          3D

 18 19  0  0  0  0  0  0  0  0999 V2000
   13.8080    9.4705    1.3953 C   0  0  0  0  0  0  0  0  0  0  0  0
   13.1691    8.2183    1.9936 C   0  0  0  0  0  0  0  0  0  0  0  0
   13.1619    7.0973    1.0514 N   0  0  0  0  0  0  0  0  0  0  0  0
   11.8258    8.3652    2.7511 C   0  0  0  0  0  0  0  0  0  0  0  0
   10.8211    7.2432    2.4505 C   0  0  0  0  0  0  0  0  0  0  0  0
    9.3633    7.5340    2.7726 C   0  0  0  0  0  0  0  0  0  0  0  0
    8.9520    8.9377    2.4035 C   0  0  0  0  0  0  0  0  0  0  0  0
    7.4654    9.1646    2.4029 C   0  0  0  0  0  0  0  0  0  0  0  0
    6.9971    9.5278    1.2981 O   0  0  0  0  0  0  0  0  0  0  0  0
    6.5805    9.0345    3.5352 N   0  0  0  0  0  0  0  0  0  0  0  0
    5.1412    9.1248    3.3910 C   0  0  0  0  0  0  0  0  0  0  0  0
    4.4952    8.9018    2.2271 N   0  0  0  0  0  0  0  0  0  0  0  0
    3.2038    9.1327    2.5629 C   0  0  0  0  0  0  0  0  0  0  0  0
    3.0626    9.4946    3.8530 N   0  0  0  0  0  0  0  0  0  0  0  0
    4.2800    9.4947    4.3656 N   0  0  0  0  0  0  0  0  0  0  0  0
    4.5702    9.9512    5.7206 C   0  0  0  0  0  0  0  0  0  0  0  0
    9.8179   10.0493    2.9272 C   0  0  0  0  0  0  0  0  0  0  0  0
   11.2985    9.8195    2.6314 C   0  0  0  0  0  0  0  0  0  0  0  0
  1  2  1  0
  2  3  1  0
  2  4  1  0
  4  5  1  0
  5  6  1  0
  6  7  1  0
  7  8  1  0
  8  9  2  0
  8 10  1  0
 10 11  1  0
 11 12  2  0
 12 13  1  0
 13 14  2  0
 14 15  1  0
 15 16  1  0
  7 17  1  0
 17 18  1  0
 18  4  1  0
 15 11  1  0
M  CHG  1   3   1
M  END
>  <EmbedRMS>  (182) 
0.293000697254303

>  <Gold.Version>  (182) 
2020.3.0

>  <Gold.Id.Protein>  (182) 
unknown|1q8t_protein|pdb

>  <Gold.PLP.Fitness>  (182) 
50.6266

>  <Gold.PLP.PLP>  (182) 
-40.6309

>  <Gold.PLP.part.hbond>  (182) 
-2.6964

>  <Gold.PLP.part.metal>  (182) 
0.0000

>  <Gold.PLP.part.buried>  (182) 
-4.5026

>  <Gold.PLP.part.nonpolar>  (182) 
-34.9163

>  <Gold.PLP.part.repulsive>  (182) 
0.2149

>  <Gold.PLP.ligand.clash>  (182) 
0.6898

>  <Gold.PLP.ligand.torsion>  (182) 
1.8036

>  <Gold.PLP.Chemscore.Hbond>  (182) 
3.5600

>  <Gold.PLP.Chemscore.CHOScore>  (182) 
1.0000

>  <Gold.PLP.Chemscore.Metal>  (182) 
0.0000

>  <Gold.Chemscore.Hbonds>  (182) 
donor molecule, donor type, donor heavy atom, donor atom, acceptor molecule, acceptor atom, score
      L1  H     3    23       P1  2902  2.00
      L1  H     3    24       P1  2691  0.56
      P1  H  1888  1903       L1    14  1.00
      L1  C    13    33       P1  1855  1.00

>  <Gold.PLP.Chemscore.Internal.Correction>  (182) 
0.6128

>  <Gold.PLP.Constraint>  (182) 
-0.0000

>  <Gold.Protein.RotatedTorsions>  (182) 
[  681  677  676  673 ] final   12.24 input -179.99 | X-H torsion
[  702  698  697  694 ] final   98.46 input  179.99 | X-H torsion
[ 2577 2569 2568 2566 ] final  -59.64 input   -0.13 | X-H torsion
[ 2891 2887 2886 2883 ] final   -2.59 input  179.98 | X-H torsion
[ 3175 3171 3170 3167 ] final  -91.02 input -179.99 | X-H torsion
[ 5278 5270 5269 5267 ] final -118.31 input    0.55 | X-H torsion
[  641  637  636  633 ] final   23.40 input  179.99 | X-H torsion
[ 1886 1878 1877 1875 ] final -142.60 input    1.60 | X-H torsion
[  965  957  956  954 ] final -129.11 input    0.45 | X-H torsion

>  <Gold.Protein.ActiveResidues>  (182) 
 LYS47   THR48   LEU49   GLY50   THR51   GLY52   SER53   PHE54   GLY55   ARG56  
 VAL57   MET58   LEU59   TYR69   ALA70   MET71   LYS72   ILE73   LEU74   GLU91  
 LEU95   VAL104  LYS105  MET118  VAL119  MET120  GLU121  TYR122  VAL123  PRO124 
 GLY125  GLY126  GLU127  MET128  PHE129  TYR164  ASP166  LEU167  LYS168  PRO169 
 GLU170  ASN171  LEU172  LEU173  ILE174  GLN181  VAL182  THR183  ASP184  PHE185 
 GLY186  PHE187  GLY200  THR201  ASN326  PHE327  TYR330  ARG18   ARG19   ASN20  
 ALA21   ILE22   HIS23  

>  <Gold.Protein.RotatedAtoms>  (182) 
    9.6012   19.4849    8.2399 H   0  0  0  0  0  0  0  0  0  0  0  0  # atno 641  bound_to 637 
   16.0093   12.5980    6.3299 H   0  0  0  0  0  0  0  0  0  0  0  0  # atno 681  bound_to 677 
   19.8615   11.7856   -1.9467 H   0  0  0  0  0  0  0  0  0  0  0  0  # atno 702  bound_to 698 
   -6.5808   16.9914   -1.2718 H   0  0  0  0  0  0  0  0  0  0  0  0  # atno 965  bound_to 957 
    0.6955   10.9829   10.9369 H   0  0  0  0  0  0  0  0  0  0  0  0  # atno 1886 bound_to 1878
   10.6486    3.2767   -3.3103 H   0  0  0  0  0  0  0  0  0  0  0  0  # atno 2577 bound_to 2569
    8.0606    5.4049    0.3776 H   0  0  0  0  0  0  0  0  0  0  0  0  # atno 2891 bound_to 2887
   19.1671    2.9447    0.0459 H   0  0  0  0  0  0  0  0  0  0  0  0  # atno 3175 bound_to 3171
   14.1431    9.8751   10.2502 H   0  0  0  0  0  0  0  0  0  0  0  0  # atno 5278 bound_to 5270
   16.0219   13.7199    7.4601 LP  0  0  0  0  0  0  0  0  0  0  0  0  # atno 5914 bound_to 677 
   17.3021   13.5179    6.4667 LP  0  0  0  0  0  0  0  0  0  0  0  0  # atno 5915 bound_to 677 
   19.6957   11.7676   -0.3625 LP  0  0  0  0  0  0  0  0  0  0  0  0  # atno 5920 bound_to 698 
   21.1544   11.5223   -1.0543 LP  0  0  0  0  0  0  0  0  0  0  0  0  # atno 5921 bound_to 698 
   10.6221    1.9777   -2.3899 LP  0  0  0  0  0  0  0  0  0  0  0  0  # atno 5950 bound_to 2569
    9.2363    2.6364   -2.9488 LP  0  0  0  0  0  0  0  0  0  0  0  0  # atno 5951 bound_to 2569
    7.1346    5.8699    1.5870 LP  0  0  0  0  0  0  0  0  0  0  0  0  # atno 5982 bound_to 2887
    8.0569    6.9467    0.7767 LP  0  0  0  0  0  0  0  0  0  0  0  0  # atno 5983 bound_to 2887
   17.9049    2.0015   -0.1836 LP  0  0  0  0  0  0  0  0  0  0  0  0  # atno 6000 bound_to 3171
   18.8117    2.5082   -1.4436 LP  0  0  0  0  0  0  0  0  0  0  0  0  # atno 6001 bound_to 3171
   13.8034   10.2281    8.7347 LP  0  0  0  0  0  0  0  0  0  0  0  0  # atno 6004 bound_to 5270
   12.6124    9.9489    9.8164 LP  0  0  0  0  0  0  0  0  0  0  0  0  # atno 6005 bound_to 5270
   10.7286   18.9388    7.2572 LP  0  0  0  0  0  0  0  0  0  0  0  0  # atno 6055 bound_to 637 
   11.1241   19.6417    8.6771 LP  0  0  0  0  0  0  0  0  0  0  0  0  # atno 6056 bound_to 637 
    1.4953   12.3561   10.8374 LP  0  0  0  0  0  0  0  0  0  0  0  0  # atno 6063 bound_to 1878
    2.1578   10.9608   10.3074 LP  0  0  0  0  0  0  0  0  0  0  0  0  # atno 6064 bound_to 1878
   -7.2078   16.3704    0.0535 LP  0  0  0  0  0  0  0  0  0  0  0  0  # atno 6067 bound_to 957 
   -6.6694   15.4063   -1.1496 LP  0  0  0  0  0  0  0  0  0  0  0  0  # atno 6068 bound_to 957 

>  <STRIFE_LigEff_Score>  (182) 
2.812588888888889

$$$$
unknown|pharmsElabsTestPreDocking|sdf|183|dock10
     RDKit          3D

 19 20  0  0  0  0  0  0  0  0999 V2000
   13.7777    6.5726    3.5256 C   0  0  0  0  0  0  0  0  0  0  0  0
   13.6864    7.5958    2.3763 C   0  0  0  0  0  0  0  0  0  0  0  0
   13.9518    6.9139    1.1028 N   0  0  0  0  0  0  0  0  0  0  0  0
   12.2943    8.2942    2.3903 C   0  0  0  0  0  0  0  0  0  0  0  0
   11.1824    7.2571    2.1291 C   0  0  0  0  0  0  0  0  0  0  0  0
    9.8372    7.9547    1.9817 C   0  0  0  0  0  0  0  0  0  0  0  0
    9.4994    8.7273    3.2604 C   0  0  0  0  0  0  0  0  0  0  0  0
    8.1642    9.3998    3.1247 C   0  0  0  0  0  0  0  0  0  0  0  0
    7.9151   10.4686    3.7504 O   0  0  0  0  0  0  0  0  0  0  0  0
    7.1750    8.8111    2.2801 N   0  0  0  0  0  0  0  0  0  0  0  0
    5.8792    9.4395    2.0648 C   0  0  0  0  0  0  0  0  0  0  0  0
    5.0415    9.3001    3.2962 C   0  0  0  0  0  0  0  0  0  0  0  0
    5.3853    9.7433    4.5553 C   0  0  0  0  0  0  0  0  0  0  0  0
    4.2688    9.4800    5.3262 C   0  0  0  0  0  0  0  0  0  0  0  0
    3.3046    8.9301    4.5603 N   0  0  0  0  0  0  0  0  0  0  0  0
    3.7774    8.8358    3.3286 N   0  0  0  0  0  0  0  0  0  0  0  0
    3.0129    8.3058    2.2053 C   0  0  0  0  0  0  0  0  0  0  0  0
   10.6005    9.7412    3.6144 C   0  0  0  0  0  0  0  0  0  0  0  0
   11.9756    9.0573    3.7000 C   0  0  0  0  0  0  0  0  0  0  0  0
  1  2  1  0
  2  3  1  0
  2  4  1  0
  4  5  1  0
  5  6  1  0
  6  7  1  0
  7  8  1  0
  8  9  2  0
  8 10  1  0
 10 11  1  0
 11 12  1  0
 12 13  2  0
 13 14  1  0
 14 15  2  0
 15 16  1  0
 16 17  1  0
  7 18  1  0
 18 19  1  0
 19  4  1  0
 16 12  1  0
M  CHG  1   3   1
M  END
>  <EmbedRMS>  (183) 
0.027804703519808214

>  <Gold.Version>  (183) 
2020.3.0

>  <Gold.Id.Protein>  (183) 
unknown|1q8t_protein|pdb

>  <Gold.PLP.Fitness>  (183) 
58.8968

>  <Gold.PLP.PLP>  (183) 
-46.1357

>  <Gold.PLP.part.hbond>  (183) 
-3.8390

>  <Gold.PLP.part.metal>  (183) 
0.0000

>  <Gold.PLP.part.buried>  (183) 
-3.1929

>  <Gold.PLP.part.nonpolar>  (183) 
-39.4540

>  <Gold.PLP.part.repulsive>  (183) 
0.2073

>  <Gold.PLP.ligand.clash>  (183) 
0.0000

>  <Gold.PLP.ligand.torsion>  (183) 
0.8614

>  <Gold.PLP.Chemscore.Hbond>  (183) 
4.8049

>  <Gold.PLP.Chemscore.CHOScore>  (183) 
0.0000

>  <Gold.PLP.Chemscore.Metal>  (183) 
0.0000

>  <Gold.Chemscore.Hbonds>  (183) 
donor molecule, donor type, donor heavy atom, donor atom, acceptor molecule, acceptor atom, score
      L1  H     3    24       P1  2691  1.00
      L1  H     3    26       P1  2902  2.00
      L1  H    10    33       P1  2887  0.98
      P1  H  1888  1903       L1    15  0.83

>  <Gold.PLP.Chemscore.Internal.Correction>  (183) 
0.0692

>  <Gold.PLP.Constraint>  (183) 
-0.0000

>  <Gold.Protein.RotatedTorsions>  (183) 
[  681  677  676  673 ] final    2.79 input -179.99 | X-H torsion
[  702  698  697  694 ] final    3.83 input  179.99 | X-H torsion
[ 2577 2569 2568 2566 ] final  142.17 input   -0.13 | X-H torsion
[ 2891 2887 2886 2883 ] final   45.08 input  179.98 | X-H torsion
[ 3175 3171 3170 3167 ] final  -26.06 input -179.99 | X-H torsion
[ 5278 5270 5269 5267 ] final -151.80 input    0.55 | X-H torsion
[  641  637  636  633 ] final  -13.32 input  179.99 | X-H torsion
[ 1886 1878 1877 1875 ] final  137.29 input    1.60 | X-H torsion
[  965  957  956  954 ] final   -4.87 input    0.45 | X-H torsion

>  <Gold.Protein.ActiveResidues>  (183) 
 LYS47   THR48   LEU49   GLY50   THR51   GLY52   SER53   PHE54   GLY55   ARG56  
 VAL57   MET58   LEU59   TYR69   ALA70   MET71   LYS72   ILE73   LEU74   GLU91  
 LEU95   VAL104  LYS105  MET118  VAL119  MET120  GLU121  TYR122  VAL123  PRO124 
 GLY125  GLY126  GLU127  MET128  PHE129  TYR164  ASP166  LEU167  LYS168  PRO169 
 GLU170  ASN171  LEU172  LEU173  ILE174  GLN181  VAL182  THR183  ASP184  PHE185 
 GLY186  PHE187  GLY200  THR201  ASN326  PHE327  TYR330  ARG18   ARG19   ASN20  
 ALA21   ILE22   HIS23  

>  <Gold.Protein.RotatedAtoms>  (183) 
    9.6437   19.2273    7.7400 H   0  0  0  0  0  0  0  0  0  0  0  0  # atno 641  bound_to 637 
   15.8997   12.6254    6.4250 H   0  0  0  0  0  0  0  0  0  0  0  0  # atno 681  bound_to 677 
   19.4646   11.8317   -0.6912 H   0  0  0  0  0  0  0  0  0  0  0  0  # atno 702  bound_to 698 
   -6.6879   15.4252   -1.0693 H   0  0  0  0  0  0  0  0  0  0  0  0  # atno 965  bound_to 957 
    0.9476   12.1046   11.0171 H   0  0  0  0  0  0  0  0  0  0  0  0  # atno 1886 bound_to 1878
   10.0233    1.9055   -2.4040 H   0  0  0  0  0  0  0  0  0  0  0  0  # atno 2577 bound_to 2569
    8.3326    6.0568    0.2188 H   0  0  0  0  0  0  0  0  0  0  0  0  # atno 2891 bound_to 2887
   19.3160    2.9306   -0.9043 H   0  0  0  0  0  0  0  0  0  0  0  0  # atno 3175 bound_to 3171
   14.4020    9.9846    9.8170 H   0  0  0  0  0  0  0  0  0  0  0  0  # atno 5278 bound_to 5270
   16.1516   13.8053    7.4644 LP  0  0  0  0  0  0  0  0  0  0  0  0  # atno 5914 bound_to 677 
   17.2877   13.4036    6.3623 LP  0  0  0  0  0  0  0  0  0  0  0  0  # atno 5915 bound_to 677 
   21.0297   11.5368   -0.6596 LP  0  0  0  0  0  0  0  0  0  0  0  0  # atno 5920 bound_to 698 
   20.2380   11.7046   -2.0779 LP  0  0  0  0  0  0  0  0  0  0  0  0  # atno 5921 bound_to 698 
    9.4557    3.1175   -3.2668 LP  0  0  0  0  0  0  0  0  0  0  0  0  # atno 5950 bound_to 2569
   11.0611    2.9404   -3.0262 LP  0  0  0  0  0  0  0  0  0  0  0  0  # atno 5951 bound_to 2569
    7.3527    5.2586    1.1879 LP  0  0  0  0  0  0  0  0  0  0  0  0  # atno 5982 bound_to 2887
    7.5525    6.8719    1.3429 LP  0  0  0  0  0  0  0  0  0  0  0  0  # atno 5983 bound_to 2887
   18.5201    2.5359    0.4172 LP  0  0  0  0  0  0  0  0  0  0  0  0  # atno 6000 bound_to 3171
   18.0398    1.9887   -1.0445 LP  0  0  0  0  0  0  0  0  0  0  0  0  # atno 6001 bound_to 3171
   13.2601   10.2230    8.7326 LP  0  0  0  0  0  0  0  0  0  0  0  0  # atno 6004 bound_to 5270
   12.8833    9.8388   10.2743 LP  0  0  0  0  0  0  0  0  0  0  0  0  # atno 6005 bound_to 5270
   11.2185   19.0694    7.5665 LP  0  0  0  0  0  0  0  0  0  0  0  0  # atno 6055 bound_to 637 
   10.5895   19.7824    8.8942 LP  0  0  0  0  0  0  0  0  0  0  0  0  # atno 6056 bound_to 637 
    2.2986   11.5870   10.3521 LP  0  0  0  0  0  0  0  0  0  0  0  0  # atno 6063 bound_to 1878
    1.0893   10.5490   10.7082 LP  0  0  0  0  0  0  0  0  0  0  0  0  # atno 6064 bound_to 1878
   -6.5614   16.9866   -1.3539 LP  0  0  0  0  0  0  0  0  0  0  0  0  # atno 6067 bound_to 957 
   -7.2031   16.4396    0.0445 LP  0  0  0  0  0  0  0  0  0  0  0  0  # atno 6068 bound_to 957 

>  <STRIFE_LigEff_Score>  (183) 
3.0998315789473683

$$$$
unknown|pharmsElabsTestPreDocking|sdf|184|dock4
     RDKit          3D

 18 18  0  0  0  0  0  0  0  0999 V2000
    3.9090   10.0875    5.0945 C   0  0  0  0  0  0  0  0  0  0  0  0
    5.2706    9.6046    4.8954 N   0  0  0  0  0  0  0  0  0  0  0  0
    5.7623    9.1105    3.7940 C   0  0  0  0  0  0  0  0  0  0  0  0
    7.1583    8.7780    3.7830 N   0  0  0  0  0  0  0  0  0  0  0  0
    8.1374    9.3631    2.9129 C   0  0  0  0  0  0  0  0  0  0  0  0
    7.7853   10.0993    1.9493 O   0  0  0  0  0  0  0  0  0  0  0  0
    9.5972    9.0834    3.1557 C   0  0  0  0  0  0  0  0  0  0  0  0
    9.9572    7.6716    2.6983 C   0  0  0  0  0  0  0  0  0  0  0  0
   11.3892    7.3122    3.0698 C   0  0  0  0  0  0  0  0  0  0  0  0
   12.4513    8.4083    2.7856 C   0  0  0  0  0  0  0  0  0  0  0  0
   13.6529    8.0882    1.8745 C   0  0  0  0  0  0  0  0  0  0  0  0
   14.4445    9.2571    1.2881 C   0  0  0  0  0  0  0  0  0  0  0  0
   13.3168    7.1064    0.8344 N   0  0  0  0  0  0  0  0  0  0  0  0
   11.9504    9.8804    2.6666 C   0  0  0  0  0  0  0  0  0  0  0  0
   10.4604   10.0876    2.4000 C   0  0  0  0  0  0  0  0  0  0  0  0
    4.9491    9.0096    2.5518 C   0  0  0  0  0  0  0  0  0  0  0  0
    3.5533    8.4601    2.5955 C   0  0  0  0  0  0  0  0  0  0  0  0
    5.4420    9.4034    1.4199 N   0  0  0  0  0  0  0  0  0  0  0  0
  1  2  1  0
  2  3  2  0
  3  4  1  0
  4  5  1  0
  5  6  2  0
  5  7  1  0
  7  8  1  0
  8  9  1  0
  9 10  1  0
 10 11  1  0
 11 12  1  0
 11 13  1  0
 10 14  1  0
 14 15  1  0
  3 16  1  0
 16 17  1  0
 16 18  2  0
 15  7  1  0
M  CHG  1  13   1
M  END
>  <EmbedRMS>  (184) 
0.20210563071247709

>  <Gold.Version>  (184) 
2020.3.0

>  <Gold.Id.Protein>  (184) 
unknown|1q8t_protein|pdb

>  <Gold.PLP.Fitness>  (184) 
43.2057

>  <Gold.PLP.PLP>  (184) 
-38.4898

>  <Gold.PLP.part.hbond>  (184) 
-1.7046

>  <Gold.PLP.part.metal>  (184) 
0.0000

>  <Gold.PLP.part.buried>  (184) 
-5.7769

>  <Gold.PLP.part.nonpolar>  (184) 
-31.8681

>  <Gold.PLP.part.repulsive>  (184) 
0.0729

>  <Gold.PLP.ligand.clash>  (184) 
0.0000

>  <Gold.PLP.ligand.torsion>  (184) 
2.5985

>  <Gold.PLP.Chemscore.Hbond>  (184) 
2.6080

>  <Gold.PLP.Chemscore.CHOScore>  (184) 
0.0000

>  <Gold.PLP.Chemscore.Metal>  (184) 
0.0000

>  <Gold.Chemscore.Hbonds>  (184) 
donor molecule, donor type, donor heavy atom, donor atom, acceptor molecule, acceptor atom, score
      L1  H    13    34       P1  2691  0.61
      L1  H    13    35       P1  2902  2.00

>  <Gold.PLP.Chemscore.Internal.Correction>  (184) 
2.0890

>  <Gold.PLP.Constraint>  (184) 
-0.0000

>  <Gold.Protein.RotatedTorsions>  (184) 
[  681  677  676  673 ] final -141.70 input -179.99 | X-H torsion
[  702  698  697  694 ] final  174.68 input  179.99 | X-H torsion
[ 2577 2569 2568 2566 ] final  126.13 input   -0.13 | X-H torsion
[ 2891 2887 2886 2883 ] final  -82.04 input  179.98 | X-H torsion
[ 3175 3171 3170 3167 ] final -118.88 input -179.99 | X-H torsion
[ 5278 5270 5269 5267 ] final -126.70 input    0.55 | X-H torsion
[  641  637  636  633 ] final   -0.22 input  179.99 | X-H torsion
[ 1886 1878 1877 1875 ] final -110.65 input    1.60 | X-H torsion
[  965  957  956  954 ] final -159.31 input    0.45 | X-H torsion

>  <Gold.Protein.ActiveResidues>  (184) 
 LYS47   THR48   LEU49   GLY50   THR51   GLY52   SER53   PHE54   GLY55   ARG56  
 VAL57   MET58   LEU59   TYR69   ALA70   MET71   LYS72   ILE73   LEU74   GLU91  
 LEU95   VAL104  LYS105  MET118  VAL119  MET120  GLU121  TYR122  VAL123  PRO124 
 GLY125  GLY126  GLU127  MET128  PHE129  TYR164  ASP166  LEU167  LYS168  PRO169 
 GLU170  ASN171  LEU172  LEU173  ILE174  GLN181  VAL182  THR183  ASP184  PHE185 
 GLY186  PHE187  GLY200  THR201  ASN326  PHE327  TYR330  ARG18   ARG19   ASN20  
 ALA21   ILE22   HIS23  

>  <Gold.Protein.RotatedAtoms>  (184) 
    9.5870   19.3190    7.9134 H   0  0  0  0  0  0  0  0  0  0  0  0  # atno 641  bound_to 637 
   16.5043   13.9298    7.3437 H   0  0  0  0  0  0  0  0  0  0  0  0  # atno 681  bound_to 677 
   20.9219   11.5928   -1.6971 H   0  0  0  0  0  0  0  0  0  0  0  0  # atno 702  bound_to 698 
   -6.7598   17.1592   -0.8750 H   0  0  0  0  0  0  0  0  0  0  0  0  # atno 965  bound_to 957 
    0.9993   10.6453   10.7454 H   0  0  0  0  0  0  0  0  0  0  0  0  # atno 1886 bound_to 1878
    9.7861    1.9608   -2.4598 H   0  0  0  0  0  0  0  0  0  0  0  0  # atno 2577 bound_to 2569
    7.3078    5.3626    1.2394 H   0  0  0  0  0  0  0  0  0  0  0  0  # atno 2891 bound_to 2887
   18.8741    2.7614    0.3037 H   0  0  0  0  0  0  0  0  0  0  0  0  # atno 3175 bound_to 3171
   14.2319    9.8990   10.1569 H   0  0  0  0  0  0  0  0  0  0  0  0  # atno 5278 bound_to 5270
   17.1460   13.0979    6.1470 LP  0  0  0  0  0  0  0  0  0  0  0  0  # atno 5914 bound_to 677 
   15.6570   12.7381    6.7128 LP  0  0  0  0  0  0  0  0  0  0  0  0  # atno 5915 bound_to 677 
   19.3652   11.8477   -1.4755 LP  0  0  0  0  0  0  0  0  0  0  0  0  # atno 5920 bound_to 698 
   20.3695   11.6451   -0.2039 LP  0  0  0  0  0  0  0  0  0  0  0  0  # atno 5921 bound_to 698 
    9.6508    3.2688   -3.3576 LP  0  0  0  0  0  0  0  0  0  0  0  0  # atno 5950 bound_to 2569
   11.1158    2.7310   -2.8767 LP  0  0  0  0  0  0  0  0  0  0  0  0  # atno 5951 bound_to 2569
    7.6274    6.9226    1.2684 LP  0  0  0  0  0  0  0  0  0  0  0  0  # atno 5982 bound_to 2887
    8.3564    5.9385    0.1882 LP  0  0  0  0  0  0  0  0  0  0  0  0  # atno 5983 bound_to 2887
   17.8888    1.9309   -0.6317 LP  0  0  0  0  0  0  0  0  0  0  0  0  # atno 6000 bound_to 3171
   19.1363    2.7717   -1.2669 LP  0  0  0  0  0  0  0  0  0  0  0  0  # atno 6001 bound_to 3171
   13.6689   10.2340    8.7051 LP  0  0  0  0  0  0  0  0  0  0  0  0  # atno 6004 bound_to 5270
   12.6535    9.9178    9.9443 LP  0  0  0  0  0  0  0  0  0  0  0  0  # atno 6005 bound_to 5270
   11.0697   19.0055    7.4251 LP  0  0  0  0  0  0  0  0  0  0  0  0  # atno 6055 bound_to 637 
   10.7980   19.7497    8.8530 LP  0  0  0  0  0  0  0  0  0  0  0  0  # atno 6056 bound_to 637 
    1.0302   12.2137   11.0182 LP  0  0  0  0  0  0  0  0  0  0  0  0  # atno 6063 bound_to 1878
    2.3031   11.4586   10.3282 LP  0  0  0  0  0  0  0  0  0  0  0  0  # atno 6064 bound_to 1878
   -7.1801   15.8851   -0.0176 LP  0  0  0  0  0  0  0  0  0  0  0  0  # atno 6067 bound_to 957 
   -6.5087   15.7149   -1.4964 LP  0  0  0  0  0  0  0  0  0  0  0  0  # atno 6068 bound_to 957 

>  <STRIFE_LigEff_Score>  (184) 
2.400316666666667

$$$$
unknown|pharmsElabsTestPreDocking|sdf|185|dock1
     RDKit          3D

 18 18  0  0  0  0  0  0  0  0999 V2000
    5.2329    9.2012    1.3985 C   0  0  0  0  0  0  0  0  0  0  0  0
    4.7799    9.0906    2.6502 C   0  0  0  0  0  0  0  0  0  0  0  0
    3.3025    8.9074    2.8900 C   0  0  0  0  0  0  0  0  0  0  0  0
    5.7219    9.2960    3.7900 C   0  0  0  0  0  0  0  0  0  0  0  0
    5.3407   10.0439    4.8426 C   0  0  0  0  0  0  0  0  0  0  0  0
    6.2346   10.3246    6.0106 C   0  0  0  0  0  0  0  0  0  0  0  0
    7.0767    8.8050    3.7284 N   0  0  0  0  0  0  0  0  0  0  0  0
    8.0808    9.2855    2.8265 C   0  0  0  0  0  0  0  0  0  0  0  0
    7.7830   10.1023    1.9090 O   0  0  0  0  0  0  0  0  0  0  0  0
    9.5066    8.8145    2.9919 C   0  0  0  0  0  0  0  0  0  0  0  0
    9.9170    7.9842    1.7818 C   0  0  0  0  0  0  0  0  0  0  0  0
   11.3010    7.3786    1.9330 C   0  0  0  0  0  0  0  0  0  0  0  0
   12.3456    8.2981    2.5938 C   0  0  0  0  0  0  0  0  0  0  0  0
   13.8397    8.0403    2.1865 C   0  0  0  0  0  0  0  0  0  0  0  0
   14.7805    7.5806    3.3105 C   0  0  0  0  0  0  0  0  0  0  0  0
   13.9554    7.1406    1.0330 N   0  0  0  0  0  0  0  0  0  0  0  0
   11.9404    9.7140    3.0543 C   0  0  0  0  0  0  0  0  0  0  0  0
   10.4344   10.0221    3.1636 C   0  0  0  0  0  0  0  0  0  0  0  0
  1  2  2  0
  2  3  1  0
  2  4  1  0
  4  5  2  0
  5  6  1  0
  4  7  1  0
  7  8  1  0
  8  9  2  0
  8 10  1  0
 10 11  1  0
 11 12  1  0
 12 13  1  0
 13 14  1  0
 14 15  1  0
 14 16  1  0
 13 17  1  0
 17 18  1  0
 18 10  1  0
M  CHG  1  16   1
M  END
>  <EmbedRMS>  (185) 
0.16480955270904202

>  <Gold.Version>  (185) 
2020.3.0

>  <Gold.Id.Protein>  (185) 
unknown|1q8t_protein|pdb

>  <Gold.PLP.Fitness>  (185) 
47.5292

>  <Gold.PLP.PLP>  (185) 
-41.5967

>  <Gold.PLP.part.hbond>  (185) 
-2.0000

>  <Gold.PLP.part.metal>  (185) 
0.0000

>  <Gold.PLP.part.buried>  (185) 
-3.1596

>  <Gold.PLP.part.nonpolar>  (185) 
-36.7631

>  <Gold.PLP.part.repulsive>  (185) 
0.0577

>  <Gold.PLP.ligand.clash>  (185) 
0.0000

>  <Gold.PLP.ligand.torsion>  (185) 
2.4490

>  <Gold.PLP.Chemscore.Hbond>  (185) 
3.0000

>  <Gold.PLP.Chemscore.CHOScore>  (185) 
0.0000

>  <Gold.PLP.Chemscore.Metal>  (185) 
0.0000

>  <Gold.Chemscore.Hbonds>  (185) 
donor molecule, donor type, donor heavy atom, donor atom, acceptor molecule, acceptor atom, score
      L1  H    16    39       P1  2902  2.00
      L1  H    16    41       P1  2691  1.00

>  <Gold.PLP.Chemscore.Internal.Correction>  (185) 
1.8305

>  <Gold.PLP.Constraint>  (185) 
-0.0000

>  <Gold.Protein.RotatedTorsions>  (185) 
[  681  677  676  673 ] final  106.78 input -179.99 | X-H torsion
[  702  698  697  694 ] final  -78.86 input  179.99 | X-H torsion
[ 2577 2569 2568 2566 ] final  149.95 input   -0.13 | X-H torsion
[ 2891 2887 2886 2883 ] final   30.53 input  179.98 | X-H torsion
[ 3175 3171 3170 3167 ] final   83.04 input -179.99 | X-H torsion
[ 5278 5270 5269 5267 ] final  -14.86 input    0.55 | X-H torsion
[  641  637  636  633 ] final  -31.02 input  179.99 | X-H torsion
[ 1886 1878 1877 1875 ] final  164.55 input    1.60 | X-H torsion
[  965  957  956  954 ] final -112.02 input    0.45 | X-H torsion

>  <Gold.Protein.ActiveResidues>  (185) 
 LYS47   THR48   LEU49   GLY50   THR51   GLY52   SER53   PHE54   GLY55   ARG56  
 VAL57   MET58   LEU59   TYR69   ALA70   MET71   LYS72   ILE73   LEU74   GLU91  
 LEU95   VAL104  LYS105  MET118  VAL119  MET120  GLU121  TYR122  VAL123  PRO124 
 GLY125  GLY126  GLU127  MET128  PHE129  TYR164  ASP166  LEU167  LYS168  PRO169 
 GLU170  ASN171  LEU172  LEU173  ILE174  GLN181  VAL182  THR183  ASP184  PHE185 
 GLY186  PHE187  GLY200  THR201  ASN326  PHE327  TYR330  ARG18   ARG19   ASN20  
 ALA21   ILE22   HIS23  

>  <Gold.Protein.RotatedAtoms>  (185) 
    9.7876   19.1141    7.5341 H   0  0  0  0  0  0  0  0  0  0  0  0  # atno 641  bound_to 637 
   17.1661   13.2169    6.2269 H   0  0  0  0  0  0  0  0  0  0  0  0  # atno 681  bound_to 677 
   20.5661   11.6291   -0.3065 H   0  0  0  0  0  0  0  0  0  0  0  0  # atno 702  bound_to 698 
   -6.5040   16.8042   -1.4445 H   0  0  0  0  0  0  0  0  0  0  0  0  # atno 965  bound_to 957 
    0.6977   11.7688   11.0700 H   0  0  0  0  0  0  0  0  0  0  0  0  # atno 1886 bound_to 1878
   10.1439    1.8991   -2.3907 H   0  0  0  0  0  0  0  0  0  0  0  0  # atno 2577 bound_to 2569
    8.2863    5.8347    0.2192 H   0  0  0  0  0  0  0  0  0  0  0  0  # atno 2891 bound_to 2887
   18.1750    2.0537   -1.1466 H   0  0  0  0  0  0  0  0  0  0  0  0  # atno 3175 bound_to 3171
   12.7520    9.9116   10.0435 H   0  0  0  0  0  0  0  0  0  0  0  0  # atno 5278 bound_to 5270
   15.7193   12.6710    6.6076 LP  0  0  0  0  0  0  0  0  0  0  0  0  # atno 5914 bound_to 677 
   16.3871   13.9153    7.4275 LP  0  0  0  0  0  0  0  0  0  0  0  0  # atno 5915 bound_to 677 
   20.7989   11.6014   -1.8821 LP  0  0  0  0  0  0  0  0  0  0  0  0  # atno 5920 bound_to 698 
   19.3101   11.8533   -1.2602 LP  0  0  0  0  0  0  0  0  0  0  0  0  # atno 5921 bound_to 698 
    9.3805    3.0299   -3.2115 LP  0  0  0  0  0  0  0  0  0  0  0  0  # atno 5950 bound_to 2569
   11.0093    3.0347   -3.0955 LP  0  0  0  0  0  0  0  0  0  0  0  0  # atno 5951 bound_to 2569
    7.2464    5.4030    1.3456 LP  0  0  0  0  0  0  0  0  0  0  0  0  # atno 5982 bound_to 2887
    7.7076    6.9612    1.1848 LP  0  0  0  0  0  0  0  0  0  0  0  0  # atno 5983 bound_to 2887
   19.3807    3.0192   -0.7597 LP  0  0  0  0  0  0  0  0  0  0  0  0  # atno 6000 bound_to 3171
   18.3800    2.4282    0.3875 LP  0  0  0  0  0  0  0  0  0  0  0  0  # atno 6001 bound_to 3171
   14.3444    9.9035   10.0738 LP  0  0  0  0  0  0  0  0  0  0  0  0  # atno 6004 bound_to 5270
   13.5351   10.2352    8.6948 LP  0  0  0  0  0  0  0  0  0  0  0  0  # atno 6005 bound_to 5270
   11.3566   19.1792    7.7968 LP  0  0  0  0  0  0  0  0  0  0  0  0  # atno 6055 bound_to 637 
   10.2999   19.7917    8.8807 LP  0  0  0  0  0  0  0  0  0  0  0  0  # atno 6056 bound_to 637 
    2.1607   11.9890   10.4815 LP  0  0  0  0  0  0  0  0  0  0  0  0  # atno 6063 bound_to 1878
    1.4902   10.5006   10.5232 LP  0  0  0  0  0  0  0  0  0  0  0  0  # atno 6064 bound_to 1878
   -7.1762   16.6413   -0.0103 LP  0  0  0  0  0  0  0  0  0  0  0  0  # atno 6067 bound_to 957 
   -6.7820   15.3326   -0.9039 LP  0  0  0  0  0  0  0  0  0  0  0  0  # atno 6068 bound_to 957 

>  <STRIFE_LigEff_Score>  (185) 
2.6405111111111115

$$$$
unknown|pharmsElabsTestPreDocking|sdf|186|dock10
     RDKit          3D

 18 18  0  0  0  0  0  0  0  0999 V2000
    4.6006   10.0239    5.7089 C   0  0  0  0  0  0  0  0  0  0  0  0
    4.1153    9.8604    4.3018 C   0  0  0  0  0  0  0  0  0  0  0  0
    4.9055    9.4406    3.2968 C   0  0  0  0  0  0  0  0  0  0  0  0
    6.2701    9.0699    3.5777 N   0  0  0  0  0  0  0  0  0  0  0  0
    7.3985    9.4850    2.8017 C   0  0  0  0  0  0  0  0  0  0  0  0
    7.2819   10.4005    1.9385 O   0  0  0  0  0  0  0  0  0  0  0  0
    8.7413    8.8436    3.0540 C   0  0  0  0  0  0  0  0  0  0  0  0
    9.2252    8.1617    1.7807 C   0  0  0  0  0  0  0  0  0  0  0  0
   10.5142    7.3875    1.9893 C   0  0  0  0  0  0  0  0  0  0  0  0
   11.5458    8.0745    2.9043 C   0  0  0  0  0  0  0  0  0  0  0  0
   13.0488    7.7119    2.6332 C   0  0  0  0  0  0  0  0  0  0  0  0
   13.7449    6.8571    3.7031 C   0  0  0  0  0  0  0  0  0  0  0  0
   13.2481    7.1188    1.3060 N   0  0  0  0  0  0  0  0  0  0  0  0
   11.2193    9.4436    3.5372 C   0  0  0  0  0  0  0  0  0  0  0  0
    9.7472    9.9001    3.5238 C   0  0  0  0  0  0  0  0  0  0  0  0
    4.3550    9.2744    1.9674 N   0  0  0  0  0  0  0  0  0  0  0  0
    2.9435    9.5577    1.6982 C   0  0  0  0  0  0  0  0  0  0  0  0
    5.2162    8.9454    0.8278 C   0  0  0  0  0  0  0  0  0  0  0  0
  1  2  1  0
  2  3  2  0
  3  4  1  0
  4  5  1  0
  5  6  2  0
  5  7  1  0
  7  8  1  0
  8  9  1  0
  9 10  1  0
 10 11  1  0
 11 12  1  0
 11 13  1  0
 10 14  1  0
 14 15  1  0
  3 16  1  0
 16 17  1  0
 16 18  1  0
 15  7  1  0
M  CHG  1  13   1
M  END
>  <EmbedRMS>  (186) 
0.16484252671190003

>  <Gold.Version>  (186) 
2020.3.0

>  <Gold.Id.Protein>  (186) 
unknown|1q8t_protein|pdb

>  <Gold.PLP.Fitness>  (186) 
44.8866

>  <Gold.PLP.PLP>  (186) 
-39.0340

>  <Gold.PLP.part.hbond>  (186) 
-1.9541

>  <Gold.PLP.part.metal>  (186) 
0.0000

>  <Gold.PLP.part.buried>  (186) 
1.2274

>  <Gold.PLP.part.nonpolar>  (186) 
-38.7735

>  <Gold.PLP.part.repulsive>  (186) 
0.0362

>  <Gold.PLP.ligand.clash>  (186) 
0.2825

>  <Gold.PLP.ligand.torsion>  (186) 
1.6572

>  <Gold.PLP.Chemscore.Hbond>  (186) 
2.6640

>  <Gold.PLP.Chemscore.CHOScore>  (186) 
0.0000

>  <Gold.PLP.Chemscore.Metal>  (186) 
0.0000

>  <Gold.Chemscore.Hbonds>  (186) 
donor molecule, donor type, donor heavy atom, donor atom, acceptor molecule, acceptor atom, score
      L1  H    13    34       P1  2691  1.00
      L1  H    13    36       P1  2902  1.66

>  <Gold.PLP.Chemscore.Internal.Correction>  (186) 
1.4575

>  <Gold.PLP.Constraint>  (186) 
-0.0000

>  <Gold.Protein.RotatedTorsions>  (186) 
[  681  677  676  673 ] final -167.03 input -179.99 | X-H torsion
[  702  698  697  694 ] final  167.71 input  179.99 | X-H torsion
[ 2577 2569 2568 2566 ] final  -66.05 input   -0.13 | X-H torsion
[ 2891 2887 2886 2883 ] final  -25.13 input  179.98 | X-H torsion
[ 3175 3171 3170 3167 ] final   61.98 input -179.99 | X-H torsion
[ 5278 5270 5269 5267 ] final   94.78 input    0.55 | X-H torsion
[  641  637  636  633 ] final  137.04 input  179.99 | X-H torsion
[ 1886 1878 1877 1875 ] final  -53.77 input    1.60 | X-H torsion
[  965  957  956  954 ] final   77.51 input    0.45 | X-H torsion

>  <Gold.Protein.ActiveResidues>  (186) 
 LYS47   THR48   LEU49   GLY50   THR51   GLY52   SER53   PHE54   GLY55   ARG56  
 VAL57   MET58   LEU59   TYR69   ALA70   MET71   LYS72   ILE73   LEU74   GLU91  
 LEU95   VAL104  LYS105  MET118  VAL119  MET120  GLU121  TYR122  VAL123  PRO124 
 GLY125  GLY126  GLU127  MET128  PHE129  TYR164  ASP166  LEU167  LYS168  PRO169 
 GLU170  ASN171  LEU172  LEU173  ILE174  GLN181  VAL182  THR183  ASP184  PHE185 
 GLY186  PHE187  GLY200  THR201  ASN326  PHE327  TYR330  ARG18   ARG19   ASN20  
 ALA21   ILE22   HIS23  

>  <Gold.Protein.RotatedAtoms>  (186) 
   11.0153   19.6458    8.7096 H   0  0  0  0  0  0  0  0  0  0  0  0  # atno 641  bound_to 637 
   16.8468   13.9512    7.1527 H   0  0  0  0  0  0  0  0  0  0  0  0  # atno 681  bound_to 677 
   20.8499   11.6071   -1.7776 H   0  0  0  0  0  0  0  0  0  0  0  0  # atno 702  bound_to 698 
   -7.1385   15.8595   -0.0700 H   0  0  0  0  0  0  0  0  0  0  0  0  # atno 965  bound_to 957 
    1.7803   10.6532   10.4024 H   0  0  0  0  0  0  0  0  0  0  0  0  # atno 1886 bound_to 1878
   10.7306    3.2323   -3.2735 H   0  0  0  0  0  0  0  0  0  0  0  0  # atno 2577 bound_to 2569
    7.8427    5.2288    0.5877 H   0  0  0  0  0  0  0  0  0  0  0  0  # atno 2891 bound_to 2887
   18.4035    2.1989   -1.3306 H   0  0  0  0  0  0  0  0  0  0  0  0  # atno 3175 bound_to 3171
   13.3735   10.2353    8.7572 H   0  0  0  0  0  0  0  0  0  0  0  0  # atno 5278 bound_to 5270
   16.8662   12.8136    6.0384 LP  0  0  0  0  0  0  0  0  0  0  0  0  # atno 5914 bound_to 677 
   15.5763   12.9999    7.0223 LP  0  0  0  0  0  0  0  0  0  0  0  0  # atno 5915 bound_to 677 
   19.3306   11.8517   -1.3663 LP  0  0  0  0  0  0  0  0  0  0  0  0  # atno 5920 bound_to 698 
   20.4798   11.6260   -0.2284 LP  0  0  0  0  0  0  0  0  0  0  0  0  # atno 5921 bound_to 698 
   10.5266    1.9378   -2.3692 LP  0  0  0  0  0  0  0  0  0  0  0  0  # atno 5950 bound_to 2569
    9.2455    2.7231   -3.0083 LP  0  0  0  0  0  0  0  0  0  0  0  0  # atno 5951 bound_to 2569
    7.1752    6.2340    1.6271 LP  0  0  0  0  0  0  0  0  0  0  0  0  # atno 5982 bound_to 2887
    8.2455    6.7679    0.5154 LP  0  0  0  0  0  0  0  0  0  0  0  0  # atno 5983 bound_to 2887
   19.3806    3.0639   -0.4181 LP  0  0  0  0  0  0  0  0  0  0  0  0  # atno 6000 bound_to 3171
   18.1396    2.2308    0.2394 LP  0  0  0  0  0  0  0  0  0  0  0  0  # atno 6001 bound_to 3171
   12.8089    9.8569   10.1977 LP  0  0  0  0  0  0  0  0  0  0  0  0  # atno 6004 bound_to 5270
   14.4167    9.9411    9.9243 LP  0  0  0  0  0  0  0  0  0  0  0  0  # atno 6005 bound_to 5270
    9.5363   19.4611    8.1497 LP  0  0  0  0  0  0  0  0  0  0  0  0  # atno 6055 bound_to 637 
   10.8272   18.9500    7.2899 LP  0  0  0  0  0  0  0  0  0  0  0  0  # atno 6056 bound_to 637 
    0.5774   11.4412   11.0861 LP  0  0  0  0  0  0  0  0  0  0  0  0  # atno 6063 bound_to 1878
    1.9338   12.2228   10.6214 LP  0  0  0  0  0  0  0  0  0  0  0  0  # atno 6064 bound_to 1878
   -6.4960   15.7582   -1.5232 LP  0  0  0  0  0  0  0  0  0  0  0  0  # atno 6067 bound_to 957 
   -6.7938   17.2106   -0.8386 LP  0  0  0  0  0  0  0  0  0  0  0  0  # atno 6068 bound_to 957 

>  <STRIFE_LigEff_Score>  (186) 
2.4937

$$$$
unknown|pharmsElabsTestPreDocking|sdf|187|dock10
     RDKit          3D

 18 19  0  0  0  0  0  0  0  0999 V2000
   14.4125    9.4786    1.2562 C   0  0  0  0  0  0  0  0  0  0  0  0
   13.6302    8.2441    1.6717 C   0  0  0  0  0  0  0  0  0  0  0  0
   13.9605    7.0319    0.9305 N   0  0  0  0  0  0  0  0  0  0  0  0
   12.1378    8.4547    2.0714 C   0  0  0  0  0  0  0  0  0  0  0  0
   11.4634    7.3647    2.9192 C   0  0  0  0  0  0  0  0  0  0  0  0
    9.9302    7.5189    2.9033 C   0  0  0  0  0  0  0  0  0  0  0  0
    9.4449    8.9467    2.6404 C   0  0  0  0  0  0  0  0  0  0  0  0
    7.9649    9.1337    2.7666 C   0  0  0  0  0  0  0  0  0  0  0  0
    7.4259    9.5402    1.7142 O   0  0  0  0  0  0  0  0  0  0  0  0
    7.1684    8.8867    3.9486 N   0  0  0  0  0  0  0  0  0  0  0  0
    5.7492    9.2021    4.0685 C   0  0  0  0  0  0  0  0  0  0  0  0
    5.2602    9.7285    5.2797 C   0  0  0  0  0  0  0  0  0  0  0  0
    3.9041   10.0547    5.4254 C   0  0  0  0  0  0  0  0  0  0  0  0
    3.0125    9.8527    4.3711 C   0  0  0  0  0  0  0  0  0  0  0  0
    3.4719    9.3364    3.1666 C   0  0  0  0  0  0  0  0  0  0  0  0
    4.8189    9.0275    3.0068 C   0  0  0  0  0  0  0  0  0  0  0  0
   10.3484   10.1377    2.8988 C   0  0  0  0  0  0  0  0  0  0  0  0
   11.8484    9.8424    2.6834 C   0  0  0  0  0  0  0  0  0  0  0  0
  1  2  1  0
  2  3  1  0
  2  4  1  0
  4  5  1  0
  5  6  1  0
  6  7  1  0
  7  8  1  0
  8  9  2  0
  8 10  1  0
 10 11  1  0
 11 12  2  0
 12 13  1  0
 13 14  2  0
 14 15  1  0
 15 16  2  0
  7 17  1  0
 17 18  1  0
 18  4  1  0
 16 11  1  0
M  CHG  1   3   1
M  END
>  <EmbedRMS>  (187) 
0.24964892458419108

>  <Gold.Version>  (187) 
2020.3.0

>  <Gold.Id.Protein>  (187) 
unknown|1q8t_protein|pdb

>  <Gold.PLP.Fitness>  (187) 
55.1633

>  <Gold.PLP.PLP>  (187) 
-47.2685

>  <Gold.PLP.part.hbond>  (187) 
-2.0000

>  <Gold.PLP.part.metal>  (187) 
0.0000

>  <Gold.PLP.part.buried>  (187) 
-1.5385

>  <Gold.PLP.part.nonpolar>  (187) 
-45.0211

>  <Gold.PLP.part.repulsive>  (187) 
0.0699

>  <Gold.PLP.ligand.clash>  (187) 
0.0000

>  <Gold.PLP.ligand.torsion>  (187) 
0.9604

>  <Gold.PLP.Chemscore.Hbond>  (187) 
2.9600

>  <Gold.PLP.Chemscore.CHOScore>  (187) 
0.0000

>  <Gold.PLP.Chemscore.Metal>  (187) 
0.0000

>  <Gold.Chemscore.Hbonds>  (187) 
donor molecule, donor type, donor heavy atom, donor atom, acceptor molecule, acceptor atom, score
      L1  H     3    24       P1  2902  2.00
      L1  H     3    25       P1  2691  0.96

>  <Gold.PLP.Chemscore.Internal.Correction>  (187) 
0.9355

>  <Gold.PLP.Constraint>  (187) 
-0.0000

>  <Gold.Protein.RotatedTorsions>  (187) 
[  681  677  676  673 ] final -129.52 input -179.99 | X-H torsion
[  702  698  697  694 ] final -175.56 input  179.99 | X-H torsion
[ 2577 2569 2568 2566 ] final  146.03 input   -0.13 | X-H torsion
[ 2891 2887 2886 2883 ] final  -33.96 input  179.98 | X-H torsion
[ 3175 3171 3170 3167 ] final   96.60 input -179.99 | X-H torsion
[ 5278 5270 5269 5267 ] final  -76.42 input    0.55 | X-H torsion
[  641  637  636  633 ] final  -38.42 input  179.99 | X-H torsion
[ 1886 1878 1877 1875 ] final -115.28 input    1.60 | X-H torsion
[  965  957  956  954 ] final  -16.09 input    0.45 | X-H torsion

>  <Gold.Protein.ActiveResidues>  (187) 
 LYS47   THR48   LEU49   GLY50   THR51   GLY52   SER53   PHE54   GLY55   ARG56  
 VAL57   MET58   LEU59   TYR69   ALA70   MET71   LYS72   ILE73   LEU74   GLU91  
 LEU95   VAL104  LYS105  MET118  VAL119  MET120  GLU121  TYR122  VAL123  PRO124 
 GLY125  GLY126  GLU127  MET128  PHE129  TYR164  ASP166  LEU167  LYS168  PRO169 
 GLU170  ASN171  LEU172  LEU173  ILE174  GLN181  VAL182  THR183  ASP184  PHE185 
 GLY186  PHE187  GLY200  THR201  ASN326  PHE327  TYR330  ARG18   ARG19   ASN20  
 ALA21   ILE22   HIS23  

>  <Gold.Protein.RotatedAtoms>  (187) 
    9.8679   19.0728    7.4620 H   0  0  0  0  0  0  0  0  0  0  0  0  # atno 641  bound_to 637 
   16.3303   13.8734    7.3955 H   0  0  0  0  0  0  0  0  0  0  0  0  # atno 681  bound_to 677 
   21.0054   11.5756   -1.5706 H   0  0  0  0  0  0  0  0  0  0  0  0  # atno 702  bound_to 698 
   -6.6216   15.4997   -1.2132 H   0  0  0  0  0  0  0  0  0  0  0  0  # atno 965  bound_to 957 
    0.9444   10.6813   10.7757 H   0  0  0  0  0  0  0  0  0  0  0  0  # atno 1886 bound_to 1878
   10.0828    1.9007   -2.3963 H   0  0  0  0  0  0  0  0  0  0  0  0  # atno 2577 bound_to 2569
    7.7514    5.1937    0.6851 H   0  0  0  0  0  0  0  0  0  0  0  0  # atno 2891 bound_to 2887
   18.0594    1.9897   -0.9815 H   0  0  0  0  0  0  0  0  0  0  0  0  # atno 3175 bound_to 3171
   13.5501    9.8112   10.4840 H   0  0  0  0  0  0  0  0  0  0  0  0  # atno 5278 bound_to 5270
   17.2346   13.2496    6.2426 LP  0  0  0  0  0  0  0  0  0  0  0  0  # atno 5914 bound_to 677 
   15.7515   12.6457    6.5626 LP  0  0  0  0  0  0  0  0  0  0  0  0  # atno 5915 bound_to 677 
   19.4350   11.8381   -1.6196 LP  0  0  0  0  0  0  0  0  0  0  0  0  # atno 5920 bound_to 698 
   20.2119   11.6728   -0.1928 LP  0  0  0  0  0  0  0  0  0  0  0  0  # atno 5921 bound_to 698 
    9.4167    3.0751   -3.2402 LP  0  0  0  0  0  0  0  0  0  0  0  0  # atno 5950 bound_to 2569
   11.0375    2.9879   -3.0609 LP  0  0  0  0  0  0  0  0  0  0  0  0  # atno 5951 bound_to 2569
    7.2164    6.3726    1.6127 LP  0  0  0  0  0  0  0  0  0  0  0  0  # atno 5982 bound_to 2887
    8.3005    6.6663    0.4273 LP  0  0  0  0  0  0  0  0  0  0  0  0  # atno 5983 bound_to 2887
   19.3274    2.9528   -0.9653 LP  0  0  0  0  0  0  0  0  0  0  0  0  # atno 6000 bound_to 3171
   18.5550    2.5620    0.4194 LP  0  0  0  0  0  0  0  0  0  0  0  0  # atno 6001 bound_to 3171
   14.3362   10.1345    9.1370 LP  0  0  0  0  0  0  0  0  0  0  0  0  # atno 6004 bound_to 5270
   12.7037   10.1097    9.1682 LP  0  0  0  0  0  0  0  0  0  0  0  0  # atno 6005 bound_to 5270
   11.3899   19.2310    7.9018 LP  0  0  0  0  0  0  0  0  0  0  0  0  # atno 6055 bound_to 637 
   10.1820   19.7835    8.8517 LP  0  0  0  0  0  0  0  0  0  0  0  0  # atno 6056 bound_to 637 
    1.0931   12.2511   10.9969 LP  0  0  0  0  0  0  0  0  0  0  0  0  # atno 6063 bound_to 1878
    2.2981   11.3833   10.3176 LP  0  0  0  0  0  0  0  0  0  0  0  0  # atno 6064 bound_to 1878
   -6.6233   17.0919   -1.2158 LP  0  0  0  0  0  0  0  0  0  0  0  0  # atno 6067 bound_to 957 
   -7.2109   16.2559    0.0580 LP  0  0  0  0  0  0  0  0  0  0  0  0  # atno 6068 bound_to 957 

>  <STRIFE_LigEff_Score>  (187) 
3.064627777777778

$$$$
unknown|pharmsElabsTestPreDocking|sdf|188|dock4
     RDKit          3D

 18 19  0  0  0  0  0  0  0  0999 V2000
   14.5323    7.8819    3.0289 C   0  0  0  0  0  0  0  0  0  0  0  0
   13.2094    7.7705    2.2726 C   0  0  0  0  0  0  0  0  0  0  0  0
   13.1728    8.6365    1.0921 N   0  0  0  0  0  0  0  0  0  0  0  0
   11.8902    7.8162    3.0830 C   0  0  0  0  0  0  0  0  0  0  0  0
   10.7175    7.1011    2.3955 C   0  0  0  0  0  0  0  0  0  0  0  0
    9.3224    7.4739    2.8725 C   0  0  0  0  0  0  0  0  0  0  0  0
    9.1679    8.9527    3.1268 C   0  0  0  0  0  0  0  0  0  0  0  0
    7.7432    9.4046    3.2859 C   0  0  0  0  0  0  0  0  0  0  0  0
    7.3220   10.1311    2.3547 O   0  0  0  0  0  0  0  0  0  0  0  0
    6.8718    9.1054    4.3957 N   0  0  0  0  0  0  0  0  0  0  0  0
    5.4677    9.4626    4.3747 C   0  0  0  0  0  0  0  0  0  0  0  0
    4.7492    9.9107    5.4693 C   0  0  0  0  0  0  0  0  0  0  0  0
    3.4492   10.1013    5.0297 C   0  0  0  0  0  0  0  0  0  0  0  0
    3.4227    9.7503    3.6946 C   0  0  0  0  0  0  0  0  0  0  0  0
    4.6474    9.3487    3.3010 N   0  0  0  0  0  0  0  0  0  0  0  0
    4.9473    8.7939    1.9833 C   0  0  0  0  0  0  0  0  0  0  0  0
   10.1950    9.5896    4.0205 C   0  0  0  0  0  0  0  0  0  0  0  0
   11.6225    9.2574    3.5914 C   0  0  0  0  0  0  0  0  0  0  0  0
  1  2  1  0
  2  3  1  0
  2  4  1  0
  4  5  1  0
  5  6  1  0
  6  7  1  0
  7  8  1  0
  8  9  2  0
  8 10  1  0
 10 11  1  0
 11 12  2  0
 12 13  1  0
 13 14  2  0
 14 15  1  0
 15 16  1  0
  7 17  1  0
 17 18  1  0
 18  4  1  0
 15 11  1  0
M  CHG  1   3   1
M  END
>  <EmbedRMS>  (188) 
0.293041831892948

>  <Gold.Version>  (188) 
2020.3.0

>  <Gold.Id.Protein>  (188) 
unknown|1q8t_protein|pdb

>  <Gold.PLP.Fitness>  (188) 
54.9471

>  <Gold.PLP.PLP>  (188) 
-46.5835

>  <Gold.PLP.part.hbond>  (188) 
-1.0000

>  <Gold.PLP.part.metal>  (188) 
0.0000

>  <Gold.PLP.part.buried>  (188) 
-3.1043

>  <Gold.PLP.part.nonpolar>  (188) 
-43.0371

>  <Gold.PLP.part.repulsive>  (188) 
0.0000

>  <Gold.PLP.ligand.clash>  (188) 
0.0000

>  <Gold.PLP.ligand.torsion>  (188) 
0.7328

>  <Gold.PLP.Chemscore.Hbond>  (188) 
2.0000

>  <Gold.PLP.Chemscore.CHOScore>  (188) 
0.9960

>  <Gold.PLP.Chemscore.Metal>  (188) 
0.0000

>  <Gold.Chemscore.Hbonds>  (188) 
donor molecule, donor type, donor heavy atom, donor atom, acceptor molecule, acceptor atom, score
      L1  H     3    25       P1  2902  2.00
      L1  C    14    35       P1  1855  1.00

>  <Gold.PLP.Chemscore.Internal.Correction>  (188) 
0.8412

>  <Gold.PLP.Constraint>  (188) 
-0.0000

>  <Gold.Protein.RotatedTorsions>  (188) 
[  681  677  676  673 ] final   24.66 input -179.99 | X-H torsion
[  702  698  697  694 ] final -114.24 input  179.99 | X-H torsion
[ 2577 2569 2568 2566 ] final  157.55 input   -0.13 | X-H torsion
[ 2891 2887 2886 2883 ] final   -6.88 input  179.98 | X-H torsion
[ 3175 3171 3170 3167 ] final   80.65 input -179.99 | X-H torsion
[ 5278 5270 5269 5267 ] final -119.89 input    0.55 | X-H torsion
[  641  637  636  633 ] final  171.79 input  179.99 | X-H torsion
[ 1886 1878 1877 1875 ] final   20.01 input    1.60 | X-H torsion
[  965  957  956  954 ] final   33.66 input    0.45 | X-H torsion

>  <Gold.Protein.ActiveResidues>  (188) 
 LYS47   THR48   LEU49   GLY50   THR51   GLY52   SER53   PHE54   GLY55   ARG56  
 VAL57   MET58   LEU59   TYR69   ALA70   MET71   LYS72   ILE73   LEU74   GLU91  
 LEU95   VAL104  LYS105  MET118  VAL119  MET120  GLU121  TYR122  VAL123  PRO124 
 GLY125  GLY126  GLU127  MET128  PHE129  TYR164  ASP166  LEU167  LYS168  PRO169 
 GLU170  ASN171  LEU172  LEU173  ILE174  GLN181  VAL182  THR183  ASP184  PHE185 
 GLY186  PHE187  GLY200  THR201  ASN326  PHE327  TYR330  ARG18   ARG19   ASN20  
 ALA21   ILE22   HIS23  

>  <Gold.Protein.RotatedAtoms>  (188) 
   11.3212   19.4329    8.3261 H   0  0  0  0  0  0  0  0  0  0  0  0  # atno 641  bound_to 637 
   16.1701   12.5900    6.2223 H   0  0  0  0  0  0  0  0  0  0  0  0  # atno 681  bound_to 677 
   20.9776   11.5629   -0.6570 H   0  0  0  0  0  0  0  0  0  0  0  0  # atno 702  bound_to 698 
   -6.9326   15.4220   -0.5316 H   0  0  0  0  0  0  0  0  0  0  0  0  # atno 965  bound_to 957 
    2.2436   11.6226   10.3635 H   0  0  0  0  0  0  0  0  0  0  0  0  # atno 1886 bound_to 1878
   10.2622    1.9059   -2.3868 H   0  0  0  0  0  0  0  0  0  0  0  0  # atno 2577 bound_to 2569
    8.0218    5.3625    0.4123 H   0  0  0  0  0  0  0  0  0  0  0  0  # atno 2891 bound_to 2887
   18.1983    2.0676   -1.1723 H   0  0  0  0  0  0  0  0  0  0  0  0  # atno 3175 bound_to 3171
   14.1609    9.8793   10.2336 H   0  0  0  0  0  0  0  0  0  0  0  0  # atno 5278 bound_to 5270
   15.8693   13.5893    7.4252 LP  0  0  0  0  0  0  0  0  0  0  0  0  # atno 5914 bound_to 677 
   17.2854   13.6569    6.6148 LP  0  0  0  0  0  0  0  0  0  0  0  0  # atno 5915 bound_to 677 
   20.2692   11.6990   -2.0772 LP  0  0  0  0  0  0  0  0  0  0  0  0  # atno 5920 bound_to 698 
   19.4069   11.8252   -0.6962 LP  0  0  0  0  0  0  0  0  0  0  0  0  # atno 5921 bound_to 698 
    9.3212    2.9377   -3.1518 LP  0  0  0  0  0  0  0  0  0  0  0  0  # atno 5950 bound_to 2569
   10.9440    3.1198   -3.1594 LP  0  0  0  0  0  0  0  0  0  0  0  0  # atno 5951 bound_to 2569
    7.1350    5.9387    1.6031 LP  0  0  0  0  0  0  0  0  0  0  0  0  # atno 5982 bound_to 2887
    8.0973    6.9225    0.7240 LP  0  0  0  0  0  0  0  0  0  0  0  0  # atno 5983 bound_to 2887
   19.3858    3.0280   -0.7217 LP  0  0  0  0  0  0  0  0  0  0  0  0  # atno 6000 bound_to 3171
   18.3503    2.4048    0.3765 LP  0  0  0  0  0  0  0  0  0  0  0  0  # atno 6001 bound_to 3171
   13.7785   10.2296    8.7277 LP  0  0  0  0  0  0  0  0  0  0  0  0  # atno 6004 bound_to 5270
   12.6187    9.9429    9.8409 LP  0  0  0  0  0  0  0  0  0  0  0  0  # atno 6005 bound_to 5270
    9.7745   19.6825    8.6094 LP  0  0  0  0  0  0  0  0  0  0  0  0  # atno 6055 bound_to 637 
   10.2668   18.9527    7.2340 LP  0  0  0  0  0  0  0  0  0  0  0  0  # atno 6056 bound_to 637 
    1.1272   10.5350   10.6891 LP  0  0  0  0  0  0  0  0  0  0  0  0  # atno 6063 bound_to 1878
    0.8964   12.1086   11.0593 LP  0  0  0  0  0  0  0  0  0  0  0  0  # atno 6064 bound_to 1878
   -6.4356   16.4496   -1.6416 LP  0  0  0  0  0  0  0  0  0  0  0  0  # atno 6067 bound_to 957 
   -7.0711   16.9800   -0.2340 LP  0  0  0  0  0  0  0  0  0  0  0  0  # atno 6068 bound_to 957 

>  <STRIFE_LigEff_Score>  (188) 
3.0526166666666668

$$$$
unknown|pharmsElabsTestPreDocking|sdf|189|dock8
     RDKit          3D

 19 20  0  0  0  0  0  0  0  0999 V2000
   13.7883    7.3894    2.5786 C   0  0  0  0  0  0  0  0  0  0  0  0
   13.5500    8.8237    2.0726 C   0  0  0  0  0  0  0  0  0  0  0  0
   14.1608    8.9751    0.7448 N   0  0  0  0  0  0  0  0  0  0  0  0
   12.0208    9.1566    2.0703 C   0  0  0  0  0  0  0  0  0  0  0  0
   11.2718    8.0729    1.2733 C   0  0  0  0  0  0  0  0  0  0  0  0
    9.7812    8.3502    1.1141 C   0  0  0  0  0  0  0  0  0  0  0  0
    9.1829    9.2002    2.2246 C   0  0  0  0  0  0  0  0  0  0  0  0
    7.6833    9.2555    2.1988 C   0  0  0  0  0  0  0  0  0  0  0  0
    7.1100    8.2456    2.6763 O   0  0  0  0  0  0  0  0  0  0  0  0
    6.8794   10.3332    1.6865 N   0  0  0  0  0  0  0  0  0  0  0  0
    5.4197   10.1519    1.6454 C   0  0  0  0  0  0  0  0  0  0  0  0
    4.8293   10.0171    3.0158 C   0  0  0  0  0  0  0  0  0  0  0  0
    5.6212   10.2179    4.1540 C   0  0  0  0  0  0  0  0  0  0  0  0
    5.0548   10.1042    5.4238 C   0  0  0  0  0  0  0  0  0  0  0  0
    3.6989    9.7922    5.5421 C   0  0  0  0  0  0  0  0  0  0  0  0
    2.9436    9.5994    4.4280 N   0  0  0  0  0  0  0  0  0  0  0  0
    3.4727    9.7040    3.1802 C   0  0  0  0  0  0  0  0  0  0  0  0
    9.8807    9.3544    3.5624 C   0  0  0  0  0  0  0  0  0  0  0  0
   11.4199    9.2399    3.4967 C   0  0  0  0  0  0  0  0  0  0  0  0
  1  2  1  0
  2  3  1  0
  2  4  1  0
  4  5  1  0
  5  6  1  0
  6  7  1  0
  7  8  1  0
  8  9  2  0
  8 10  1  0
 10 11  1  0
 11 12  1  0
 12 13  2  0
 13 14  1  0
 14 15  2  0
 15 16  1  0
 16 17  2  0
  7 18  1  0
 18 19  1  0
 19  4  1  0
 17 12  1  0
M  CHG  1   3   1
M  END
>  <EmbedRMS>  (189) 
0.17084101544492625

>  <Gold.Version>  (189) 
2020.3.0

>  <Gold.Id.Protein>  (189) 
unknown|1q8t_protein|pdb

>  <Gold.PLP.Fitness>  (189) 
61.9228

>  <Gold.PLP.PLP>  (189) 
-44.9386

>  <Gold.PLP.part.hbond>  (189) 
-3.0000

>  <Gold.PLP.part.metal>  (189) 
0.0000

>  <Gold.PLP.part.buried>  (189) 
-1.8475

>  <Gold.PLP.part.nonpolar>  (189) 
-41.7252

>  <Gold.PLP.part.repulsive>  (189) 
0.1526

>  <Gold.PLP.ligand.clash>  (189) 
0.0000

>  <Gold.PLP.ligand.torsion>  (189) 
0.5236

>  <Gold.PLP.Chemscore.Hbond>  (189) 
4.0000

>  <Gold.PLP.Chemscore.CHOScore>  (189) 
1.7703

>  <Gold.PLP.Chemscore.Metal>  (189) 
0.0000

>  <Gold.Chemscore.Hbonds>  (189) 
donor molecule, donor type, donor heavy atom, donor atom, acceptor molecule, acceptor atom, score
      L1  H     3    24       P1  2902  2.00
      P1  H  2887  2891       L1     9  1.00
      P1  H  1888  1903       L1    16  1.00
      L1  C    15    38       P1  1891  0.86
      L1  C    17    39       P1  1855  0.91

>  <Gold.PLP.Chemscore.Internal.Correction>  (189) 
0.7204

>  <Gold.PLP.Constraint>  (189) 
-0.0000

>  <Gold.Protein.RotatedTorsions>  (189) 
[  681  677  676  673 ] final  106.67 input -179.99 | X-H torsion
[  702  698  697  694 ] final   38.45 input  179.99 | X-H torsion
[ 2577 2569 2568 2566 ] final   25.23 input   -0.13 | X-H torsion
[ 2891 2887 2886 2883 ] final  163.58 input  179.98 | X-H torsion
[ 3175 3171 3170 3167 ] final   89.48 input -179.99 | X-H torsion
[ 5278 5270 5269 5267 ] final   37.90 input    0.55 | X-H torsion
[  641  637  636  633 ] final  -28.86 input  179.99 | X-H torsion
[ 1886 1878 1877 1875 ] final   76.73 input    1.60 | X-H torsion
[  965  957  956  954 ] final  136.50 input    0.45 | X-H torsion

>  <Gold.Protein.ActiveResidues>  (189) 
 LYS47   THR48   LEU49   GLY50   THR51   GLY52   SER53   PHE54   GLY55   ARG56  
 VAL57   MET58   LEU59   TYR69   ALA70   MET71   LYS72   ILE73   LEU74   GLU91  
 LEU95   VAL104  LYS105  MET118  VAL119  MET120  GLU121  TYR122  VAL123  PRO124 
 GLY125  GLY126  GLU127  MET128  PHE129  TYR164  ASP166  LEU167  LYS168  PRO169 
 GLU170  ASN171  LEU172  LEU173  ILE174  GLN181  VAL182  THR183  ASP184  PHE185 
 GLY186  PHE187  GLY200  THR201  ASN326  PHE327  TYR330  ARG18   ARG19   ASN20  
 ALA21   ILE22   HIS23  

>  <Gold.Protein.RotatedAtoms>  (189) 
    9.7663   19.1269    7.5568 H   0  0  0  0  0  0  0  0  0  0  0  0  # atno 641  bound_to 637 
   17.1654   13.2156    6.2260 H   0  0  0  0  0  0  0  0  0  0  0  0  # atno 681  bound_to 677 
   19.3537   11.8614   -1.2120 H   0  0  0  0  0  0  0  0  0  0  0  0  # atno 702  bound_to 698 
   -7.1169   16.7405   -0.0990 H   0  0  0  0  0  0  0  0  0  0  0  0  # atno 965  bound_to 957 
    1.7715   12.2559   10.6796 H   0  0  0  0  0  0  0  0  0  0  0  0  # atno 1886 bound_to 1878
    9.4633    3.0525   -3.2415 H   0  0  0  0  0  0  0  0  0  0  0  0  # atno 2577 bound_to 2569
    7.5654    6.8453    1.2962 H   0  0  0  0  0  0  0  0  0  0  0  0  # atno 2891 bound_to 2887
   18.1164    2.0200   -1.0720 H   0  0  0  0  0  0  0  0  0  0  0  0  # atno 3175 bound_to 3171
   12.7057   10.1014    9.2716 H   0  0  0  0  0  0  0  0  0  0  0  0  # atno 5278 bound_to 5270
   15.7184   12.6718    6.6089 LP  0  0  0  0  0  0  0  0  0  0  0  0  # atno 5914 bound_to 677 
   16.3887   13.9159    7.4271 LP  0  0  0  0  0  0  0  0  0  0  0  0  # atno 5915 bound_to 677 
   20.6204   11.6021   -0.2815 LP  0  0  0  0  0  0  0  0  0  0  0  0  # atno 5920 bound_to 698 
   20.7639   11.6081   -1.9082 LP  0  0  0  0  0  0  0  0  0  0  0  0  # atno 5921 bound_to 698 
   11.0427    2.9782   -3.0538 LP  0  0  0  0  0  0  0  0  0  0  0  0  # atno 5950 bound_to 2569
   10.0637    1.8721   -2.3575 LP  0  0  0  0  0  0  0  0  0  0  0  0  # atno 5951 bound_to 2569
    8.3722    6.0294    0.1917 LP  0  0  0  0  0  0  0  0  0  0  0  0  # atno 5982 bound_to 2887
    7.3404    5.2712    1.2052 LP  0  0  0  0  0  0  0  0  0  0  0  0  # atno 5983 bound_to 2887
   19.3604    2.9911   -0.8598 LP  0  0  0  0  0  0  0  0  0  0  0  0  # atno 6000 bound_to 3171
   18.4619    2.4918    0.4091 LP  0  0  0  0  0  0  0  0  0  0  0  0  # atno 6001 bound_to 3171
   13.6445    9.7864   10.5191 LP  0  0  0  0  0  0  0  0  0  0  0  0  # atno 6004 bound_to 5270
   14.2837   10.1525    9.0617 LP  0  0  0  0  0  0  0  0  0  0  0  0  # atno 6005 bound_to 5270
   11.3441   19.1647    7.7670 LP  0  0  0  0  0  0  0  0  0  0  0  0  # atno 6055 bound_to 637 
   10.3348   19.7928    8.8866 LP  0  0  0  0  0  0  0  0  0  0  0  0  # atno 6056 bound_to 637 
    1.9421   10.7056   10.3590 LP  0  0  0  0  0  0  0  0  0  0  0  0  # atno 6063 bound_to 1878
    0.5783   11.2713   11.0567 LP  0  0  0  0  0  0  0  0  0  0  0  0  # atno 6064 bound_to 1878
   -6.8400   15.3265   -0.7766 LP  0  0  0  0  0  0  0  0  0  0  0  0  # atno 6067 bound_to 957 
   -6.4726   16.7144   -1.5547 LP  0  0  0  0  0  0  0  0  0  0  0  0  # atno 6068 bound_to 957 

>  <STRIFE_LigEff_Score>  (189) 
3.2590947368421053

$$$$
unknown|pharmsElabsTestPreDocking|sdf|190|dock7
     RDKit          3D

 18 18  0  0  0  0  0  0  0  0999 V2000
    3.2949    8.8842    2.8781 C   0  0  0  0  0  0  0  0  0  0  0  0
    4.5736    9.1546    2.6023 C   0  0  0  0  0  0  0  0  0  0  0  0
    5.0280    9.2004    1.1652 C   0  0  0  0  0  0  0  0  0  0  0  0
    5.5565    9.2616    3.7209 C   0  0  0  0  0  0  0  0  0  0  0  0
    5.2226    9.9330    4.8391 C   0  0  0  0  0  0  0  0  0  0  0  0
    6.1595   10.1135    5.9930 C   0  0  0  0  0  0  0  0  0  0  0  0
    6.9007    8.7591    3.5758 N   0  0  0  0  0  0  0  0  0  0  0  0
    7.8695    9.2694    2.6518 C   0  0  0  0  0  0  0  0  0  0  0  0
    7.5414   10.1304    1.7866 O   0  0  0  0  0  0  0  0  0  0  0  0
    9.2950    8.7758    2.7309 C   0  0  0  0  0  0  0  0  0  0  0  0
    9.7270    8.2337    1.3738 C   0  0  0  0  0  0  0  0  0  0  0  0
   11.1117    7.6120    1.4086 C   0  0  0  0  0  0  0  0  0  0  0  0
   12.1421    8.3646    2.2719 C   0  0  0  0  0  0  0  0  0  0  0  0
   13.6431    8.2055    1.8405 C   0  0  0  0  0  0  0  0  0  0  0  0
   14.6609    8.0253    2.9769 C   0  0  0  0  0  0  0  0  0  0  0  0
   13.8244    7.1565    0.8305 N   0  0  0  0  0  0  0  0  0  0  0  0
   11.7232    9.6433    3.0273 C   0  0  0  0  0  0  0  0  0  0  0  0
   10.2143    9.9172    3.1789 C   0  0  0  0  0  0  0  0  0  0  0  0
  1  2  2  0
  2  3  1  0
  2  4  1  0
  4  5  2  0
  5  6  1  0
  4  7  1  0
  7  8  1  0
  8  9  2  0
  8 10  1  0
 10 11  1  0
 11 12  1  0
 12 13  1  0
 13 14  1  0
 14 15  1  0
 14 16  1  0
 13 17  1  0
 17 18  1  0
 18 10  1  0
M  CHG  1  16   1
M  END
>  <EmbedRMS>  (190) 
0.16480955270904202

>  <Gold.Version>  (190) 
2020.3.0

>  <Gold.Id.Protein>  (190) 
unknown|1q8t_protein|pdb

>  <Gold.PLP.Fitness>  (190) 
48.0028

>  <Gold.PLP.PLP>  (190) 
-41.4798

>  <Gold.PLP.part.hbond>  (190) 
-2.0000

>  <Gold.PLP.part.metal>  (190) 
0.0000

>  <Gold.PLP.part.buried>  (190) 
-3.1608

>  <Gold.PLP.part.nonpolar>  (190) 
-36.0815

>  <Gold.PLP.part.repulsive>  (190) 
0.0584

>  <Gold.PLP.ligand.clash>  (190) 
0.0000

>  <Gold.PLP.ligand.torsion>  (190) 
1.9755

>  <Gold.PLP.Chemscore.Hbond>  (190) 
3.0000

>  <Gold.PLP.Chemscore.CHOScore>  (190) 
0.0000

>  <Gold.PLP.Chemscore.Metal>  (190) 
0.0000

>  <Gold.Chemscore.Hbonds>  (190) 
donor molecule, donor type, donor heavy atom, donor atom, acceptor molecule, acceptor atom, score
      L1  H    16    39       P1  2902  2.00
      L1  H    16    41       P1  2691  1.00

>  <Gold.PLP.Chemscore.Internal.Correction>  (190) 
1.4741

>  <Gold.PLP.Constraint>  (190) 
-0.0000

>  <Gold.Protein.RotatedTorsions>  (190) 
[  681  677  676  673 ] final   65.17 input -179.99 | X-H torsion
[  702  698  697  694 ] final   21.85 input  179.99 | X-H torsion
[ 2577 2569 2568 2566 ] final -138.57 input   -0.13 | X-H torsion
[ 2891 2887 2886 2883 ] final  -26.60 input  179.98 | X-H torsion
[ 3175 3171 3170 3167 ] final  126.40 input -179.99 | X-H torsion
[ 5278 5270 5269 5267 ] final   54.36 input    0.55 | X-H torsion
[  641  637  636  633 ] final  128.27 input  179.99 | X-H torsion
[ 1886 1878 1877 1875 ] final  -74.09 input    1.60 | X-H torsion
[  965  957  956  954 ] final  148.36 input    0.45 | X-H torsion

>  <Gold.Protein.ActiveResidues>  (190) 
 LYS47   THR48   LEU49   GLY50   THR51   GLY52   SER53   PHE54   GLY55   ARG56  
 VAL57   MET58   LEU59   TYR69   ALA70   MET71   LYS72   ILE73   LEU74   GLU91  
 LEU95   VAL104  LYS105  MET118  VAL119  MET120  GLU121  TYR122  VAL123  PRO124 
 GLY125  GLY126  GLU127  MET128  PHE129  TYR164  ASP166  LEU167  LYS168  PRO169 
 GLU170  ASN171  LEU172  LEU173  ILE174  GLN181  VAL182  THR183  ASP184  PHE185 
 GLY186  PHE187  GLY200  THR201  ASN326  PHE327  TYR330  ARG18   ARG19   ASN20  
 ALA21   ILE22   HIS23  

>  <Gold.Protein.RotatedAtoms>  (190) 
   10.9010   19.6850    8.7739 H   0  0  0  0  0  0  0  0  0  0  0  0  # atno 641  bound_to 637 
   16.7377   12.7780    6.0571 H   0  0  0  0  0  0  0  0  0  0  0  0  # atno 681  bound_to 677 
   19.3679   11.8540   -0.9537 H   0  0  0  0  0  0  0  0  0  0  0  0  # atno 702  bound_to 698 
   -7.0689   16.8867   -0.2014 H   0  0  0  0  0  0  0  0  0  0  0  0  # atno 965  bound_to 957 
    1.5003   10.5525   10.5087 H   0  0  0  0  0  0  0  0  0  0  0  0  # atno 1886 bound_to 1878
   11.0141    2.4039   -2.6775 H   0  0  0  0  0  0  0  0  0  0  0  0  # atno 2577 bound_to 2569
    7.8276    5.2215    0.6035 H   0  0  0  0  0  0  0  0  0  0  0  0  # atno 2891 bound_to 2887
   17.9261    1.9485   -0.5425 H   0  0  0  0  0  0  0  0  0  0  0  0  # atno 3175 bound_to 3171
   12.8389   10.1552    9.0591 H   0  0  0  0  0  0  0  0  0  0  0  0  # atno 5278 bound_to 5270
   15.5850   13.0935    7.1097 LP  0  0  0  0  0  0  0  0  0  0  0  0  # atno 5914 bound_to 677 
   16.9723   13.9548    7.1042 LP  0  0  0  0  0  0  0  0  0  0  0  0  # atno 5915 bound_to 677 
   20.8447   11.5652   -0.4313 LP  0  0  0  0  0  0  0  0  0  0  0  0  # atno 5920 bound_to 698 
   20.5247   11.6528   -2.0302 LP  0  0  0  0  0  0  0  0  0  0  0  0  # atno 5921 bound_to 698 
    9.4486    2.1293   -2.5812 LP  0  0  0  0  0  0  0  0  0  0  0  0  # atno 5950 bound_to 2569
   10.0250    3.4038   -3.4239 LP  0  0  0  0  0  0  0  0  0  0  0  0  # atno 5951 bound_to 2569
    7.1812    6.2575    1.6259 LP  0  0  0  0  0  0  0  0  0  0  0  0  # atno 5982 bound_to 2887
    8.2555    6.7521    0.5000 LP  0  0  0  0  0  0  0  0  0  0  0  0  # atno 5983 bound_to 2887
   19.0816    2.7248   -1.3157 LP  0  0  0  0  0  0  0  0  0  0  0  0  # atno 6000 bound_to 3171
   18.9410    2.8333    0.3076 LP  0  0  0  0  0  0  0  0  0  0  0  0  # atno 6001 bound_to 3171
   13.3747    9.7851   10.5126 LP  0  0  0  0  0  0  0  0  0  0  0  0  # atno 6004 bound_to 5270
   14.4134   10.0971    9.2918 LP  0  0  0  0  0  0  0  0  0  0  0  0  # atno 6005 bound_to 5270
    9.5281   19.3960    8.0213 LP  0  0  0  0  0  0  0  0  0  0  0  0  # atno 6055 bound_to 637 
   10.9558   18.9737    7.3506 LP  0  0  0  0  0  0  0  0  0  0  0  0  # atno 6056 bound_to 637 
    0.6567   11.7636   11.1061 LP  0  0  0  0  0  0  0  0  0  0  0  0  # atno 6063 bound_to 1878
    2.1492   12.0064   10.4895 LP  0  0  0  0  0  0  0  0  0  0  0  0  # atno 6064 bound_to 1878
   -6.9197   15.3527   -0.6009 LP  0  0  0  0  0  0  0  0  0  0  0  0  # atno 6067 bound_to 957 
   -6.4434   16.5342   -1.6225 LP  0  0  0  0  0  0  0  0  0  0  0  0  # atno 6068 bound_to 957 

>  <STRIFE_LigEff_Score>  (190) 
2.666822222222222

$$$$
unknown|pharmsElabsTestPreDocking|sdf|191|dock7
     RDKit          3D

 17 18  0  0  0  0  0  0  0  0999 V2000
   14.0640    9.4852    1.1766 C   0  0  0  0  0  0  0  0  0  0  0  0
   13.5098    8.2403    1.8692 C   0  0  0  0  0  0  0  0  0  0  0  0
   13.3749    7.1267    0.9203 N   0  0  0  0  0  0  0  0  0  0  0  0
   12.2639    8.3998    2.7626 C   0  0  0  0  0  0  0  0  0  0  0  0
   11.3037    7.1970    2.9639 C   0  0  0  0  0  0  0  0  0  0  0  0
    9.8541    7.4408    2.5708 C   0  0  0  0  0  0  0  0  0  0  0  0
    9.3521    8.7873    3.0881 C   0  0  0  0  0  0  0  0  0  0  0  0
    7.8806    8.9388    2.8137 C   0  0  0  0  0  0  0  0  0  0  0  0
    7.4599    8.9101    1.6249 O   0  0  0  0  0  0  0  0  0  0  0  0
    6.9792    9.1390    3.9115 N   0  0  0  0  0  0  0  0  0  0  0  0
    5.5568    9.2787    3.8059 C   0  0  0  0  0  0  0  0  0  0  0  0
    4.7142    8.6674    2.8902 C   0  0  0  0  0  0  0  0  0  0  0  0
    3.4651    9.1440    3.2220 C   0  0  0  0  0  0  0  0  0  0  0  0
    3.5796    9.9809    4.2682 N   0  0  0  0  0  0  0  0  0  0  0  0
    4.8474   10.0703    4.6311 N   0  0  0  0  0  0  0  0  0  0  0  0
   10.1341    9.9056    2.4077 C   0  0  0  0  0  0  0  0  0  0  0  0
   11.6302    9.8235    2.7040 C   0  0  0  0  0  0  0  0  0  0  0  0
  1  2  1  0
  2  3  1  0
  2  4  1  0
  4  5  1  0
  5  6  1  0
  6  7  1  0
  7  8  1  0
  8  9  2  0
  8 10  1  0
 10 11  1  0
 11 12  1  0
 12 13  2  0
 13 14  1  0
 14 15  1  0
  7 16  1  0
 16 17  1  0
 17  4  1  0
 15 11  2  0
M  CHG  1   3   1
M  END
>  <EmbedRMS>  (191) 
0.20783527019262546

>  <Gold.Version>  (191) 
2020.3.0

>  <Gold.Id.Protein>  (191) 
unknown|1q8t_protein|pdb

>  <Gold.PLP.Fitness>  (191) 
44.7695

>  <Gold.PLP.PLP>  (191) 
-34.1666

>  <Gold.PLP.part.hbond>  (191) 
-2.9709

>  <Gold.PLP.part.metal>  (191) 
0.0000

>  <Gold.PLP.part.buried>  (191) 
-4.6923

>  <Gold.PLP.part.nonpolar>  (191) 
-26.6725

>  <Gold.PLP.part.repulsive>  (191) 
0.1506

>  <Gold.PLP.ligand.clash>  (191) 
0.0000

>  <Gold.PLP.ligand.torsion>  (191) 
1.3915

>  <Gold.PLP.Chemscore.Hbond>  (191) 
3.7200

>  <Gold.PLP.Chemscore.CHOScore>  (191) 
0.6114

>  <Gold.PLP.Chemscore.Metal>  (191) 
0.0000

>  <Gold.Chemscore.Hbonds>  (191) 
donor molecule, donor type, donor heavy atom, donor atom, acceptor molecule, acceptor atom, score
      L1  H     3    22       P1  2902  1.98
      L1  H     3    23       P1  2691  0.74
      P1  H  2887  2891       L1     9  1.00
      L1  C    13    33       P1  1855  0.61

>  <Gold.PLP.Chemscore.Internal.Correction>  (191) 
0.3917

>  <Gold.PLP.Constraint>  (191) 
-0.0000

>  <Gold.Protein.RotatedTorsions>  (191) 
[  681  677  676  673 ] final -101.26 input -179.99 | X-H torsion
[  702  698  697  694 ] final  -10.71 input  179.99 | X-H torsion
[ 2577 2569 2568 2566 ] final -114.30 input   -0.13 | X-H torsion
[ 2891 2887 2886 2883 ] final  159.36 input  179.98 | X-H torsion
[ 3175 3171 3170 3167 ] final -119.94 input -179.99 | X-H torsion
[ 5278 5270 5269 5267 ] final   -9.71 input    0.55 | X-H torsion
[  641  637  636  633 ] final -172.35 input  179.99 | X-H torsion
[ 1886 1878 1877 1875 ] final  -93.59 input    1.60 | X-H torsion
[  965  957  956  954 ] final   88.56 input    0.45 | X-H torsion

>  <Gold.Protein.ActiveResidues>  (191) 
 LYS47   THR48   LEU49   GLY50   THR51   GLY52   SER53   PHE54   GLY55   ARG56  
 VAL57   MET58   LEU59   TYR69   ALA70   MET71   LYS72   ILE73   LEU74   GLU91  
 LEU95   VAL104  LYS105  MET118  VAL119  MET120  GLU121  TYR122  VAL123  PRO124 
 GLY125  GLY126  GLU127  MET128  PHE129  TYR164  ASP166  LEU167  LYS168  PRO169 
 GLU170  ASN171  LEU172  LEU173  ILE174  GLN181  VAL182  THR183  ASP184  PHE185 
 GLY186  PHE187  GLY200  THR201  ASN326  PHE327  TYR330  ARG18   ARG19   ASN20  
 ALA21   ILE22   HIS23  

>  <Gold.Protein.RotatedAtoms>  (191) 
   11.3625   19.3203    8.1102 H   0  0  0  0  0  0  0  0  0  0  0  0  # atno 641  bound_to 637 
   15.9572   13.6451    7.4003 H   0  0  0  0  0  0  0  0  0  0  0  0  # atno 681  bound_to 677 
   19.5984   11.8045   -0.5099 H   0  0  0  0  0  0  0  0  0  0  0  0  # atno 702  bound_to 698 
   -7.1637   16.0197   -0.0114 H   0  0  0  0  0  0  0  0  0  0  0  0  # atno 965  bound_to 957 
    1.2231   10.5582   10.6319 H   0  0  0  0  0  0  0  0  0  0  0  0  # atno 1886 bound_to 1878
   11.0701    2.7115   -2.8870 H   0  0  0  0  0  0  0  0  0  0  0  0  # atno 2577 bound_to 2569
    7.6075    6.8737    1.2543 H   0  0  0  0  0  0  0  0  0  0  0  0  # atno 2891 bound_to 2887
   18.8613    2.7528    0.3101 H   0  0  0  0  0  0  0  0  0  0  0  0  # atno 3175 bound_to 3171
   12.7153    9.9283    9.9738 H   0  0  0  0  0  0  0  0  0  0  0  0  # atno 5278 bound_to 5270
   17.2984   13.5926    6.5430 LP  0  0  0  0  0  0  0  0  0  0  0  0  # atno 5914 bound_to 677 
   16.0803   12.5431    6.2571 LP  0  0  0  0  0  0  0  0  0  0  0  0  # atno 5915 bound_to 677 
   21.1224   11.5246   -0.8792 LP  0  0  0  0  0  0  0  0  0  0  0  0  # atno 5920 bound_to 698 
   20.0046   11.7454   -2.0490 LP  0  0  0  0  0  0  0  0  0  0  0  0  # atno 5921 bound_to 698 
    9.7579    1.9370   -2.4249 LP  0  0  0  0  0  0  0  0  0  0  0  0  # atno 5950 bound_to 2569
    9.6567    3.2723   -3.3595 LP  0  0  0  0  0  0  0  0  0  0  0  0  # atno 5951 bound_to 2569
    8.3609    5.9611    0.1884 LP  0  0  0  0  0  0  0  0  0  0  0  0  # atno 5982 bound_to 2887
    7.3074    5.3096    1.2526 LP  0  0  0  0  0  0  0  0  0  0  0  0  # atno 5983 bound_to 2887
   17.8917    1.9308   -0.6489 LP  0  0  0  0  0  0  0  0  0  0  0  0  # atno 6000 bound_to 3171
   19.1467    2.7809   -1.2563 LP  0  0  0  0  0  0  0  0  0  0  0  0  # atno 6001 bound_to 3171
   14.2985    9.8860   10.1428 LP  0  0  0  0  0  0  0  0  0  0  0  0  # atno 6004 bound_to 5270
   13.6197   10.2350    8.6991 LP  0  0  0  0  0  0  0  0  0  0  0  0  # atno 6005 bound_to 5270
    9.9745   19.7491    8.7617 LP  0  0  0  0  0  0  0  0  0  0  0  0  # atno 6055 bound_to 637 
   10.0233   19.0047    7.3091 LP  0  0  0  0  0  0  0  0  0  0  0  0  # atno 6056 bound_to 637 
    0.8247   12.0338   11.0781 LP  0  0  0  0  0  0  0  0  0  0  0  0  # atno 6063 bound_to 1878
    2.2731   11.7302   10.3878 LP  0  0  0  0  0  0  0  0  0  0  0  0  # atno 6064 bound_to 1878
   -6.5438   15.6158   -1.4213 LP  0  0  0  0  0  0  0  0  0  0  0  0  # atno 6067 bound_to 957 
   -6.7196   17.1843   -1.0022 LP  0  0  0  0  0  0  0  0  0  0  0  0  # atno 6068 bound_to 957 

>  <STRIFE_LigEff_Score>  (191) 
2.6335

$$$$
unknown|pharmsElabsTestPreDocking|sdf|192|dock3
     RDKit          3D

 18 19  0  0  0  0  0  0  0  0999 V2000
   13.6482    6.5043    3.4685 C   0  0  0  0  0  0  0  0  0  0  0  0
   13.5797    7.6241    2.4114 C   0  0  0  0  0  0  0  0  0  0  0  0
   13.9106    7.0639    1.0947 N   0  0  0  0  0  0  0  0  0  0  0  0
   12.1730    8.2923    2.4293 C   0  0  0  0  0  0  0  0  0  0  0  0
   11.0976    7.2670    2.0142 C   0  0  0  0  0  0  0  0  0  0  0  0
    9.7452    7.9515    1.8737 C   0  0  0  0  0  0  0  0  0  0  0  0
    9.3329    8.5855    3.2055 C   0  0  0  0  0  0  0  0  0  0  0  0
    7.9904    9.2442    3.0745 C   0  0  0  0  0  0  0  0  0  0  0  0
    7.7993   10.4106    3.5206 O   0  0  0  0  0  0  0  0  0  0  0  0
    6.9283    8.5315    2.4405 N   0  0  0  0  0  0  0  0  0  0  0  0
    5.6153    9.1302    2.2458 C   0  0  0  0  0  0  0  0  0  0  0  0
    4.9403    9.3018    3.5644 C   0  0  0  0  0  0  0  0  0  0  0  0
    5.2370   10.2592    4.5127 C   0  0  0  0  0  0  0  0  0  0  0  0
    4.3010   10.0966    5.5138 C   0  0  0  0  0  0  0  0  0  0  0  0
    3.4489    9.1023    5.1981 N   0  0  0  0  0  0  0  0  0  0  0  0
    3.8249    8.6196    4.0014 C   0  0  0  0  0  0  0  0  0  0  0  0
   10.3936    9.5786    3.7100 C   0  0  0  0  0  0  0  0  0  0  0  0
   11.7785    8.9143    3.7920 C   0  0  0  0  0  0  0  0  0  0  0  0
  1  2  1  0
  2  3  1  0
  2  4  1  0
  4  5  1  0
  5  6  1  0
  6  7  1  0
  7  8  1  0
  8  9  2  0
  8 10  1  0
 10 11  1  0
 11 12  1  0
 12 13  1  0
 13 14  2  0
 14 15  1  0
 15 16  1  0
  7 17  1  0
 17 18  1  0
 18  4  1  0
 16 12  2  0
M  CHG  1   3   1
M  END
>  <EmbedRMS>  (192) 
0.029013692847384143

>  <Gold.Version>  (192) 
2020.3.0

>  <Gold.Id.Protein>  (192) 
unknown|1q8t_protein|pdb

>  <Gold.PLP.Fitness>  (192) 
56.9073

>  <Gold.PLP.PLP>  (192) 
-42.6066

>  <Gold.PLP.part.hbond>  (192) 
-4.0000

>  <Gold.PLP.part.metal>  (192) 
0.0000

>  <Gold.PLP.part.buried>  (192) 
-3.0906

>  <Gold.PLP.part.nonpolar>  (192) 
-36.6104

>  <Gold.PLP.part.repulsive>  (192) 
0.7264

>  <Gold.PLP.ligand.clash>  (192) 
0.0000

>  <Gold.PLP.ligand.torsion>  (192) 
0.3958

>  <Gold.PLP.Chemscore.Hbond>  (192) 
5.0000

>  <Gold.PLP.Chemscore.CHOScore>  (192) 
0.0000

>  <Gold.PLP.Chemscore.Metal>  (192) 
0.0000

>  <Gold.Chemscore.Hbonds>  (192) 
donor molecule, donor type, donor heavy atom, donor atom, acceptor molecule, acceptor atom, score
      L1  H     3    23       P1  2691  1.00
      L1  H     3    24       P1  2902  2.00
      L1  H    10    32       P1  2887  1.00
      L1  H    15    37       P1  1891  1.00

>  <Gold.PLP.Chemscore.Internal.Correction>  (192) 
0.0922

>  <Gold.PLP.Constraint>  (192) 
-0.0000

>  <Gold.Protein.RotatedTorsions>  (192) 
[  681  677  676  673 ] final  165.95 input -179.99 | X-H torsion
[  702  698  697  694 ] final   61.14 input  179.99 | X-H torsion
[ 2577 2569 2568 2566 ] final   95.67 input   -0.13 | X-H torsion
[ 2891 2887 2886 2883 ] final  -68.77 input  179.98 | X-H torsion
[ 3175 3171 3170 3167 ] final  115.52 input -179.99 | X-H torsion
[ 5278 5270 5269 5267 ] final -165.34 input    0.55 | X-H torsion
[  641  637  636  633 ] final   10.20 input  179.99 | X-H torsion
[ 1886 1878 1877 1875 ] final  -63.18 input    1.60 | X-H torsion
[  965  957  956  954 ] final   28.91 input    0.45 | X-H torsion

>  <Gold.Protein.ActiveResidues>  (192) 
 LYS47   THR48   LEU49   GLY50   THR51   GLY52   SER53   PHE54   GLY55   ARG56  
 VAL57   MET58   LEU59   TYR69   ALA70   MET71   LYS72   ILE73   LEU74   GLU91  
 LEU95   VAL104  LYS105  MET118  VAL119  MET120  GLU121  TYR122  VAL123  PRO124 
 GLY125  GLY126  GLU127  MET128  PHE129  TYR164  ASP166  LEU167  LYS168  PRO169 
 GLU170  ASN171  LEU172  LEU173  ILE174  GLN181  VAL182  THR183  ASP184  PHE185 
 GLY186  PHE187  GLY200  THR201  ASN326  PHE327  TYR330  ARG18   ARG19   ASN20  
 ALA21   ILE22   HIS23  

>  <Gold.Protein.RotatedAtoms>  (192) 
    9.5746   19.3933    8.0575 H   0  0  0  0  0  0  0  0  0  0  0  0  # atno 641  bound_to 637 
   17.1231   13.8308    6.8621 H   0  0  0  0  0  0  0  0  0  0  0  0  # atno 681  bound_to 677 
   19.4521   11.8505   -1.5504 H   0  0  0  0  0  0  0  0  0  0  0  0  # atno 702  bound_to 698 
   -6.9033   15.4008   -0.5964 H   0  0  0  0  0  0  0  0  0  0  0  0  # atno 965  bound_to 957 
    1.6540   10.5935   10.4479 H   0  0  0  0  0  0  0  0  0  0  0  0  # atno 1886 bound_to 1878
    9.4329    2.2033   -2.6541 H   0  0  0  0  0  0  0  0  0  0  0  0  # atno 2577 bound_to 2569
    7.4113    5.2574    1.0943 H   0  0  0  0  0  0  0  0  0  0  0  0  # atno 2891 bound_to 2887
   17.9536    1.9469   -0.7101 H   0  0  0  0  0  0  0  0  0  0  0  0  # atno 3175 bound_to 3171
   14.4262   10.0351    9.6135 H   0  0  0  0  0  0  0  0  0  0  0  0  # atno 5278 bound_to 5270
   16.4788   12.6066    6.0732 LP  0  0  0  0  0  0  0  0  0  0  0  0  # atno 5914 bound_to 677 
   15.6729   13.3336    7.2933 LP  0  0  0  0  0  0  0  0  0  0  0  0  # atno 5915 bound_to 677 
   20.2654   11.6633   -0.1935 LP  0  0  0  0  0  0  0  0  0  0  0  0  # atno 5920 bound_to 698 
   21.0154   11.5583   -1.6402 LP  0  0  0  0  0  0  0  0  0  0  0  0  # atno 5921 bound_to 698 
   10.1190    3.4157   -3.4253 LP  0  0  0  0  0  0  0  0  0  0  0  0  # atno 5950 bound_to 2569
   11.0195    2.3286   -2.6044 LP  0  0  0  0  0  0  0  0  0  0  0  0  # atno 5951 bound_to 2569
    7.4906    6.8181    1.4018 LP  0  0  0  0  0  0  0  0  0  0  0  0  # atno 5982 bound_to 2887
    8.3843    6.1537    0.2075 LP  0  0  0  0  0  0  0  0  0  0  0  0  # atno 5983 bound_to 2887
   19.1894    2.8188   -1.2083 LP  0  0  0  0  0  0  0  0  0  0  0  0  # atno 6000 bound_to 3171
   18.8043    2.7411    0.3767 LP  0  0  0  0  0  0  0  0  0  0  0  0  # atno 6001 bound_to 3171
   13.0563   10.1998    8.8178 LP  0  0  0  0  0  0  0  0  0  0  0  0  # atno 6004 bound_to 5270
   13.0617    9.8088   10.4033 LP  0  0  0  0  0  0  0  0  0  0  0  0  # atno 6005 bound_to 5270
   10.9286   18.9677    7.3358 LP  0  0  0  0  0  0  0  0  0  0  0  0  # atno 6055 bound_to 637 
   10.9522   19.7092    8.7906 LP  0  0  0  0  0  0  0  0  0  0  0  0  # atno 6056 bound_to 637 
    0.6011   11.5933   11.1016 LP  0  0  0  0  0  0  0  0  0  0  0  0  # atno 6063 bound_to 1878
    2.0431   12.1336   10.5580 LP  0  0  0  0  0  0  0  0  0  0  0  0  # atno 6064 bound_to 1878
   -6.4425   16.5255   -1.6249 LP  0  0  0  0  0  0  0  0  0  0  0  0  # atno 6067 bound_to 957 
   -7.0951   16.9263   -0.1826 LP  0  0  0  0  0  0  0  0  0  0  0  0  # atno 6068 bound_to 957 

>  <STRIFE_LigEff_Score>  (192) 
3.1615166666666665

$$$$
unknown|pharmsElabsTestPreDocking|sdf|193|dock1
     RDKit          3D

 14 14  0  0  0  0  0  0  0  0999 V2000
   14.5764    7.7149    3.3027 C   0  0  0  0  0  0  0  0  0  0  0  0
   13.5033    7.9373    2.2236 C   0  0  0  0  0  0  0  0  0  0  0  0
   13.6920    6.9883    1.1222 N   0  0  0  0  0  0  0  0  0  0  0  0
   12.0144    7.9934    2.7218 C   0  0  0  0  0  0  0  0  0  0  0  0
   10.9942    7.5150    1.6899 C   0  0  0  0  0  0  0  0  0  0  0  0
    9.5481    7.5131    2.1626 C   0  0  0  0  0  0  0  0  0  0  0  0
    9.1894    8.7310    2.9802 C   0  0  0  0  0  0  0  0  0  0  0  0
    7.7135    8.8987    3.2092 C   0  0  0  0  0  0  0  0  0  0  0  0
    6.9971    8.5999    2.2224 O   0  0  0  0  0  0  0  0  0  0  0  0
    7.0793    9.3563    4.4182 N   0  0  0  0  0  0  0  0  0  0  0  0
    5.6498    9.5506    4.4287 C   0  0  0  0  0  0  0  0  0  0  0  0
    4.7293    9.2589    3.1117 S   0  0  0  0  0  0  0  0  0  0  0  0
   10.1326    9.1222    4.0955 C   0  0  0  0  0  0  0  0  0  0  0  0
   11.5918    9.1767    3.6146 C   0  0  0  0  0  0  0  0  0  0  0  0
  1  2  1  0
  2  3  1  0
  2  4  1  0
  4  5  1  0
  5  6  1  0
  6  7  1  0
  7  8  1  0
  8  9  2  0
  8 10  1  0
 10 11  1  0
 11 12  2  0
  7 13  1  0
 13 14  1  0
 14  4  1  0
M  CHG  1   3   1
M  END
>  <EmbedRMS>  (193) 
0.2961184258862318

>  <Gold.Version>  (193) 
2020.3.0

>  <Gold.Id.Protein>  (193) 
unknown|1q8t_protein|pdb

>  <Gold.PLP.Fitness>  (193) 
39.0343

>  <Gold.PLP.PLP>  (193) 
-27.8737

>  <Gold.PLP.part.hbond>  (193) 
-3.0000

>  <Gold.PLP.part.metal>  (193) 
0.0000

>  <Gold.PLP.part.buried>  (193) 
-1.8253

>  <Gold.PLP.part.nonpolar>  (193) 
-23.1792

>  <Gold.PLP.part.repulsive>  (193) 
0.0607

>  <Gold.PLP.ligand.clash>  (193) 
0.0000

>  <Gold.PLP.ligand.torsion>  (193) 
0.8192

>  <Gold.PLP.Chemscore.Hbond>  (193) 
4.0000

>  <Gold.PLP.Chemscore.CHOScore>  (193) 
0.0000

>  <Gold.PLP.Chemscore.Metal>  (193) 
0.0000

>  <Gold.Chemscore.Hbonds>  (193) 
donor molecule, donor type, donor heavy atom, donor atom, acceptor molecule, acceptor atom, score
      L1  H     3    19       P1  2691  1.00
      L1  H     3    20       P1  2902  2.00
      P1  H  2887  2891       L1     9  1.00

>  <Gold.PLP.Chemscore.Internal.Correction>  (193) 
0.7990

>  <Gold.PLP.Constraint>  (193) 
-0.0000

>  <Gold.Protein.RotatedTorsions>  (193) 
[  681  677  676  673 ] final  107.23 input -179.99 | X-H torsion
[  702  698  697  694 ] final   64.88 input  179.99 | X-H torsion
[ 2577 2569 2568 2566 ] final   43.14 input   -0.13 | X-H torsion
[ 2891 2887 2886 2883 ] final  152.01 input  179.98 | X-H torsion
[ 3175 3171 3170 3167 ] final   -2.73 input -179.99 | X-H torsion
[ 5278 5270 5269 5267 ] final  -16.31 input    0.55 | X-H torsion
[  641  637  636  633 ] final    1.41 input  179.99 | X-H torsion
[ 1886 1878 1877 1875 ] final  156.96 input    1.60 | X-H torsion
[  965  957  956  954 ] final -145.05 input    0.45 | X-H torsion

>  <Gold.Protein.ActiveResidues>  (193) 
 LYS47   THR48   LEU49   GLY50   THR51   GLY52   SER53   PHE54   GLY55   ARG56  
 VAL57   MET58   LEU59   TYR69   ALA70   MET71   LYS72   ILE73   LEU74   GLU91  
 LEU95   VAL104  LYS105  MET118  VAL119  MET120  GLU121  TYR122  VAL123  PRO124 
 GLY125  GLY126  GLU127  MET128  PHE129  TYR164  ASP166  LEU167  LYS168  PRO169 
 GLU170  ASN171  LEU172  LEU173  ILE174  GLN181  VAL182  THR183  ASP184  PHE185 
 GLY186  PHE187  GLY200  THR201  ASN326  PHE327  TYR330  ARG18   ARG19   ASN20  
 ALA21   ILE22   HIS23  

>  <Gold.Protein.RotatedAtoms>  (193) 
    9.5831   19.3307    7.9358 H   0  0  0  0  0  0  0  0  0  0  0  0  # atno 641  bound_to 637 
   17.1689   13.2222    6.2304 H   0  0  0  0  0  0  0  0  0  0  0  0  # atno 681  bound_to 677 
   19.4807   11.8465   -1.6014 H   0  0  0  0  0  0  0  0  0  0  0  0  # atno 702  bound_to 698 
   -6.6705   17.1087   -1.0723 H   0  0  0  0  0  0  0  0  0  0  0  0  # atno 965  bound_to 957 
    0.7527   11.8736   11.0636 H   0  0  0  0  0  0  0  0  0  0  0  0  # atno 1886 bound_to 1878
    9.3328    2.8457   -3.1074 H   0  0  0  0  0  0  0  0  0  0  0  0  # atno 2577 bound_to 2569
    7.6827    6.9128    1.1766 H   0  0  0  0  0  0  0  0  0  0  0  0  # atno 2891 bound_to 2887
   19.1567    2.7751   -1.1901 H   0  0  0  0  0  0  0  0  0  0  0  0  # atno 3175 bound_to 3171
   12.7635    9.9070   10.0625 H   0  0  0  0  0  0  0  0  0  0  0  0  # atno 5278 bound_to 5270
   15.7230   12.6678    6.6021 LP  0  0  0  0  0  0  0  0  0  0  0  0  # atno 5914 bound_to 677 
   16.3804   13.9129    7.4293 LP  0  0  0  0  0  0  0  0  0  0  0  0  # atno 5915 bound_to 677 
   20.2047   11.6741   -0.1930 LP  0  0  0  0  0  0  0  0  0  0  0  0  # atno 5920 bound_to 698 
   21.0461   11.5518   -1.5871 LP  0  0  0  0  0  0  0  0  0  0  0  0  # atno 5921 bound_to 698 
   10.8872    3.1772   -3.2034 LP  0  0  0  0  0  0  0  0  0  0  0  0  # atno 5950 bound_to 2569
   10.3566    1.8908   -2.3490 LP  0  0  0  0  0  0  0  0  0  0  0  0  # atno 5951 bound_to 2569
    8.3334    5.8433    0.1921 LP  0  0  0  0  0  0  0  0  0  0  0  0  # atno 5982 bound_to 2887
    7.2558    5.3862    1.3307 LP  0  0  0  0  0  0  0  0  0  0  0  0  # atno 5983 bound_to 2887
   18.8270    2.7567    0.3676 LP  0  0  0  0  0  0  0  0  0  0  0  0  # atno 6000 bound_to 3171
   17.9006    1.9315   -0.6941 LP  0  0  0  0  0  0  0  0  0  0  0  0  # atno 6001 bound_to 3171
   14.3562    9.9086   10.0536 LP  0  0  0  0  0  0  0  0  0  0  0  0  # atno 6004 bound_to 5270
   13.5112   10.2349    8.6950 LP  0  0  0  0  0  0  0  0  0  0  0  0  # atno 6005 bound_to 5270
   11.0487   18.9987    7.4096 LP  0  0  0  0  0  0  0  0  0  0  0  0  # atno 6055 bound_to 637 
   10.8231   19.7442    8.8449 LP  0  0  0  0  0  0  0  0  0  0  0  0  # atno 6056 bound_to 637 
    2.2173   11.8862   10.4390 LP  0  0  0  0  0  0  0  0  0  0  0  0  # atno 6063 bound_to 1878
    1.3757   10.4931   10.5724 LP  0  0  0  0  0  0  0  0  0  0  0  0  # atno 6064 bound_to 1878
   -7.2065   16.1091    0.0451 LP  0  0  0  0  0  0  0  0  0  0  0  0  # atno 6067 bound_to 957 
   -6.5763   15.5440   -1.3514 LP  0  0  0  0  0  0  0  0  0  0  0  0  # atno 6068 bound_to 957 

>  <STRIFE_LigEff_Score>  (193) 
2.7881642857142857

$$$$
unknown|pharmsElabsTestPreDocking|sdf|194|dock10
     RDKit          3D

 19 20  0  0  0  0  0  0  0  0999 V2000
    3.2980    8.5399    2.0917 C   0  0  0  0  0  0  0  0  0  0  0  0
    3.8975    9.1367    3.3208 C   0  0  0  0  0  0  0  0  0  0  0  0
    5.0533    9.9475    3.2805 C   0  0  0  0  0  0  0  0  0  0  0  0
    5.4260   10.4093    4.5354 C   0  0  0  0  0  0  0  0  0  0  0  0
    6.5929   11.2702    4.8761 C   0  0  0  0  0  0  0  0  0  0  0  0
    7.8400   10.5384    4.6892 N   0  0  0  0  0  0  0  0  0  0  0  0
    8.3545    9.9333    3.4825 C   0  0  0  0  0  0  0  0  0  0  0  0
    7.6687   10.0548    2.4375 O   0  0  0  0  0  0  0  0  0  0  0  0
    9.6441    9.1762    3.2878 C   0  0  0  0  0  0  0  0  0  0  0  0
    9.5175    7.9515    2.4105 C   0  0  0  0  0  0  0  0  0  0  0  0
   10.8566    7.3703    1.9867 C   0  0  0  0  0  0  0  0  0  0  0  0
   11.9897    7.4011    3.0224 C   0  0  0  0  0  0  0  0  0  0  0  0
   13.3995    7.2541    2.3996 C   0  0  0  0  0  0  0  0  0  0  0  0
   14.5851    7.0160    3.3328 C   0  0  0  0  0  0  0  0  0  0  0  0
   13.6802    8.2838    1.3970 N   0  0  0  0  0  0  0  0  0  0  0  0
   11.9751    8.5817    4.0237 C   0  0  0  0  0  0  0  0  0  0  0  0
   10.6061    9.0935    4.4420 C   0  0  0  0  0  0  0  0  0  0  0  0
    4.2925    9.8107    5.5936 S   0  0  0  0  0  0  0  0  0  0  0  0
    3.3337    8.9530    4.5444 N   0  0  0  0  0  0  0  0  0  0  0  0
  1  2  1  0
  2  3  1  0
  3  4  2  0
  4  5  1  0
  5  6  1  0
  6  7  1  0
  7  8  2  0
  7  9  1  0
  9 10  1  0
 10 11  1  0
 11 12  1  0
 12 13  1  0
 13 14  1  0
 13 15  1  0
 12 16  1  0
 16 17  1  0
  4 18  1  0
 18 19  1  0
 19  2  2  0
 17  9  1  0
M  CHG  1  15   1
M  END
>  <EmbedRMS>  (194) 
0.28167996706824416

>  <Gold.Version>  (194) 
2020.3.0

>  <Gold.Id.Protein>  (194) 
unknown|1q8t_protein|pdb

>  <Gold.PLP.Fitness>  (194) 
50.5137

>  <Gold.PLP.PLP>  (194) 
-42.3497

>  <Gold.PLP.part.hbond>  (194) 
-2.0000

>  <Gold.PLP.part.metal>  (194) 
0.0000

>  <Gold.PLP.part.buried>  (194) 
-3.2697

>  <Gold.PLP.part.nonpolar>  (194) 
-38.8789

>  <Gold.PLP.part.repulsive>  (194) 
0.1554

>  <Gold.PLP.ligand.clash>  (194) 
0.0000

>  <Gold.PLP.ligand.torsion>  (194) 
0.4462

>  <Gold.PLP.Chemscore.Hbond>  (194) 
2.7855

>  <Gold.PLP.Chemscore.CHOScore>  (194) 
0.0000

>  <Gold.PLP.Chemscore.Metal>  (194) 
0.0000

>  <Gold.Chemscore.Hbonds>  (194) 
donor molecule, donor type, donor heavy atom, donor atom, acceptor molecule, acceptor atom, score
      L1  H    15    37       P1  2902  2.00
      P1  H  1888  1903       L1    19  0.79

>  <Gold.PLP.Chemscore.Internal.Correction>  (194) 
0.7000

>  <Gold.PLP.Constraint>  (194) 
-0.0000

>  <Gold.Protein.RotatedTorsions>  (194) 
[  681  677  676  673 ] final -119.88 input -179.99 | X-H torsion
[  702  698  697  694 ] final  169.41 input  179.99 | X-H torsion
[ 2577 2569 2568 2566 ] final   90.05 input   -0.13 | X-H torsion
[ 2891 2887 2886 2883 ] final  -12.57 input  179.98 | X-H torsion
[ 3175 3171 3170 3167 ] final -163.14 input -179.99 | X-H torsion
[ 5278 5270 5269 5267 ] final  101.94 input    0.55 | X-H torsion
[  641  637  636  633 ] final -171.41 input  179.99 | X-H torsion
[ 1886 1878 1877 1875 ] final  145.70 input    1.60 | X-H torsion
[  965  957  956  954 ] final  -79.57 input    0.45 | X-H torsion

>  <Gold.Protein.ActiveResidues>  (194) 
 LYS47   THR48   LEU49   GLY50   THR51   GLY52   SER53   PHE54   GLY55   ARG56  
 VAL57   MET58   LEU59   TYR69   ALA70   MET71   LYS72   ILE73   LEU74   GLU91  
 LEU95   VAL104  LYS105  MET118  VAL119  MET120  GLU121  TYR122  VAL123  PRO124 
 GLY125  GLY126  GLU127  MET128  PHE129  TYR164  ASP166  LEU167  LYS168  PRO169 
 GLU170  ASN171  LEU172  LEU173  ILE174  GLN181  VAL182  THR183  ASP184  PHE185 
 GLY186  PHE187  GLY200  THR201  ASN326  PHE327  TYR330  ARG18   ARG19   ASN20  
 ALA21   ILE22   HIS23  

>  <Gold.Protein.RotatedAtoms>  (194) 
   11.3629   19.3136    8.0971 H   0  0  0  0  0  0  0  0  0  0  0  0  # atno 641  bound_to 637 
   16.1956   13.8095    7.4156 H   0  0  0  0  0  0  0  0  0  0  0  0  # atno 681  bound_to 677 
   20.8683   11.6035   -1.7588 H   0  0  0  0  0  0  0  0  0  0  0  0  # atno 702  bound_to 698 
   -6.4351   16.3355   -1.6057 H   0  0  0  0  0  0  0  0  0  0  0  0  # atno 965  bound_to 957 
    0.8559   12.0142   11.0421 H   0  0  0  0  0  0  0  0  0  0  0  0  # atno 1886 bound_to 1878
    9.3881    2.2639   -2.6994 H   0  0  0  0  0  0  0  0  0  0  0  0  # atno 2577 bound_to 2569
    7.9682    5.3124    0.4625 H   0  0  0  0  0  0  0  0  0  0  0  0  # atno 2891 bound_to 2887
   18.3312    2.3607    0.3142 H   0  0  0  0  0  0  0  0  0  0  0  0  # atno 3175 bound_to 3171
   13.4847   10.2394    8.7452 H   0  0  0  0  0  0  0  0  0  0  0  0  # atno 5278 bound_to 5270
   17.2794   13.3705    6.3346 LP  0  0  0  0  0  0  0  0  0  0  0  0  # atno 5914 bound_to 677 
   15.8485   12.5921    6.4494 LP  0  0  0  0  0  0  0  0  0  0  0  0  # atno 5915 bound_to 677 
   19.3378   11.8509   -1.3933 LP  0  0  0  0  0  0  0  0  0  0  0  0  # atno 5920 bound_to 698 
   20.4532   11.6306   -0.2212 LP  0  0  0  0  0  0  0  0  0  0  0  0  # atno 5921 bound_to 698 
   10.2114    3.4199   -3.4214 LP  0  0  0  0  0  0  0  0  0  0  0  0  # atno 5950 bound_to 2569
   10.9743    2.2607   -2.5606 LP  0  0  0  0  0  0  0  0  0  0  0  0  # atno 5951 bound_to 2569
    7.1408    6.0308    1.6183 LP  0  0  0  0  0  0  0  0  0  0  0  0  # atno 5982 bound_to 2887
    8.1479    6.8830    0.6560 LP  0  0  0  0  0  0  0  0  0  0  0  0  # atno 5983 bound_to 2887
   18.2050    2.0843   -1.2489 LP  0  0  0  0  0  0  0  0  0  0  0  0  # atno 6000 bound_to 3171
   19.3913    3.0400   -0.6606 LP  0  0  0  0  0  0  0  0  0  0  0  0  # atno 6001 bound_to 3171
   12.7389    9.8789   10.1056 LP  0  0  0  0  0  0  0  0  0  0  0  0  # atno 6004 bound_to 5270
   14.3697    9.9148   10.0290 LP  0  0  0  0  0  0  0  0  0  0  0  0  # atno 6005 bound_to 5270
    9.9878   19.7522    8.7692 LP  0  0  0  0  0  0  0  0  0  0  0  0  # atno 6055 bound_to 637 
   10.0097   19.0087    7.3155 LP  0  0  0  0  0  0  0  0  0  0  0  0  # atno 6056 bound_to 637 
    2.2758   11.7193   10.3847 LP  0  0  0  0  0  0  0  0  0  0  0  0  # atno 6063 bound_to 1878
    1.2086   10.5120   10.6493 LP  0  0  0  0  0  0  0  0  0  0  0  0  # atno 6064 bound_to 1878
   -7.0341   17.0479   -0.3139 LP  0  0  0  0  0  0  0  0  0  0  0  0  # atno 6067 bound_to 957 
   -6.9965   15.4195   -0.4306 LP  0  0  0  0  0  0  0  0  0  0  0  0  # atno 6068 bound_to 957 

>  <STRIFE_LigEff_Score>  (194) 
2.6586157894736844

$$$$
unknown|pharmsElabsTestPreDocking|sdf|195|dock9
     RDKit          3D

 17 18  0  0  0  0  0  0  0  0999 V2000
   14.5975    8.0334    3.1651 C   0  0  0  0  0  0  0  0  0  0  0  0
   13.3001    7.8297    2.3841 C   0  0  0  0  0  0  0  0  0  0  0  0
   13.2438    8.6604    1.1796 N   0  0  0  0  0  0  0  0  0  0  0  0
   11.9627    7.8261    3.1645 C   0  0  0  0  0  0  0  0  0  0  0  0
   10.8464    7.0326    2.4701 C   0  0  0  0  0  0  0  0  0  0  0  0
    9.4248    7.3423    2.9076 C   0  0  0  0  0  0  0  0  0  0  0  0
    9.1899    8.8166    3.1193 C   0  0  0  0  0  0  0  0  0  0  0  0
    7.7419    9.1947    3.2163 C   0  0  0  0  0  0  0  0  0  0  0  0
    7.5051   10.0620    4.0872 O   0  0  0  0  0  0  0  0  0  0  0  0
    6.6599    8.6600    2.4236 N   0  0  0  0  0  0  0  0  0  0  0  0
    5.2721    9.0021    2.6712 C   0  0  0  0  0  0  0  0  0  0  0  0
    4.6376    9.1706    3.9010 C   0  0  0  0  0  0  0  0  0  0  0  0
    3.3252    9.4727    3.6182 C   0  0  0  0  0  0  0  0  0  0  0  0
    3.1304    9.4927    2.2877 N   0  0  0  0  0  0  0  0  0  0  0  0
    4.3092    9.2067    1.7014 C   0  0  0  0  0  0  0  0  0  0  0  0
   10.1563    9.5319    4.0191 C   0  0  0  0  0  0  0  0  0  0  0  0
   11.6091    9.2636    3.6312 C   0  0  0  0  0  0  0  0  0  0  0  0
  1  2  1  0
  2  3  1  0
  2  4  1  0
  4  5  1  0
  5  6  1  0
  6  7  1  0
  7  8  1  0
  8  9  2  0
  8 10  1  0
 10 11  1  0
 11 12  1  0
 12 13  2  0
 13 14  1  0
 14 15  1  0
  7 16  1  0
 16 17  1  0
 17  4  1  0
 15 11  2  0
M  CHG  1   3   1
M  END
>  <EmbedRMS>  (195) 
0.3005329260886256

>  <Gold.Version>  (195) 
2020.3.0

>  <Gold.Id.Protein>  (195) 
unknown|1q8t_protein|pdb

>  <Gold.PLP.Fitness>  (195) 
49.3939

>  <Gold.PLP.PLP>  (195) 
-40.5637

>  <Gold.PLP.part.hbond>  (195) 
-2.6841

>  <Gold.PLP.part.metal>  (195) 
0.0000

>  <Gold.PLP.part.buried>  (195) 
-3.5294

>  <Gold.PLP.part.nonpolar>  (195) 
-34.4508

>  <Gold.PLP.part.repulsive>  (195) 
0.0719

>  <Gold.PLP.ligand.clash>  (195) 
0.0000

>  <Gold.PLP.ligand.torsion>  (195) 
0.7972

>  <Gold.PLP.Chemscore.Hbond>  (195) 
3.2673

>  <Gold.PLP.Chemscore.CHOScore>  (195) 
0.0000

>  <Gold.PLP.Chemscore.Metal>  (195) 
0.0000

>  <Gold.Chemscore.Hbonds>  (195) 
donor molecule, donor type, donor heavy atom, donor atom, acceptor molecule, acceptor atom, score
      L1  H     3    22       P1  2902  2.00
      L1  H    10    31       P1  2887  0.27
      L1  H    14    34       P1  1855  1.00

>  <Gold.PLP.Chemscore.Internal.Correction>  (195) 
0.6226

>  <Gold.PLP.Constraint>  (195) 
-0.0000

>  <Gold.Protein.RotatedTorsions>  (195) 
[  681  677  676  673 ] final  -49.18 input -179.99 | X-H torsion
[  702  698  697  694 ] final -164.52 input  179.99 | X-H torsion
[ 2577 2569 2568 2566 ] final  175.78 input   -0.13 | X-H torsion
[ 2891 2887 2886 2883 ] final  -66.33 input  179.98 | X-H torsion
[ 3175 3171 3170 3167 ] final  -70.48 input -179.99 | X-H torsion
[ 5278 5270 5269 5267 ] final  -64.69 input    0.55 | X-H torsion
[  641  637  636  633 ] final  -38.98 input  179.99 | X-H torsion
[ 1886 1878 1877 1875 ] final   96.02 input    1.60 | X-H torsion
[  965  957  956  954 ] final -123.93 input    0.45 | X-H torsion

>  <Gold.Protein.ActiveResidues>  (195) 
 LYS47   THR48   LEU49   GLY50   THR51   GLY52   SER53   PHE54   GLY55   ARG56  
 VAL57   MET58   LEU59   TYR69   ALA70   MET71   LYS72   ILE73   LEU74   GLU91  
 LEU95   VAL104  LYS105  MET118  VAL119  MET120  GLU121  TYR122  VAL123  PRO124 
 GLY125  GLY126  GLU127  MET128  PHE129  TYR164  ASP166  LEU167  LYS168  PRO169 
 GLU170  ASN171  LEU172  LEU173  ILE174  GLN181  VAL182  THR183  ASP184  PHE185 
 GLY186  PHE187  GLY200  THR201  ASN326  PHE327  TYR330  ARG18   ARG19   ASN20  
 ALA21   ILE22   HIS23  

>  <Gold.Protein.RotatedAtoms>  (195) 
    9.8744   19.0699    7.4569 H   0  0  0  0  0  0  0  0  0  0  0  0  # atno 641  bound_to 637 
   15.6134   13.0480    7.0213 H   0  0  0  0  0  0  0  0  0  0  0  0  # atno 681  bound_to 677 
   21.0727   11.5606   -1.4126 H   0  0  0  0  0  0  0  0  0  0  0  0  # atno 702  bound_to 698 
   -6.5550   16.9407   -1.3294 H   0  0  0  0  0  0  0  0  0  0  0  0  # atno 965  bound_to 957 
    1.5054   12.3118   10.8065 H   0  0  0  0  0  0  0  0  0  0  0  0  # atno 1886 bound_to 1878
   10.5364    1.9738   -2.4138 H   0  0  0  0  0  0  0  0  0  0  0  0  # atno 2577 bound_to 2569
    7.4324    5.2427    1.0663 H   0  0  0  0  0  0  0  0  0  0  0  0  # atno 2891 bound_to 2887
   19.3084    3.0129   -0.2322 H   0  0  0  0  0  0  0  0  0  0  0  0  # atno 3175 bound_to 3171
   13.3676    9.8129   10.4693 H   0  0  0  0  0  0  0  0  0  0  0  0  # atno 5278 bound_to 5270
   16.9030   13.9715    7.1636 LP  0  0  0  0  0  0  0  0  0  0  0  0  # atno 5914 bound_to 677 
   16.8377   12.7927    6.0354 LP  0  0  0  0  0  0  0  0  0  0  0  0  # atno 5915 bound_to 677 
   19.5415   11.8220   -1.7655 LP  0  0  0  0  0  0  0  0  0  0  0  0  # atno 5920 bound_to 698 
   20.0345   11.7046   -0.2131 LP  0  0  0  0  0  0  0  0  0  0  0  0  # atno 5921 bound_to 698 
    9.2417    2.6984   -2.9915 LP  0  0  0  0  0  0  0  0  0  0  0  0  # atno 5950 bound_to 2569
   10.7349    3.2876   -3.2912 LP  0  0  0  0  0  0  0  0  0  0  0  0  # atno 5951 bound_to 2569
    7.4668    6.7943    1.4237 LP  0  0  0  0  0  0  0  0  0  0  0  0  # atno 5982 bound_to 2887
    8.3858    6.1930    0.2152 LP  0  0  0  0  0  0  0  0  0  0  0  0  # atno 5983 bound_to 2887
   18.0267    2.1292    0.1024 LP  0  0  0  0  0  0  0  0  0  0  0  0  # atno 6000 bound_to 3171
   18.5413    2.3088   -1.4369 LP  0  0  0  0  0  0  0  0  0  0  0  0  # atno 6001 bound_to 3171
   14.4188   10.0936    9.3062 LP  0  0  0  0  0  0  0  0  0  0  0  0  # atno 6004 bound_to 5270
   12.8131   10.1488    9.0145 LP  0  0  0  0  0  0  0  0  0  0  0  0  # atno 6005 bound_to 5270
   11.3918   19.2350    7.9099 LP  0  0  0  0  0  0  0  0  0  0  0  0  # atno 6055 bound_to 637 
   10.1732   19.7826    8.8489 LP  0  0  0  0  0  0  0  0  0  0  0  0  # atno 6056 bound_to 637 
    2.1461   10.9416   10.3093 LP  0  0  0  0  0  0  0  0  0  0  0  0  # atno 6063 bound_to 1878
    0.6545   10.9764   10.9728 LP  0  0  0  0  0  0  0  0  0  0  0  0  # atno 6064 bound_to 1878
   -7.2017   16.4546    0.0420 LP  0  0  0  0  0  0  0  0  0  0  0  0  # atno 6067 bound_to 957 
   -6.7026   15.3755   -1.0774 LP  0  0  0  0  0  0  0  0  0  0  0  0  # atno 6068 bound_to 957 

>  <STRIFE_LigEff_Score>  (195) 
2.9055235294117647

$$$$
unknown|pharmsElabsTestPreDocking|sdf|196|dock9
     RDKit          3D

 19 20  0  0  0  0  0  0  0  0999 V2000
   14.1816    9.2800    1.7471 C   0  0  0  0  0  0  0  0  0  0  0  0
   13.5364    7.9535    2.1483 C   0  0  0  0  0  0  0  0  0  0  0  0
   13.5805    6.9907    1.0392 N   0  0  0  0  0  0  0  0  0  0  0  0
   12.1552    7.9941    2.8316 C   0  0  0  0  0  0  0  0  0  0  0  0
   11.0416    7.0152    2.3721 C   0  0  0  0  0  0  0  0  0  0  0  0
    9.7455    7.6645    1.9074 C   0  0  0  0  0  0  0  0  0  0  0  0
    9.3042    8.7778    2.8556 C   0  0  0  0  0  0  0  0  0  0  0  0
    7.9506    9.3020    2.4572 C   0  0  0  0  0  0  0  0  0  0  0  0
    7.4559    8.9961    1.3359 O   0  0  0  0  0  0  0  0  0  0  0  0
    7.2356   10.1643    3.3506 N   0  0  0  0  0  0  0  0  0  0  0  0
    5.9369   10.7356    3.0154 C   0  0  0  0  0  0  0  0  0  0  0  0
    4.8600   10.0462    3.7894 C   0  0  0  0  0  0  0  0  0  0  0  0
    4.8611    9.7304    5.1315 C   0  0  0  0  0  0  0  0  0  0  0  0
    3.7209    9.0696    5.4112 N   0  0  0  0  0  0  0  0  0  0  0  0
    2.9935    8.9359    4.3120 N   0  0  0  0  0  0  0  0  0  0  0  0
    3.6780    9.5226    3.3130 C   0  0  0  0  0  0  0  0  0  0  0  0
    3.2315    9.5733    1.9600 N   0  0  0  0  0  0  0  0  0  0  0  0
   10.3372    9.8991    2.8214 C   0  0  0  0  0  0  0  0  0  0  0  0
   11.7173    9.4243    3.2734 C   0  0  0  0  0  0  0  0  0  0  0  0
  1  2  1  0
  2  3  1  0
  2  4  1  0
  4  5  1  0
  5  6  1  0
  6  7  1  0
  7  8  1  0
  8  9  2  0
  8 10  1  0
 10 11  1  0
 11 12  1  0
 12 13  2  0
 13 14  1  0
 14 15  1  0
 15 16  2  0
 16 17  1  0
  7 18  1  0
 18 19  1  0
 19  4  1  0
 16 12  1  0
M  CHG  1   3   1
M  END
>  <EmbedRMS>  (196) 
0.19642125549947853

>  <Gold.Version>  (196) 
2020.3.0

>  <Gold.Id.Protein>  (196) 
unknown|1q8t_protein|pdb

>  <Gold.PLP.Fitness>  (196) 
53.9203

>  <Gold.PLP.PLP>  (196) 
-34.4098

>  <Gold.PLP.part.hbond>  (196) 
-5.8260

>  <Gold.PLP.part.metal>  (196) 
0.0000

>  <Gold.PLP.part.buried>  (196) 
-0.4961

>  <Gold.PLP.part.nonpolar>  (196) 
-29.2673

>  <Gold.PLP.part.repulsive>  (196) 
0.3008

>  <Gold.PLP.ligand.clash>  (196) 
0.0000

>  <Gold.PLP.ligand.torsion>  (196) 
1.7881

>  <Gold.PLP.Chemscore.Hbond>  (196) 
7.5610

>  <Gold.PLP.Chemscore.CHOScore>  (196) 
0.0000

>  <Gold.PLP.Chemscore.Metal>  (196) 
0.0000

>  <Gold.Chemscore.Hbonds>  (196) 
donor molecule, donor type, donor heavy atom, donor atom, acceptor molecule, acceptor atom, score
      L1  H     3    24       P1  2902  2.00
      L1  H     3    25       P1  2691  0.94
      L1  H    14    37       P1  1891  0.79
      L1  H    17    38       P1  1855  1.00
      L1  H    17    39       P1  1855  1.00
      P1  H  2887  2891       L1     9  0.99
      P1  H  1888  1903       L1    15  0.83

>  <Gold.PLP.Chemscore.Internal.Correction>  (196) 
0.4037

>  <Gold.PLP.Constraint>  (196) 
-0.0000

>  <Gold.Protein.RotatedTorsions>  (196) 
[  681  677  676  673 ] final   77.19 input -179.99 | X-H torsion
[  702  698  697  694 ] final   -5.50 input  179.99 | X-H torsion
[ 2577 2569 2568 2566 ] final -146.14 input   -0.13 | X-H torsion
[ 2891 2887 2886 2883 ] final  141.44 input  179.98 | X-H torsion
[ 3175 3171 3170 3167 ] final -143.45 input -179.99 | X-H torsion
[ 5278 5270 5269 5267 ] final   73.48 input    0.55 | X-H torsion
[  641  637  636  633 ] final  -98.49 input  179.99 | X-H torsion
[ 1886 1878 1877 1875 ] final -168.11 input    1.60 | X-H torsion
[  965  957  956  954 ] final  -37.52 input    0.45 | X-H torsion

>  <Gold.Protein.ActiveResidues>  (196) 
 LYS47   THR48   LEU49   GLY50   THR51   GLY52   SER53   PHE54   GLY55   ARG56  
 VAL57   MET58   LEU59   TYR69   ALA70   MET71   LYS72   ILE73   LEU74   GLU91  
 LEU95   VAL104  LYS105  MET118  VAL119  MET120  GLU121  TYR122  VAL123  PRO124 
 GLY125  GLY126  GLU127  MET128  PHE129  TYR164  ASP166  LEU167  LYS168  PRO169 
 GLU170  ASN171  LEU172  LEU173  ILE174  GLN181  VAL182  THR183  ASP184  PHE185 
 GLY186  PHE187  GLY200  THR201  ASN326  PHE327  TYR330  ARG18   ARG19   ASN20  
 ALA21   ILE22   HIS23  

>  <Gold.Protein.RotatedAtoms>  (196) 
   10.7428   18.9481    7.3133 H   0  0  0  0  0  0  0  0  0  0  0  0  # atno 641  bound_to 637 
   16.8895   12.8873    6.0714 H   0  0  0  0  0  0  0  0  0  0  0  0  # atno 681  bound_to 677 
   19.5452   11.8151   -0.5708 H   0  0  0  0  0  0  0  0  0  0  0  0  # atno 702  bound_to 698 
   -6.5166   15.7204   -1.4394 H   0  0  0  0  0  0  0  0  0  0  0  0  # atno 965  bound_to 957 
    0.6108   11.3557   11.0378 H   0  0  0  0  0  0  0  0  0  0  0  0  # atno 1886 bound_to 1878
   10.9651    2.3138   -2.6185 H   0  0  0  0  0  0  0  0  0  0  0  0  # atno 2577 bound_to 2569
    7.7922    6.9444    1.0573 H   0  0  0  0  0  0  0  0  0  0  0  0  # atno 2891 bound_to 2887
   18.5687    2.5445    0.3744 H   0  0  0  0  0  0  0  0  0  0  0  0  # atno 3175 bound_to 3171
   13.0637   10.2042    8.8703 H   0  0  0  0  0  0  0  0  0  0  0  0  # atno 5278 bound_to 5270
   15.5782   12.9513    6.9729 LP  0  0  0  0  0  0  0  0  0  0  0  0  # atno 5914 bound_to 677 
   16.8193   13.9820    7.2259 LP  0  0  0  0  0  0  0  0  0  0  0  0  # atno 5915 bound_to 677 
   21.0955   11.5278   -0.7979 LP  0  0  0  0  0  0  0  0  0  0  0  0  # atno 5920 bound_to 698 
   20.0873   11.7310   -2.0663 LP  0  0  0  0  0  0  0  0  0  0  0  0  # atno 5921 bound_to 698 
    9.3765    2.2101   -2.6425 LP  0  0  0  0  0  0  0  0  0  0  0  0  # atno 5950 bound_to 2569
   10.1487    3.4179   -3.4246 LP  0  0  0  0  0  0  0  0  0  0  0  0  # atno 5951 bound_to 2569
    8.2775    5.6809    0.2179 LP  0  0  0  0  0  0  0  0  0  0  0  0  # atno 5982 bound_to 2887
    7.1964    5.5154    1.4305 LP  0  0  0  0  0  0  0  0  0  0  0  0  # atno 5983 bound_to 2887
   18.0187    1.9778   -1.0084 LP  0  0  0  0  0  0  0  0  0  0  0  0  # atno 6000 bound_to 3171
   19.3277    2.9531   -0.9645 LP  0  0  0  0  0  0  0  0  0  0  0  0  # atno 6001 bound_to 3171
   13.0787    9.8067   10.4125 LP  0  0  0  0  0  0  0  0  0  0  0  0  # atno 6004 bound_to 5270
   14.4729   10.0240    9.5905 LP  0  0  0  0  0  0  0  0  0  0  0  0  # atno 6005 bound_to 5270
   11.1015   19.6524    8.6955 LP  0  0  0  0  0  0  0  0  0  0  0  0  # atno 6055 bound_to 637 
    9.5490   19.4935    8.2146 LP  0  0  0  0  0  0  0  0  0  0  0  0  # atno 6056 bound_to 637 
    1.8614   12.2663   10.6607 LP  0  0  0  0  0  0  0  0  0  0  0  0  # atno 6063 bound_to 1878
    1.8809   10.6582   10.3778 LP  0  0  0  0  0  0  0  0  0  0  0  0  # atno 6064 bound_to 1878
   -6.7601   17.2030   -0.9127 LP  0  0  0  0  0  0  0  0  0  0  0  0  # atno 6067 bound_to 957 
   -7.1847   15.9123   -0.0069 LP  0  0  0  0  0  0  0  0  0  0  0  0  # atno 6068 bound_to 957 

>  <STRIFE_LigEff_Score>  (196) 
2.8379105263157896

$$$$
unknown|pharmsElabsTestPreDocking|sdf|197|dock9
     RDKit          3D

 18 19  0  0  0  0  0  0  0  0999 V2000
    4.6706    9.1975    1.6350 C   0  0  0  0  0  0  0  0  0  0  0  0
    4.4790    9.4079    3.1025 C   0  0  0  0  0  0  0  0  0  0  0  0
    3.3696    9.9689    3.7001 C   0  0  0  0  0  0  0  0  0  0  0  0
    3.6145   10.1019    5.0161 N   0  0  0  0  0  0  0  0  0  0  0  0
    4.8272    9.6520    5.2958 N   0  0  0  0  0  0  0  0  0  0  0  0
    5.3679    9.2001    4.1488 C   0  0  0  0  0  0  0  0  0  0  0  0
    6.7210    8.7355    4.0697 N   0  0  0  0  0  0  0  0  0  0  0  0
    7.6816    9.1725    3.1019 C   0  0  0  0  0  0  0  0  0  0  0  0
    7.3157    9.8254    2.0843 O   0  0  0  0  0  0  0  0  0  0  0  0
    9.1388    8.8293    3.2961 C   0  0  0  0  0  0  0  0  0  0  0  0
    9.5822    7.8554    2.2101 C   0  0  0  0  0  0  0  0  0  0  0  0
   11.0082    7.3736    2.4050 C   0  0  0  0  0  0  0  0  0  0  0  0
   11.9982    8.4490    2.8908 C   0  0  0  0  0  0  0  0  0  0  0  0
   13.4982    8.2327    2.4819 C   0  0  0  0  0  0  0  0  0  0  0  0
   14.4396    7.7371    3.5901 C   0  0  0  0  0  0  0  0  0  0  0  0
   13.6345    7.3881    1.2898 N   0  0  0  0  0  0  0  0  0  0  0  0
   11.5037    9.8879    3.1493 C   0  0  0  0  0  0  0  0  0  0  0  0
    9.9822   10.1084    3.2550 C   0  0  0  0  0  0  0  0  0  0  0  0
  1  2  1  0
  2  3  2  0
  3  4  1  0
  4  5  1  0
  5  6  2  0
  6  7  1  0
  7  8  1  0
  8  9  2  0
  8 10  1  0
 10 11  1  0
 11 12  1  0
 12 13  1  0
 13 14  1  0
 14 15  1  0
 14 16  1  0
 13 17  1  0
 17 18  1  0
  6  2  1  0
 18 10  1  0
M  CHG  1  16   1
M  END
>  <EmbedRMS>  (197) 
0.16376755241934868

>  <Gold.Version>  (197) 
2020.3.0

>  <Gold.Id.Protein>  (197) 
unknown|1q8t_protein|pdb

>  <Gold.PLP.Fitness>  (197) 
47.3134

>  <Gold.PLP.PLP>  (197) 
-38.0971

>  <Gold.PLP.part.hbond>  (197) 
-2.0000

>  <Gold.PLP.part.metal>  (197) 
0.0000

>  <Gold.PLP.part.buried>  (197) 
-6.4089

>  <Gold.PLP.part.nonpolar>  (197) 
-30.3561

>  <Gold.PLP.part.repulsive>  (197) 
0.1587

>  <Gold.PLP.ligand.clash>  (197) 
0.0000

>  <Gold.PLP.ligand.torsion>  (197) 
1.6883

>  <Gold.PLP.Chemscore.Hbond>  (197) 
3.0000

>  <Gold.PLP.Chemscore.CHOScore>  (197) 
1.0000

>  <Gold.PLP.Chemscore.Metal>  (197) 
0.0000

>  <Gold.Chemscore.Hbonds>  (197) 
donor molecule, donor type, donor heavy atom, donor atom, acceptor molecule, acceptor atom, score
      L1  H    16    35       P1  2902  2.00
      L1  H    16    37       P1  2691  1.00
      L1  C     3    22       P1  1855  1.00

>  <Gold.PLP.Chemscore.Internal.Correction>  (197) 
0.5928

>  <Gold.PLP.Constraint>  (197) 
-0.0000

>  <Gold.Protein.RotatedTorsions>  (197) 
[  681  677  676  673 ] final -113.91 input -179.99 | X-H torsion
[  702  698  697  694 ] final  -89.97 input  179.99 | X-H torsion
[ 2577 2569 2568 2566 ] final  127.38 input   -0.13 | X-H torsion
[ 2891 2887 2886 2883 ] final   21.05 input  179.98 | X-H torsion
[ 3175 3171 3170 3167 ] final  -19.65 input -179.99 | X-H torsion
[ 5278 5270 5269 5267 ] final -165.09 input    0.55 | X-H torsion
[  641  637  636  633 ] final  -38.03 input  179.99 | X-H torsion
[ 1886 1878 1877 1875 ] final -133.77 input    1.60 | X-H torsion
[  965  957  956  954 ] final  -83.94 input    0.45 | X-H torsion

>  <Gold.Protein.ActiveResidues>  (197) 
 LYS47   THR48   LEU49   GLY50   THR51   GLY52   SER53   PHE54   GLY55   ARG56  
 VAL57   MET58   LEU59   TYR69   ALA70   MET71   LYS72   ILE73   LEU74   GLU91  
 LEU95   VAL104  LYS105  MET118  VAL119  MET120  GLU121  TYR122  VAL123  PRO124 
 GLY125  GLY126  GLU127  MET128  PHE129  TYR164  ASP166  LEU167  LYS168  PRO169 
 GLU170  ASN171  LEU172  LEU173  ILE174  GLN181  VAL182  THR183  ASP184  PHE185 
 GLY186  PHE187  GLY200  THR201  ASN326  PHE327  TYR330  ARG18   ARG19   ASN20  
 ALA21   ILE22   HIS23  

>  <Gold.Protein.RotatedAtoms>  (197) 
    9.8634   19.0749    7.4655 H   0  0  0  0  0  0  0  0  0  0  0  0  # atno 641  bound_to 637 
   16.1152   13.7622    7.4185 H   0  0  0  0  0  0  0  0  0  0  0  0  # atno 681  bound_to 677 
   20.7173   11.6038   -0.3878 H   0  0  0  0  0  0  0  0  0  0  0  0  # atno 702  bound_to 698 
   -6.4377   16.4033   -1.5985 H   0  0  0  0  0  0  0  0  0  0  0  0  # atno 965  bound_to 957 
    0.7600   10.8707   10.8893 H   0  0  0  0  0  0  0  0  0  0  0  0  # atno 1886 bound_to 1878
    9.8036    1.9545   -2.4541 H   0  0  0  0  0  0  0  0  0  0  0  0  # atno 2577 bound_to 2569
    8.2372    5.6970    0.2430 H   0  0  0  0  0  0  0  0  0  0  0  0  # atno 2891 bound_to 2887
   19.2824    2.8943   -0.9914 H   0  0  0  0  0  0  0  0  0  0  0  0  # atno 3175 bound_to 3171
   14.4262   10.0341    9.6172 H   0  0  0  0  0  0  0  0  0  0  0  0  # atno 5278 bound_to 5270
   17.2953   13.4440    6.3976 LP  0  0  0  0  0  0  0  0  0  0  0  0  # atno 5914 bound_to 677 
   15.9171   12.5684    6.3833 LP  0  0  0  0  0  0  0  0  0  0  0  0  # atno 5915 bound_to 677 
   20.6469   11.6302   -1.9789 LP  0  0  0  0  0  0  0  0  0  0  0  0  # atno 5920 bound_to 698 
   19.3030   11.8510   -1.0778 LP  0  0  0  0  0  0  0  0  0  0  0  0  # atno 5921 bound_to 698 
    9.6340    3.2587   -3.3518 LP  0  0  0  0  0  0  0  0  0  0  0  0  # atno 5950 bound_to 2569
   11.1142    2.7476   -2.8884 LP  0  0  0  0  0  0  0  0  0  0  0  0  # atno 5951 bound_to 2569
    7.1946    5.5205    1.4338 LP  0  0  0  0  0  0  0  0  0  0  0  0  # atno 5982 bound_to 2887
    7.8110    6.9886    1.0715 LP  0  0  0  0  0  0  0  0  0  0  0  0  # atno 5983 bound_to 2887
   18.6047    2.5988    0.4190 LP  0  0  0  0  0  0  0  0  0  0  0  0  # atno 6000 bound_to 3171
   17.9906    1.9640   -0.9546 LP  0  0  0  0  0  0  0  0  0  0  0  0  # atno 6001 bound_to 3171
   13.0598   10.2004    8.8158 LP  0  0  0  0  0  0  0  0  0  0  0  0  # atno 6004 bound_to 5270
   13.0582    9.8093   10.4013 LP  0  0  0  0  0  0  0  0  0  0  0  0  # atno 6005 bound_to 5270
   11.3885   19.2282    7.8962 LP  0  0  0  0  0  0  0  0  0  0  0  0  # atno 6055 bound_to 637 
   10.1880   19.7841    8.8535 LP  0  0  0  0  0  0  0  0  0  0  0  0  # atno 6056 bound_to 637 
    1.3622   12.3447   10.8942 LP  0  0  0  0  0  0  0  0  0  0  0  0  # atno 6063 bound_to 1878
    2.2231   11.0904   10.3007 LP  0  0  0  0  0  0  0  0  0  0  0  0  # atno 6064 bound_to 1878
   -7.0584   17.0053   -0.2615 LP  0  0  0  0  0  0  0  0  0  0  0  0  # atno 6067 bound_to 957 
   -6.9695   15.3909   -0.4906 LP  0  0  0  0  0  0  0  0  0  0  0  0  # atno 6068 bound_to 957 

>  <STRIFE_LigEff_Score>  (197) 
2.628522222222222

$$$$
unknown|pharmsElabsTestPreDocking|sdf|198|dock8
     RDKit          3D

 18 19  0  0  0  0  0  0  0  0999 V2000
   14.8055    7.5273    3.4738 C   0  0  0  0  0  0  0  0  0  0  0  0
   13.8889    8.0299    2.3483 C   0  0  0  0  0  0  0  0  0  0  0  0
   13.9955    7.1491    1.1797 N   0  0  0  0  0  0  0  0  0  0  0  0
   12.3977    8.3159    2.7434 C   0  0  0  0  0  0  0  0  0  0  0  0
   11.3652    7.2858    2.2491 C   0  0  0  0  0  0  0  0  0  0  0  0
    9.9691    7.8354    2.0336 C   0  0  0  0  0  0  0  0  0  0  0  0
    9.5571    8.8258    3.1173 C   0  0  0  0  0  0  0  0  0  0  0  0
    8.1255    9.2363    2.8920 C   0  0  0  0  0  0  0  0  0  0  0  0
    7.8312    9.8861    1.8529 O   0  0  0  0  0  0  0  0  0  0  0  0
    7.1325    8.9077    3.8754 N   0  0  0  0  0  0  0  0  0  0  0  0
    5.7218    9.2000    3.8190 C   0  0  0  0  0  0  0  0  0  0  0  0
    5.0779    9.6126    4.9955 C   0  0  0  0  0  0  0  0  0  0  0  0
    3.7169    9.9122    4.9885 C   0  0  0  0  0  0  0  0  0  0  0  0
    2.9988    9.7983    3.8002 C   0  0  0  0  0  0  0  0  0  0  0  0
    3.6244    9.3990    2.6654 N   0  0  0  0  0  0  0  0  0  0  0  0
    4.9472    9.1006    2.6417 C   0  0  0  0  0  0  0  0  0  0  0  0
   10.4584   10.0657    3.0939 C   0  0  0  0  0  0  0  0  0  0  0  0
   11.9679    9.7768    2.9916 C   0  0  0  0  0  0  0  0  0  0  0  0
  1  2  1  0
  2  3  1  0
  2  4  1  0
  4  5  1  0
  5  6  1  0
  6  7  1  0
  7  8  1  0
  8  9  2  0
  8 10  1  0
 10 11  1  0
 11 12  2  0
 12 13  1  0
 13 14  2  0
 14 15  1  0
 15 16  2  0
  7 17  1  0
 17 18  1  0
 18  4  1  0
 16 11  1  0
M  CHG  1   3   1
M  END
>  <EmbedRMS>  (198) 
0.16496192233382964

>  <Gold.Version>  (198) 
2020.3.0

>  <Gold.Id.Protein>  (198) 
unknown|1q8t_protein|pdb

>  <Gold.PLP.Fitness>  (198) 
52.2388

>  <Gold.PLP.PLP>  (198) 
-42.8798

>  <Gold.PLP.part.hbond>  (198) 
-2.0000

>  <Gold.PLP.part.metal>  (198) 
0.0000

>  <Gold.PLP.part.buried>  (198) 
-2.7815

>  <Gold.PLP.part.nonpolar>  (198) 
-38.1508

>  <Gold.PLP.part.repulsive>  (198) 
0.1370

>  <Gold.PLP.ligand.clash>  (198) 
0.0000

>  <Gold.PLP.ligand.torsion>  (198) 
1.5605

>  <Gold.PLP.Chemscore.Hbond>  (198) 
3.0000

>  <Gold.PLP.Chemscore.CHOScore>  (198) 
0.9727

>  <Gold.PLP.Chemscore.Metal>  (198) 
0.0000

>  <Gold.Chemscore.Hbonds>  (198) 
donor molecule, donor type, donor heavy atom, donor atom, acceptor molecule, acceptor atom, score
      L1  H     3    23       P1  2691  1.00
      L1  H     3    25       P1  2902  2.00
      L1  C    14    35       P1  1855  0.97

>  <Gold.PLP.Chemscore.Internal.Correction>  (198) 
0.5620

>  <Gold.PLP.Constraint>  (198) 
-0.0000

>  <Gold.Protein.RotatedTorsions>  (198) 
[  681  677  676  673 ] final  167.89 input -179.99 | X-H torsion
[  702  698  697  694 ] final   50.41 input  179.99 | X-H torsion
[ 2577 2569 2568 2566 ] final  142.71 input   -0.13 | X-H torsion
[ 2891 2887 2886 2883 ] final   50.30 input  179.98 | X-H torsion
[ 3175 3171 3170 3167 ] final   47.62 input -179.99 | X-H torsion
[ 5278 5270 5269 5267 ] final  155.54 input    0.55 | X-H torsion
[  641  637  636  633 ] final    4.58 input  179.99 | X-H torsion
[ 1886 1878 1877 1875 ] final -176.44 input    1.60 | X-H torsion
[  965  957  956  954 ] final  119.43 input    0.45 | X-H torsion

>  <Gold.Protein.ActiveResidues>  (198) 
 LYS47   THR48   LEU49   GLY50   THR51   GLY52   SER53   PHE54   GLY55   ARG56  
 VAL57   MET58   LEU59   TYR69   ALA70   MET71   LYS72   ILE73   LEU74   GLU91  
 LEU95   VAL104  LYS105  MET118  VAL119  MET120  GLU121  TYR122  VAL123  PRO124 
 GLY125  GLY126  GLU127  MET128  PHE129  TYR164  ASP166  LEU167  LYS168  PRO169 
 GLU170  ASN171  LEU172  LEU173  ILE174  GLN181  VAL182  THR183  ASP184  PHE185 
 GLY186  PHE187  GLY200  THR201  ASN326  PHE327  TYR330  ARG18   ARG19   ASN20  
 ALA21   ILE22   HIS23  

>  <Gold.Protein.RotatedAtoms>  (198) 
    9.5776   19.3533    7.9795 H   0  0  0  0  0  0  0  0  0  0  0  0  # atno 641  bound_to 637 
   17.1076   13.8440    6.8848 H   0  0  0  0  0  0  0  0  0  0  0  0  # atno 681  bound_to 677 
   19.3891   11.8587   -1.3953 H   0  0  0  0  0  0  0  0  0  0  0  0  # atno 702  bound_to 698 
   -7.1624   16.4963   -0.0043 H   0  0  0  0  0  0  0  0  0  0  0  0  # atno 965  bound_to 957 
    0.6179   11.4842   11.0566 H   0  0  0  0  0  0  0  0  0  0  0  0  # atno 1886 bound_to 1878
   10.0316    1.9046   -2.4028 H   0  0  0  0  0  0  0  0  0  0  0  0  # atno 2577 bound_to 2569
    8.3401    6.1374    0.2293 H   0  0  0  0  0  0  0  0  0  0  0  0  # atno 2891 bound_to 2887
   18.5799    2.3211   -1.3946 H   0  0  0  0  0  0  0  0  0  0  0  0  # atno 3175 bound_to 3171
   14.2234   10.1683    9.0646 H   0  0  0  0  0  0  0  0  0  0  0  0  # atno 5278 bound_to 5270
   16.5081   12.6171    6.0655 LP  0  0  0  0  0  0  0  0  0  0  0  0  # atno 5914 bound_to 677 
   15.6598   13.3092    7.2772 LP  0  0  0  0  0  0  0  0  0  0  0  0  # atno 5915 bound_to 677 
   20.4375   11.6333   -0.2173 LP  0  0  0  0  0  0  0  0  0  0  0  0  # atno 5920 bound_to 698 
   20.9096   11.5797   -1.7796 LP  0  0  0  0  0  0  0  0  0  0  0  0  # atno 5921 bound_to 698 
    9.4500    3.1116   -3.2631 LP  0  0  0  0  0  0  0  0  0  0  0  0  # atno 5950 bound_to 2569
   11.0580    2.9472   -3.0311 LP  0  0  0  0  0  0  0  0  0  0  0  0  # atno 5951 bound_to 2569
    7.3976    5.2189    1.1264 LP  0  0  0  0  0  0  0  0  0  0  0  0  # atno 5982 bound_to 2887
    7.4997    6.8267    1.3933 LP  0  0  0  0  0  0  0  0  0  0  0  0  # atno 5983 bound_to 2887
   19.3228    3.0509   -0.1900 LP  0  0  0  0  0  0  0  0  0  0  0  0  # atno 6000 bound_to 3171
   18.0118    2.1151    0.0787 LP  0  0  0  0  0  0  0  0  0  0  0  0  # atno 6001 bound_to 3171
   12.6484   10.0804    9.2847 LP  0  0  0  0  0  0  0  0  0  0  0  0  # atno 6004 bound_to 5270
   13.6830    9.7881   10.5138 LP  0  0  0  0  0  0  0  0  0  0  0  0  # atno 6005 bound_to 5270
   11.0068   18.9865    7.3812 LP  0  0  0  0  0  0  0  0  0  0  0  0  # atno 6055 bound_to 637 
   10.8708   19.7326    8.8274 LP  0  0  0  0  0  0  0  0  0  0  0  0  # atno 6056 bound_to 637 
    1.9662   12.1996   10.6031 LP  0  0  0  0  0  0  0  0  0  0  0  0  # atno 6063 bound_to 1878
    1.7686   10.5895   10.4157 LP  0  0  0  0  0  0  0  0  0  0  0  0  # atno 6064 bound_to 1878
   -6.7246   15.3594   -1.0295 LP  0  0  0  0  0  0  0  0  0  0  0  0  # atno 6067 bound_to 957 
   -6.5402   16.9387   -1.4015 LP  0  0  0  0  0  0  0  0  0  0  0  0  # atno 6068 bound_to 957 

>  <STRIFE_LigEff_Score>  (198) 
2.9021555555555554

$$$$
unknown|pharmsElabsTestPreDocking|sdf|199|dock10
     RDKit          3D

 19 20  0  0  0  0  0  0  0  0999 V2000
   15.0439    7.0770    3.1558 C   0  0  0  0  0  0  0  0  0  0  0  0
   13.7491    7.2435    2.3620 C   0  0  0  0  0  0  0  0  0  0  0  0
   13.8802    8.2345    1.2919 N   0  0  0  0  0  0  0  0  0  0  0  0
   12.4189    7.3859    3.1422 C   0  0  0  0  0  0  0  0  0  0  0  0
   11.1719    7.1051    2.2913 C   0  0  0  0  0  0  0  0  0  0  0  0
    9.8549    7.6481    2.8209 C   0  0  0  0  0  0  0  0  0  0  0  0
    9.9878    9.0328    3.4028 C   0  0  0  0  0  0  0  0  0  0  0  0
    8.6774    9.7253    3.6367 C   0  0  0  0  0  0  0  0  0  0  0  0
    8.1719   10.2513    2.6149 O   0  0  0  0  0  0  0  0  0  0  0  0
    7.9872    9.8443    4.8934 N   0  0  0  0  0  0  0  0  0  0  0  0
    6.7671   10.6656    4.9411 C   0  0  0  0  0  0  0  0  0  0  0  0
    5.6088    9.9935    4.2686 C   0  0  0  0  0  0  0  0  0  0  0  0
    4.6777    9.2669    5.0268 C   0  0  0  0  0  0  0  0  0  0  0  0
    3.5891    8.6540    4.4007 C   0  0  0  0  0  0  0  0  0  0  0  0
    3.4236    8.7651    3.0173 C   0  0  0  0  0  0  0  0  0  0  0  0
    4.3488    9.4863    2.2570 C   0  0  0  0  0  0  0  0  0  0  0  0
    5.4389   10.1006    2.8794 C   0  0  0  0  0  0  0  0  0  0  0  0
   11.0623    9.2260    4.4358 C   0  0  0  0  0  0  0  0  0  0  0  0
   12.4171    8.7015    3.9653 C   0  0  0  0  0  0  0  0  0  0  0  0
  1  2  1  0
  2  3  1  0
  2  4  1  0
  4  5  1  0
  5  6  1  0
  6  7  1  0
  7  8  1  0
  8  9  2  0
  8 10  1  0
 10 11  1  0
 11 12  1  0
 12 13  2  0
 13 14  1  0
 14 15  2  0
 15 16  1  0
 16 17  2  0
  7 18  1  0
 18 19  1  0
 19  4  1  0
 17 12  1  0
M  CHG  1   3   1
M  END
>  <EmbedRMS>  (199) 
0.2846631031672363

>  <Gold.Version>  (199) 
2020.3.0

>  <Gold.Id.Protein>  (199) 
unknown|1q8t_protein|pdb

>  <Gold.PLP.Fitness>  (199) 
52.5109

>  <Gold.PLP.PLP>  (199) 
-48.0642

>  <Gold.PLP.part.hbond>  (199) 
-1.0000

>  <Gold.PLP.part.metal>  (199) 
0.0000

>  <Gold.PLP.part.buried>  (199) 
-1.9248

>  <Gold.PLP.part.nonpolar>  (199) 
-45.3296

>  <Gold.PLP.part.repulsive>  (199) 
0.0099

>  <Gold.PLP.ligand.clash>  (199) 
0.0016

>  <Gold.PLP.ligand.torsion>  (199) 
1.0668

>  <Gold.PLP.Chemscore.Hbond>  (199) 
1.9840

>  <Gold.PLP.Chemscore.CHOScore>  (199) 
0.0000

>  <Gold.PLP.Chemscore.Metal>  (199) 
0.0000

>  <Gold.Chemscore.Hbonds>  (199) 
donor molecule, donor type, donor heavy atom, donor atom, acceptor molecule, acceptor atom, score
      L1  H     3    26       P1  2902  1.98

>  <Gold.PLP.Chemscore.Internal.Correction>  (199) 
0.6298

>  <Gold.PLP.Constraint>  (199) 
-0.0000

>  <Gold.Protein.RotatedTorsions>  (199) 
[  681  677  676  673 ] final -158.33 input -179.99 | X-H torsion
[  702  698  697  694 ] final  -92.74 input  179.99 | X-H torsion
[ 2577 2569 2568 2566 ] final  -80.18 input   -0.13 | X-H torsion
[ 2891 2887 2886 2883 ] final  -62.15 input  179.98 | X-H torsion
[ 3175 3171 3170 3167 ] final  -26.90 input -179.99 | X-H torsion
[ 5278 5270 5269 5267 ] final -120.70 input    0.55 | X-H torsion
[  641  637  636  633 ] final  -55.46 input  179.99 | X-H torsion
[ 1886 1878 1877 1875 ] final  -99.21 input    1.60 | X-H torsion
[  965  957  956  954 ] final   48.83 input    0.45 | X-H torsion

>  <Gold.Protein.ActiveResidues>  (199) 
 LYS47   THR48   LEU49   GLY50   THR51   GLY52   SER53   PHE54   GLY55   ARG56  
 VAL57   MET58   LEU59   TYR69   ALA70   MET71   LYS72   ILE73   LEU74   GLU91  
 LEU95   VAL104  LYS105  MET118  VAL119  MET120  GLU121  TYR122  VAL123  PRO124 
 GLY125  GLY126  GLU127  MET128  PHE129  TYR164  ASP166  LEU167  LYS168  PRO169 
 GLU170  ASN171  LEU172  LEU173  ILE174  GLN181  VAL182  THR183  ASP184  PHE185 
 GLY186  PHE187  GLY200  THR201  ASN326  PHE327  TYR330  ARG18   ARG19   ASN20  
 ALA21   ILE22   HIS23  

>  <Gold.Protein.RotatedAtoms>  (199) 
   10.0884   18.9961    7.3359 H   0  0  0  0  0  0  0  0  0  0  0  0  # atno 641  bound_to 637 
   16.7350   13.9589    7.2295 H   0  0  0  0  0  0  0  0  0  0  0  0  # atno 681  bound_to 677 
   20.7523   11.5981   -0.4125 H   0  0  0  0  0  0  0  0  0  0  0  0  # atno 702  bound_to 698 
   -7.0194   15.5276   -0.3388 H   0  0  0  0  0  0  0  0  0  0  0  0  # atno 965  bound_to 957 
    1.1464   10.5787   10.6692 H   0  0  0  0  0  0  0  0  0  0  0  0  # atno 1886 bound_to 1878
   10.8853    3.1092   -3.1766 H   0  0  0  0  0  0  0  0  0  0  0  0  # atno 2577 bound_to 2569
    7.4701    5.2208    1.0175 H   0  0  0  0  0  0  0  0  0  0  0  0  # atno 2891 bound_to 2887
   19.3198    2.9349   -0.8925 H   0  0  0  0  0  0  0  0  0  0  0  0  # atno 3175 bound_to 3171
   14.1699    9.8816   10.2249 H   0  0  0  0  0  0  0  0  0  0  0  0  # atno 5278 bound_to 5270
   16.9747   12.9040    6.0608 LP  0  0  0  0  0  0  0  0  0  0  0  0  # atno 5914 bound_to 677 
   15.5854   12.9015    6.9190 LP  0  0  0  0  0  0  0  0  0  0  0  0  # atno 5915 bound_to 677 
   20.6063   11.6377   -1.9982 LP  0  0  0  0  0  0  0  0  0  0  0  0  # atno 5920 bound_to 698 
   19.3067   11.8495   -1.0325 LP  0  0  0  0  0  0  0  0  0  0  0  0  # atno 5921 bound_to 698 
   10.3028    1.8816   -2.3466 LP  0  0  0  0  0  0  0  0  0  0  0  0  # atno 5950 bound_to 2569
    9.3063    2.9089   -3.1329 LP  0  0  0  0  0  0  0  0  0  0  0  0  # atno 5951 bound_to 2569
    7.4272    6.7504    1.4590 LP  0  0  0  0  0  0  0  0  0  0  0  0  # atno 5982 bound_to 2887
    8.3857    6.2600    0.2312 LP  0  0  0  0  0  0  0  0  0  0  0  0  # atno 5983 bound_to 2887
   18.5091    2.5276    0.4161 LP  0  0  0  0  0  0  0  0  0  0  0  0  # atno 6000 bound_to 3171
   18.0468    1.9924   -1.0558 LP  0  0  0  0  0  0  0  0  0  0  0  0  # atno 6001 bound_to 3171
   13.7656   10.2303    8.7243 LP  0  0  0  0  0  0  0  0  0  0  0  0  # atno 6004 bound_to 5270
   12.6222    9.9399    9.8534 LP  0  0  0  0  0  0  0  0  0  0  0  0  # atno 6005 bound_to 5270
   11.4079   19.3570    8.1505 LP  0  0  0  0  0  0  0  0  0  0  0  0  # atno 6055 bound_to 637 
    9.9318   19.7383    8.7358 LP  0  0  0  0  0  0  0  0  0  0  0  0  # atno 6056 bound_to 637 
    0.8872   12.0999   11.0618 LP  0  0  0  0  0  0  0  0  0  0  0  0  # atno 6063 bound_to 1878
    2.2913   11.6425   10.3648 LP  0  0  0  0  0  0  0  0  0  0  0  0  # atno 6064 bound_to 1878
   -6.4313   16.2011   -1.6562 LP  0  0  0  0  0  0  0  0  0  0  0  0  # atno 6067 bound_to 957 
   -6.9840   17.1172   -0.4225 LP  0  0  0  0  0  0  0  0  0  0  0  0  # atno 6068 bound_to 957 

>  <STRIFE_LigEff_Score>  (199) 
2.763731578947368

$$$$
unknown|pharmsElabsTestPreDocking|sdf|200|dock2
     RDKit          3D

 18 19  0  0  0  0  0  0  0  0999 V2000
   14.2132    8.8562    1.5684 C   0  0  0  0  0  0  0  0  0  0  0  0
   13.4497    7.9608    2.5291 C   0  0  0  0  0  0  0  0  0  0  0  0
   13.7952    6.5463    2.4669 N   0  0  0  0  0  0  0  0  0  0  0  0
   11.9565    8.3190    2.7820 C   0  0  0  0  0  0  0  0  0  0  0  0
   11.1556    7.4645    3.7808 C   0  0  0  0  0  0  0  0  0  0  0  0
    9.6601    7.6848    3.5016 C   0  0  0  0  0  0  0  0  0  0  0  0
    9.2918    9.1737    3.6440 C   0  0  0  0  0  0  0  0  0  0  0  0
    7.8472    9.3973    3.3021 C   0  0  0  0  0  0  0  0  0  0  0  0
    7.5313    9.8688    2.1757 O   0  0  0  0  0  0  0  0  0  0  0  0
    6.8519    9.0932    4.2859 N   0  0  0  0  0  0  0  0  0  0  0  0
    5.4390    9.2281    4.1080 C   0  0  0  0  0  0  0  0  0  0  0  0
    4.8193    9.2812    2.8791 C   0  0  0  0  0  0  0  0  0  0  0  0
    3.4885    9.4035    3.2117 C   0  0  0  0  0  0  0  0  0  0  0  0
    2.4144    9.4978    2.2829 N   0  0  0  0  0  0  0  0  0  0  0  0
    3.3212    9.4221    4.5467 N   0  0  0  0  0  0  0  0  0  0  0  0
    4.5192    9.3147    5.0925 N   0  0  0  0  0  0  0  0  0  0  0  0
   10.1888   10.0985    2.7992 C   0  0  0  0  0  0  0  0  0  0  0  0
   11.6773    9.8106    3.0371 C   0  0  0  0  0  0  0  0  0  0  0  0
  1  2  1  0
  2  3  1  0
  2  4  1  0
  4  5  1  0
  5  6  1  0
  6  7  1  0
  7  8  1  0
  8  9  2  0
  8 10  1  0
 10 11  1  0
 11 12  2  0
 12 13  1  0
 13 14  1  0
 13 15  2  0
 15 16  1  0
  7 17  1  0
 17 18  1  0
 18  4  1  0
 16 11  1  0
M  CHG  1   3   1
M  END
>  <EmbedRMS>  (200) 
0.18315233489621047

>  <Gold.Version>  (200) 
2020.3.0

>  <Gold.Id.Protein>  (200) 
unknown|1q8t_protein|pdb

>  <Gold.PLP.Fitness>  (200) 
40.3878

>  <Gold.PLP.PLP>  (200) 
-34.7066

>  <Gold.PLP.part.hbond>  (200) 
-1.6067

>  <Gold.PLP.part.metal>  (200) 
0.0000

>  <Gold.PLP.part.buried>  (200) 
-7.6820

>  <Gold.PLP.part.nonpolar>  (200) 
-26.3624

>  <Gold.PLP.part.repulsive>  (200) 
0.3708

>  <Gold.PLP.ligand.clash>  (200) 
0.0000

>  <Gold.PLP.ligand.torsion>  (200) 
0.8705

>  <Gold.PLP.Chemscore.Hbond>  (200) 
2.3510

>  <Gold.PLP.Chemscore.CHOScore>  (200) 
0.0000

>  <Gold.PLP.Chemscore.Metal>  (200) 
0.0000

>  <Gold.Chemscore.Hbonds>  (200) 
donor molecule, donor type, donor heavy atom, donor atom, acceptor molecule, acceptor atom, score
      L1  H     3    25       P1  2691  1.00
      L1  H    14    35       P1  1855  0.35
      P1  H  1888  1903       L1    15  1.00

>  <Gold.PLP.Chemscore.Internal.Correction>  (200) 
0.3692

>  <Gold.PLP.Constraint>  (200) 
-0.0000

>  <Gold.Protein.RotatedTorsions>  (200) 
[  681  677  676  673 ] final  -97.89 input -179.99 | X-H torsion
[  702  698  697  694 ] final  -21.99 input  179.99 | X-H torsion
[ 2577 2569 2568 2566 ] final  -73.80 input   -0.13 | X-H torsion
[ 2891 2887 2886 2883 ] final   46.14 input  179.98 | X-H torsion
[ 3175 3171 3170 3167 ] final   89.36 input -179.99 | X-H torsion
[ 5278 5270 5269 5267 ] final   36.61 input    0.55 | X-H torsion
[  641  637  636  633 ] final   20.01 input  179.99 | X-H torsion
[ 1886 1878 1877 1875 ] final  -99.81 input    1.60 | X-H torsion
[  965  957  956  954 ] final  -95.20 input    0.45 | X-H torsion

>  <Gold.Protein.ActiveResidues>  (200) 
 LYS47   THR48   LEU49   GLY50   THR51   GLY52   SER53   PHE54   GLY55   ARG56  
 VAL57   MET58   LEU59   TYR69   ALA70   MET71   LYS72   ILE73   LEU74   GLU91  
 LEU95   VAL104  LYS105  MET118  VAL119  MET120  GLU121  TYR122  VAL123  PRO124 
 GLY125  GLY126  GLU127  MET128  PHE129  TYR164  ASP166  LEU167  LYS168  PRO169 
 GLU170  ASN171  LEU172  LEU173  ILE174  GLN181  VAL182  THR183  ASP184  PHE185 
 GLY186  PHE187  GLY200  THR201  ASN326  PHE327  TYR330  ARG18   ARG19   ASN20  
 ALA21   ILE22   HIS23  

>  <Gold.Protein.RotatedAtoms>  (200) 
    9.5899   19.4619    8.1935 H   0  0  0  0  0  0  0  0  0  0  0  0  # atno 641  bound_to 637 
   15.9188   13.6106    7.3899 H   0  0  0  0  0  0  0  0  0  0  0  0  # atno 681  bound_to 677 
   19.7306   11.7789   -0.3964 H   0  0  0  0  0  0  0  0  0  0  0  0  # atno 702  bound_to 698 
   -6.4543   16.5736   -1.5584 H   0  0  0  0  0  0  0  0  0  0  0  0  # atno 965  bound_to 957 
    1.1383   10.5814   10.6732 H   0  0  0  0  0  0  0  0  0  0  0  0  # atno 1886 bound_to 1878
   10.8203    3.1688   -3.2228 H   0  0  0  0  0  0  0  0  0  0  0  0  # atno 2577 bound_to 2569
    8.3345    6.0731    0.2204 H   0  0  0  0  0  0  0  0  0  0  0  0  # atno 2891 bound_to 2887
   18.1174    2.0206   -1.0735 H   0  0  0  0  0  0  0  0  0  0  0  0  # atno 3175 bound_to 3171
   12.6980   10.0969    9.2897 H   0  0  0  0  0  0  0  0  0  0  0  0  # atno 5278 bound_to 5270
   17.2921   13.6297    6.5837 LP  0  0  0  0  0  0  0  0  0  0  0  0  # atno 5914 bound_to 677 
   16.1270   12.5423    6.2274 LP  0  0  0  0  0  0  0  0  0  0  0  0  # atno 5915 bound_to 677 
   21.1551   11.5224   -1.0617 LP  0  0  0  0  0  0  0  0  0  0  0  0  # atno 5920 bound_to 698 
   19.8327   11.7746   -1.9860 LP  0  0  0  0  0  0  0  0  0  0  0  0  # atno 5921 bound_to 698 
   10.4056    1.9014   -2.3528 LP  0  0  0  0  0  0  0  0  0  0  0  0  # atno 5950 bound_to 2569
    9.2720    2.8263   -3.0781 LP  0  0  0  0  0  0  0  0  0  0  0  0  # atno 5951 bound_to 2569
    7.3615    5.2500    1.1756 LP  0  0  0  0  0  0  0  0  0  0  0  0  # atno 5982 bound_to 2887
    7.5417    6.8633    1.3534 LP  0  0  0  0  0  0  0  0  0  0  0  0  # atno 5983 bound_to 2887
   19.3609    2.9917   -0.8579 LP  0  0  0  0  0  0  0  0  0  0  0  0  # atno 6000 bound_to 3171
   18.4604    2.4906    0.4088 LP  0  0  0  0  0  0  0  0  0  0  0  0  # atno 6001 bound_to 3171
   13.6656    9.7872   10.5164 LP  0  0  0  0  0  0  0  0  0  0  0  0  # atno 6004 bound_to 5270
   14.2708   10.1564    9.0453 LP  0  0  0  0  0  0  0  0  0  0  0  0  # atno 6005 bound_to 5270
   10.7817   18.9441    7.2735 LP  0  0  0  0  0  0  0  0  0  0  0  0  # atno 6055 bound_to 637 
   11.0830   19.6606    8.7096 LP  0  0  0  0  0  0  0  0  0  0  0  0  # atno 6056 bound_to 637 
    0.8942   12.1066   11.0599 LP  0  0  0  0  0  0  0  0  0  0  0  0  # atno 6063 bound_to 1878
    2.2928   11.6331   10.3625 LP  0  0  0  0  0  0  0  0  0  0  0  0  # atno 6064 bound_to 1878
   -7.1143   16.8761   -0.1414 LP  0  0  0  0  0  0  0  0  0  0  0  0  # atno 6067 bound_to 957 
   -6.8961   15.3407   -0.6529 LP  0  0  0  0  0  0  0  0  0  0  0  0  # atno 6068 bound_to 957 

>  <STRIFE_LigEff_Score>  (200) 
2.2437666666666667

$$$$
unknown|pharmsElabsTestPreDocking|sdf|201|dock7
     RDKit          3D

 19 20  0  0  0  0  0  0  0  0999 V2000
   13.8150    9.0492    1.4014 C   0  0  0  0  0  0  0  0  0  0  0  0
   13.5061    8.1365    2.5870 C   0  0  0  0  0  0  0  0  0  0  0  0
   13.9573    6.7621    2.3591 N   0  0  0  0  0  0  0  0  0  0  0  0
   12.0929    8.1995    3.2177 C   0  0  0  0  0  0  0  0  0  0  0  0
   11.1200    7.1522    2.6567 C   0  0  0  0  0  0  0  0  0  0  0  0
    9.6393    7.4225    2.8676 C   0  0  0  0  0  0  0  0  0  0  0  0
    9.2764    8.8717    2.6625 C   0  0  0  0  0  0  0  0  0  0  0  0
    7.8015    9.1212    2.5437 C   0  0  0  0  0  0  0  0  0  0  0  0
    7.0766    8.1476    2.8644 O   0  0  0  0  0  0  0  0  0  0  0  0
    7.1754   10.3355    2.0926 N   0  0  0  0  0  0  0  0  0  0  0  0
    5.7118   10.3509    1.9422 C   0  0  0  0  0  0  0  0  0  0  0  0
    5.0138   10.0084    3.2195 C   0  0  0  0  0  0  0  0  0  0  0  0
    5.3131   10.5115    4.4653 C   0  0  0  0  0  0  0  0  0  0  0  0
    4.4478   10.0016    5.3661 N   0  0  0  0  0  0  0  0  0  0  0  0
    3.6376    9.1972    4.6442 C   0  0  0  0  0  0  0  0  0  0  0  0
    3.9551    9.1882    3.3358 N   0  0  0  0  0  0  0  0  0  0  0  0
    3.2999    8.4218    2.2818 C   0  0  0  0  0  0  0  0  0  0  0  0
   10.0853    9.8804    3.4290 C   0  0  0  0  0  0  0  0  0  0  0  0
   11.5878    9.6662    3.2583 C   0  0  0  0  0  0  0  0  0  0  0  0
  1  2  1  0
  2  3  1  0
  2  4  1  0
  4  5  1  0
  5  6  1  0
  6  7  1  0
  7  8  1  0
  8  9  2  0
  8 10  1  0
 10 11  1  0
 11 12  1  0
 12 13  2  0
 13 14  1  0
 14 15  2  0
 15 16  1  0
 16 17  1  0
  7 18  1  0
 18 19  1  0
 19  4  1  0
 16 12  1  0
M  CHG  1   3   1
M  END
>  <EmbedRMS>  (201) 
0.28482549143865477

>  <Gold.Version>  (201) 
2020.3.0

>  <Gold.Id.Protein>  (201) 
unknown|1q8t_protein|pdb

>  <Gold.PLP.Fitness>  (201) 
51.9875

>  <Gold.PLP.PLP>  (201) 
-44.0621

>  <Gold.PLP.part.hbond>  (201) 
-2.0000

>  <Gold.PLP.part.metal>  (201) 
0.0000

>  <Gold.PLP.part.buried>  (201) 
-0.9959

>  <Gold.PLP.part.nonpolar>  (201) 
-41.6767

>  <Gold.PLP.part.repulsive>  (201) 
0.0906

>  <Gold.PLP.ligand.clash>  (201) 
0.0000

>  <Gold.PLP.ligand.torsion>  (201) 
0.8645

>  <Gold.PLP.Chemscore.Hbond>  (201) 
2.0000

>  <Gold.PLP.Chemscore.CHOScore>  (201) 
1.0000

>  <Gold.PLP.Chemscore.Metal>  (201) 
0.0000

>  <Gold.Chemscore.Hbonds>  (201) 
donor molecule, donor type, donor heavy atom, donor atom, acceptor molecule, acceptor atom, score
      L1  H     3    24       P1  2691  1.00
      P1  H  2887  2891       L1     9  1.00
      L1  C    15    37       P1  1891  1.00

>  <Gold.PLP.Chemscore.Internal.Correction>  (201) 
0.6542

>  <Gold.PLP.Constraint>  (201) 
-0.0000

>  <Gold.Protein.RotatedTorsions>  (201) 
[  681  677  676  673 ] final   -0.68 input -179.99 | X-H torsion
[  702  698  697  694 ] final  -45.54 input  179.99 | X-H torsion
[ 2577 2569 2568 2566 ] final   13.24 input   -0.13 | X-H torsion
[ 2891 2887 2886 2883 ] final  168.90 input  179.98 | X-H torsion
[ 3175 3171 3170 3167 ] final  -57.21 input -179.99 | X-H torsion
[ 5278 5270 5269 5267 ] final   45.24 input    0.55 | X-H torsion
[  641  637  636  633 ] final  177.12 input  179.99 | X-H torsion
[ 1886 1878 1877 1875 ] final   14.97 input    1.60 | X-H torsion
[  965  957  956  954 ] final -131.20 input    0.45 | X-H torsion

>  <Gold.Protein.ActiveResidues>  (201) 
 LYS47   THR48   LEU49   GLY50   THR51   GLY52   SER53   PHE54   GLY55   ARG56  
 VAL57   MET58   LEU59   TYR69   ALA70   MET71   LYS72   ILE73   LEU74   GLU91  
 LEU95   VAL104  LYS105  MET118  VAL119  MET120  GLU121  TYR122  VAL123  PRO124 
 GLY125  GLY126  GLU127  MET128  PHE129  TYR164  ASP166  LEU167  LYS168  PRO169 
 GLU170  ASN171  LEU172  LEU173  ILE174  GLN181  VAL182  THR183  ASP184  PHE185 
 GLY186  PHE187  GLY200  THR201  ASN326  PHE327  TYR330  ARG18   ARG19   ASN20  
 ALA21   ILE22   HIS23  

>  <Gold.Protein.RotatedAtoms>  (201) 
   11.3426   19.3954    8.2551 H   0  0  0  0  0  0  0  0  0  0  0  0  # atno 641  bound_to 637 
   15.8630   12.6399    6.4621 H   0  0  0  0  0  0  0  0  0  0  0  0  # atno 681  bound_to 677 
   20.0624   11.7174   -0.2552 H   0  0  0  0  0  0  0  0  0  0  0  0  # atno 702  bound_to 698 
   -6.5917   17.0102   -1.2474 H   0  0  0  0  0  0  0  0  0  0  0  0  # atno 965  bound_to 957 
    2.2515   11.5459   10.3469 H   0  0  0  0  0  0  0  0  0  0  0  0  # atno 1886 bound_to 1878
    9.5904    3.1693   -3.3133 H   0  0  0  0  0  0  0  0  0  0  0  0  # atno 2577 bound_to 2569
    7.5137    6.8033    1.3460 H   0  0  0  0  0  0  0  0  0  0  0  0  # atno 2891 bound_to 2887
   19.3554    3.0214   -0.4336 H   0  0  0  0  0  0  0  0  0  0  0  0  # atno 3175 bound_to 3171
   12.7573   10.1265    9.1723 H   0  0  0  0  0  0  0  0  0  0  0  0  # atno 5278 bound_to 5270
   16.2013   13.8331    7.4611 LP  0  0  0  0  0  0  0  0  0  0  0  0  # atno 5914 bound_to 677 
   17.2766   13.3606    6.3265 LP  0  0  0  0  0  0  0  0  0  0  0  0  # atno 5915 bound_to 677 
   21.1083   11.5380   -1.4432 LP  0  0  0  0  0  0  0  0  0  0  0  0  # atno 5920 bound_to 698 
   19.5306   11.8237   -1.7530 LP  0  0  0  0  0  0  0  0  0  0  0  0  # atno 5921 bound_to 698 
   11.1005    2.8256   -2.9436 LP  0  0  0  0  0  0  0  0  0  0  0  0  # atno 5950 bound_to 2569
    9.8722    1.9016   -2.3920 LP  0  0  0  0  0  0  0  0  0  0  0  0  # atno 5951 bound_to 2569
    8.3818    6.1159    0.2013 LP  0  0  0  0  0  0  0  0  0  0  0  0  # atno 5982 bound_to 2887
    7.3853    5.2289    1.1431 LP  0  0  0  0  0  0  0  0  0  0  0  0  # atno 5983 bound_to 2887
   18.1478    2.2379    0.2472 LP  0  0  0  0  0  0  0  0  0  0  0  0  # atno 6000 bound_to 3171
   18.3706    2.1911   -1.3698 LP  0  0  0  0  0  0  0  0  0  0  0  0  # atno 6001 bound_to 3171
   13.5241    9.7835   10.5255 LP  0  0  0  0  0  0  0  0  0  0  0  0  # atno 6004 bound_to 5270
   14.3499   10.1290    9.1598 LP  0  0  0  0  0  0  0  0  0  0  0  0  # atno 6005 bound_to 5270
    9.8364   19.7079    8.6658 LP  0  0  0  0  0  0  0  0  0  0  0  0  # atno 6055 bound_to 637 
   10.1824   18.9668    7.2524 LP  0  0  0  0  0  0  0  0  0  0  0  0  # atno 6056 bound_to 637 
    1.0575   10.5627   10.7246 LP  0  0  0  0  0  0  0  0  0  0  0  0  # atno 6063 bound_to 1878
    0.9576   12.1615   11.0413 LP  0  0  0  0  0  0  0  0  0  0  0  0  # atno 6064 bound_to 1878
   -7.2093   16.3361    0.0562 LP  0  0  0  0  0  0  0  0  0  0  0  0  # atno 6067 bound_to 957 
   -6.6564   15.4208   -1.1780 LP  0  0  0  0  0  0  0  0  0  0  0  0  # atno 6068 bound_to 957 

>  <STRIFE_LigEff_Score>  (201) 
2.7361842105263157

$$$$
unknown|pharmsElabsTestPreDocking|sdf|202|dock3
     RDKit          3D

 19 20  0  0  0  0  0  0  0  0999 V2000
   14.7425    8.9393    1.7167 C   0  0  0  0  0  0  0  0  0  0  0  0
   13.7521    7.7872    1.7050 C   0  0  0  0  0  0  0  0  0  0  0  0
   14.1063    6.6850    0.8170 N   0  0  0  0  0  0  0  0  0  0  0  0
   12.2402    8.1526    1.8270 C   0  0  0  0  0  0  0  0  0  0  0  0
   11.2386    7.0038    2.0245 C   0  0  0  0  0  0  0  0  0  0  0  0
    9.7947    7.4691    1.7445 C   0  0  0  0  0  0  0  0  0  0  0  0
    9.5646    8.9699    1.9411 C   0  0  0  0  0  0  0  0  0  0  0  0
    8.1327    9.4079    1.8431 C   0  0  0  0  0  0  0  0  0  0  0  0
    7.6108    9.2749    0.7079 O   0  0  0  0  0  0  0  0  0  0  0  0
    7.3475    9.9748    2.9058 N   0  0  0  0  0  0  0  0  0  0  0  0
    5.9904   10.4489    2.5950 C   0  0  0  0  0  0  0  0  0  0  0  0
    4.9757    9.8973    3.5440 C   0  0  0  0  0  0  0  0  0  0  0  0
    5.0465   10.0558    4.8795 N   0  0  0  0  0  0  0  0  0  0  0  0
    3.9224    9.4353    5.3017 C   0  0  0  0  0  0  0  0  0  0  0  0
    3.1995    8.9258    4.2841 N   0  0  0  0  0  0  0  0  0  0  0  0
    3.8673    9.2257    3.1860 N   0  0  0  0  0  0  0  0  0  0  0  0
    3.4482    8.8525    1.8405 C   0  0  0  0  0  0  0  0  0  0  0  0
   10.4959    9.7838    2.8250 C   0  0  0  0  0  0  0  0  0  0  0  0
   11.9522    9.2718    2.8486 C   0  0  0  0  0  0  0  0  0  0  0  0
  1  2  1  0
  2  3  1  0
  2  4  1  0
  4  5  1  0
  5  6  1  0
  6  7  1  0
  7  8  1  0
  8  9  2  0
  8 10  1  0
 10 11  1  0
 11 12  1  0
 12 13  2  0
 13 14  1  0
 14 15  2  0
 15 16  1  0
 16 17  1  0
  7 18  1  0
 18 19  1  0
 19  4  1  0
 16 12  1  0
M  CHG  1   3   1
M  END
>  <EmbedRMS>  (202) 
0.24309368491659913

>  <Gold.Version>  (202) 
2020.3.0

>  <Gold.Id.Protein>  (202) 
unknown|1q8t_protein|pdb

>  <Gold.PLP.Fitness>  (202) 
53.6413

>  <Gold.PLP.PLP>  (202) 
-39.8210

>  <Gold.PLP.part.hbond>  (202) 
-3.6303

>  <Gold.PLP.part.metal>  (202) 
0.0000

>  <Gold.PLP.part.buried>  (202) 
0.1435

>  <Gold.PLP.part.nonpolar>  (202) 
-38.0481

>  <Gold.PLP.part.repulsive>  (202) 
0.2613

>  <Gold.PLP.ligand.clash>  (202) 
0.0000

>  <Gold.PLP.ligand.torsion>  (202) 
0.5773

>  <Gold.PLP.Chemscore.Hbond>  (202) 
3.8400

>  <Gold.PLP.Chemscore.CHOScore>  (202) 
0.8126

>  <Gold.PLP.Chemscore.Metal>  (202) 
0.0000

>  <Gold.Chemscore.Hbonds>  (202) 
donor molecule, donor type, donor heavy atom, donor atom, acceptor molecule, acceptor atom, score
      L1  H     3    25       P1  2902  2.00
      L1  H     3    26       P1  2691  0.98
      P1  H  1888  1903       L1    15  0.86
      L1  C    14    36       P1  1891  0.81

>  <Gold.PLP.Chemscore.Internal.Correction>  (202) 
1.0173

>  <Gold.PLP.Constraint>  (202) 
-0.0000

>  <Gold.Protein.RotatedTorsions>  (202) 
[  681  677  676  673 ] final  173.48 input -179.99 | X-H torsion
[  702  698  697  694 ] final   42.51 input  179.99 | X-H torsion
[ 2577 2569 2568 2566 ] final  -76.24 input   -0.13 | X-H torsion
[ 2891 2887 2886 2883 ] final   93.71 input  179.98 | X-H torsion
[ 3175 3171 3170 3167 ] final  -84.22 input -179.99 | X-H torsion
[ 5278 5270 5269 5267 ] final  152.99 input    0.55 | X-H torsion
[  641  637  636  633 ] final  -40.65 input  179.99 | X-H torsion
[ 1886 1878 1877 1875 ] final    9.93 input    1.60 | X-H torsion
[  965  957  956  954 ] final  122.56 input    0.45 | X-H torsion

>  <Gold.Protein.ActiveResidues>  (202) 
 LYS47   THR48   LEU49   GLY50   THR51   GLY52   SER53   PHE54   GLY55   ARG56  
 VAL57   MET58   LEU59   TYR69   ALA70   MET71   LYS72   ILE73   LEU74   GLU91  
 LEU95   VAL104  LYS105  MET118  VAL119  MET120  GLU121  TYR122  VAL123  PRO124 
 GLY125  GLY126  GLU127  MET128  PHE129  TYR164  ASP166  LEU167  LYS168  PRO169 
 GLU170  ASN171  LEU172  LEU173  ILE174  GLN181  VAL182  THR183  ASP184  PHE185 
 GLY186  PHE187  GLY200  THR201  ASN326  PHE327  TYR330  ARG18   ARG19   ASN20  
 ALA21   ILE22   HIS23  

>  <Gold.Protein.RotatedAtoms>  (202) 
    9.8941   19.0612    7.4422 H   0  0  0  0  0  0  0  0  0  0  0  0  # atno 641  bound_to 637 
   17.0591   13.8783    6.9488 H   0  0  0  0  0  0  0  0  0  0  0  0  # atno 681  bound_to 677 
   19.3615   11.8613   -1.2750 H   0  0  0  0  0  0  0  0  0  0  0  0  # atno 702  bound_to 698 
   -7.1563   16.5433   -0.0166 H   0  0  0  0  0  0  0  0  0  0  0  0  # atno 965  bound_to 957 
    2.2532   11.4685   10.3330 H   0  0  0  0  0  0  0  0  0  0  0  0  # atno 1886 bound_to 1878
   10.8461    3.1468   -3.2056 H   0  0  0  0  0  0  0  0  0  0  0  0  # atno 2577 bound_to 2569
    8.2166    6.7235    0.5128 H   0  0  0  0  0  0  0  0  0  0  0  0  # atno 2891 bound_to 2887
   19.2223    2.9744   -0.0398 H   0  0  0  0  0  0  0  0  0  0  0  0  # atno 3175 bound_to 3171
   14.1975   10.1753    9.0353 H   0  0  0  0  0  0  0  0  0  0  0  0  # atno 5278 bound_to 5270
   16.5915   12.6513    6.0477 LP  0  0  0  0  0  0  0  0  0  0  0  0  # atno 5914 bound_to 677 
   15.6275   13.2390    7.2276 LP  0  0  0  0  0  0  0  0  0  0  0  0  # atno 5915 bound_to 677 
   20.5597   11.6123   -0.2554 LP  0  0  0  0  0  0  0  0  0  0  0  0  # atno 5920 bound_to 698 
   20.8163   11.5980   -1.8680 LP  0  0  0  0  0  0  0  0  0  0  0  0  # atno 5921 bound_to 698 
   10.3666    1.8927   -2.3496 LP  0  0  0  0  0  0  0  0  0  0  0  0  # atno 5950 bound_to 2569
    9.2839    2.8583   -3.0994 LP  0  0  0  0  0  0  0  0  0  0  0  0  # atno 5951 bound_to 2569
    7.8474    5.1764    0.5952 LP  0  0  0  0  0  0  0  0  0  0  0  0  # atno 5982 bound_to 2887
    7.1799    6.2525    1.6262 LP  0  0  0  0  0  0  0  0  0  0  0  0  # atno 5983 bound_to 2887
   17.9355    2.0375   -0.0823 LP  0  0  0  0  0  0  0  0  0  0  0  0  # atno 6000 bound_to 3171
   18.7230    2.4410   -1.4547 LP  0  0  0  0  0  0  0  0  0  0  0  0  # atno 6001 bound_to 3171
   12.6345   10.0708    9.3230 LP  0  0  0  0  0  0  0  0  0  0  0  0  # atno 6004 bound_to 5270
   13.7241    9.7903   10.5065 LP  0  0  0  0  0  0  0  0  0  0  0  0  # atno 6005 bound_to 5270
   11.3970   19.2470    7.9340 LP  0  0  0  0  0  0  0  0  0  0  0  0  # atno 6055 bound_to 637 
   10.1473   19.7796    8.8403 LP  0  0  0  0  0  0  0  0  0  0  0  0  # atno 6056 bound_to 637 
    0.9908   10.5970   10.7598 LP  0  0  0  0  0  0  0  0  0  0  0  0  # atno 6063 bound_to 1878
    1.0225   12.2087   11.0207 LP  0  0  0  0  0  0  0  0  0  0  0  0  # atno 6064 bound_to 1878
   -6.7454   15.3472   -0.9839 LP  0  0  0  0  0  0  0  0  0  0  0  0  # atno 6067 bound_to 957 
   -6.5257   16.9015   -1.4341 LP  0  0  0  0  0  0  0  0  0  0  0  0  # atno 6068 bound_to 957 

>  <STRIFE_LigEff_Score>  (202) 
2.8232263157894737

$$$$
unknown|pharmsElabsTestPreDocking|sdf|203|dock7
     RDKit          3D

 18 19  0  0  0  0  0  0  0  0999 V2000
   14.5482    9.3866    1.1942 C   0  0  0  0  0  0  0  0  0  0  0  0
   13.7357    8.1619    1.5801 C   0  0  0  0  0  0  0  0  0  0  0  0
   14.0268    6.9637    0.8006 N   0  0  0  0  0  0  0  0  0  0  0  0
   12.2529    8.4009    1.9989 C   0  0  0  0  0  0  0  0  0  0  0  0
   11.5683    7.3232    2.8542 C   0  0  0  0  0  0  0  0  0  0  0  0
   10.0383    7.5072    2.8579 C   0  0  0  0  0  0  0  0  0  0  0  0
    9.5775    8.9444    2.6023 C   0  0  0  0  0  0  0  0  0  0  0  0
    8.1031    9.1598    2.7475 C   0  0  0  0  0  0  0  0  0  0  0  0
    7.5630    9.6016    1.7100 O   0  0  0  0  0  0  0  0  0  0  0  0
    7.3127    8.9029    3.9315 N   0  0  0  0  0  0  0  0  0  0  0  0
    5.9017    9.2455    4.0727 C   0  0  0  0  0  0  0  0  0  0  0  0
    5.0398    9.0839    2.9708 C   0  0  0  0  0  0  0  0  0  0  0  0
    3.6755    9.3916    3.0751 C   0  0  0  0  0  0  0  0  0  0  0  0
    3.1507    9.8739    4.2748 C   0  0  0  0  0  0  0  0  0  0  0  0
    3.9810   10.0398    5.3754 C   0  0  0  0  0  0  0  0  0  0  0  0
    5.3319    9.7194    5.2866 C   0  0  0  0  0  0  0  0  0  0  0  0
   10.5070   10.1173    2.8503 C   0  0  0  0  0  0  0  0  0  0  0  0
   11.9982    9.7933    2.6157 C   0  0  0  0  0  0  0  0  0  0  0  0
  1  2  1  0
  2  3  1  0
  2  4  1  0
  4  5  1  0
  5  6  1  0
  6  7  1  0
  7  8  1  0
  8  9  2  0
  8 10  1  0
 10 11  1  0
 11 12  2  0
 12 13  1  0
 13 14  2  0
 14 15  1  0
 15 16  2  0
  7 17  1  0
 17 18  1  0
 18  4  1  0
 16 11  1  0
M  CHG  1   3   1
M  END
>  <EmbedRMS>  (203) 
0.24964892458419108

>  <Gold.Version>  (203) 
2020.3.0

>  <Gold.Id.Protein>  (203) 
unknown|1q8t_protein|pdb

>  <Gold.PLP.Fitness>  (203) 
55.2181

>  <Gold.PLP.PLP>  (203) 
-47.2587

>  <Gold.PLP.part.hbond>  (203) 
-2.0000

>  <Gold.PLP.part.metal>  (203) 
0.0000

>  <Gold.PLP.part.buried>  (203) 
-2.0693

>  <Gold.PLP.part.nonpolar>  (203) 
-44.0785

>  <Gold.PLP.part.repulsive>  (203) 
0.0806

>  <Gold.PLP.ligand.clash>  (203) 
0.0000

>  <Gold.PLP.ligand.torsion>  (203) 
0.9753

>  <Gold.PLP.Chemscore.Hbond>  (203) 
2.9920

>  <Gold.PLP.Chemscore.CHOScore>  (203) 
0.0000

>  <Gold.PLP.Chemscore.Metal>  (203) 
0.0000

>  <Gold.Chemscore.Hbonds>  (203) 
donor molecule, donor type, donor heavy atom, donor atom, acceptor molecule, acceptor atom, score
      L1  H     3    24       P1  2902  2.00
      L1  H     3    25       P1  2691  0.99

>  <Gold.PLP.Chemscore.Internal.Correction>  (203) 
0.9339

>  <Gold.PLP.Constraint>  (203) 
-0.0000

>  <Gold.Protein.RotatedTorsions>  (203) 
[  681  677  676  673 ] final   38.46 input -179.99 | X-H torsion
[  702  698  697  694 ] final  134.98 input  179.99 | X-H torsion
[ 2577 2569 2568 2566 ] final  155.32 input   -0.13 | X-H torsion
[ 2891 2887 2886 2883 ] final   38.65 input  179.98 | X-H torsion
[ 3175 3171 3170 3167 ] final   72.35 input -179.99 | X-H torsion
[ 5278 5270 5269 5267 ] final  125.37 input    0.55 | X-H torsion
[  641  637  636  633 ] final  -60.95 input  179.99 | X-H torsion
[ 1886 1878 1877 1875 ] final  -12.52 input    1.60 | X-H torsion
[  965  957  956  954 ] final -134.42 input    0.45 | X-H torsion

>  <Gold.Protein.ActiveResidues>  (203) 
 LYS47   THR48   LEU49   GLY50   THR51   GLY52   SER53   PHE54   GLY55   ARG56  
 VAL57   MET58   LEU59   TYR69   ALA70   MET71   LYS72   ILE73   LEU74   GLU91  
 LEU95   VAL104  LYS105  MET118  VAL119  MET120  GLU121  TYR122  VAL123  PRO124 
 GLY125  GLY126  GLU127  MET128  PHE129  TYR164  ASP166  LEU167  LYS168  PRO169 
 GLU170  ASN171  LEU172  LEU173  ILE174  GLN181  VAL182  THR183  ASP184  PHE185 
 GLY186  PHE187  GLY200  THR201  ASN326  PHE327  TYR330  ARG18   ARG19   ASN20  
 ALA21   ILE22   HIS23  

>  <Gold.Protein.RotatedAtoms>  (203) 
   10.1675   18.9777    7.3085 H   0  0  0  0  0  0  0  0  0  0  0  0  # atno 641  bound_to 637 
   16.3631   12.6186    6.1311 H   0  0  0  0  0  0  0  0  0  0  0  0  # atno 681  bound_to 677 
   20.4109   11.6895   -2.0133 H   0  0  0  0  0  0  0  0  0  0  0  0  # atno 702  bound_to 698 
   -6.6091   17.0372   -1.2087 H   0  0  0  0  0  0  0  0  0  0  0  0  # atno 965  bound_to 957 
    2.1843   11.1279   10.3053 H   0  0  0  0  0  0  0  0  0  0  0  0  # atno 1886 bound_to 1878
   10.2276    1.9026   -2.3870 H   0  0  0  0  0  0  0  0  0  0  0  0  # atno 2577 bound_to 2569
    8.3166    5.9578    0.2135 H   0  0  0  0  0  0  0  0  0  0  0  0  # atno 2891 bound_to 2887
   18.2849    2.1213   -1.2523 H   0  0  0  0  0  0  0  0  0  0  0  0  # atno 3175 bound_to 3171
   13.8442   10.2296    8.8001 H   0  0  0  0  0  0  0  0  0  0  0  0  # atno 5278 bound_to 5270
   15.7311   13.4265    7.3493 LP  0  0  0  0  0  0  0  0  0  0  0  0  # atno 5914 bound_to 677 
   17.2204   13.7896    6.7867 LP  0  0  0  0  0  0  0  0  0  0  0  0  # atno 5915 bound_to 677 
   19.3487   11.8382   -0.8355 LP  0  0  0  0  0  0  0  0  0  0  0  0  # atno 5920 bound_to 698 
   20.9235   11.5528   -0.5113 LP  0  0  0  0  0  0  0  0  0  0  0  0  # atno 5921 bound_to 698 
    9.3371    2.9654   -3.1698 LP  0  0  0  0  0  0  0  0  0  0  0  0  # atno 5950 bound_to 2569
   10.9646    3.0956   -3.1411 LP  0  0  0  0  0  0  0  0  0  0  0  0  # atno 5951 bound_to 2569
    7.3021    5.3165    1.2604 LP  0  0  0  0  0  0  0  0  0  0  0  0  # atno 5982 bound_to 2887
    7.6200    6.9182    1.2759 LP  0  0  0  0  0  0  0  0  0  0  0  0  # atno 5983 bound_to 2887
   19.3935    3.0512   -0.5875 LP  0  0  0  0  0  0  0  0  0  0  0  0  # atno 6000 bound_to 3171
   18.2516    2.3251    0.3266 LP  0  0  0  0  0  0  0  0  0  0  0  0  # atno 6001 bound_to 3171
   12.6005    9.9630    9.7588 LP  0  0  0  0  0  0  0  0  0  0  0  0  # atno 6004 bound_to 5270
   14.1299    9.8410   10.3181 LP  0  0  0  0  0  0  0  0  0  0  0  0  # atno 6005 bound_to 5270
   11.3960   19.3982    8.2300 LP  0  0  0  0  0  0  0  0  0  0  0  0  # atno 6055 bound_to 637 
    9.8604   19.7164    8.6851 LP  0  0  0  0  0  0  0  0  0  0  0  0  # atno 6056 bound_to 637 
    0.7424   10.8230   10.9079 LP  0  0  0  0  0  0  0  0  0  0  0  0  # atno 6063 bound_to 1878
    1.3435   12.3413   10.9018 LP  0  0  0  0  0  0  0  0  0  0  0  0  # atno 6064 bound_to 1878
   -7.2107   16.2832    0.0581 LP  0  0  0  0  0  0  0  0  0  0  0  0  # atno 6067 bound_to 957 
   -6.6367   15.4453   -1.2206 LP  0  0  0  0  0  0  0  0  0  0  0  0  # atno 6068 bound_to 957 

>  <STRIFE_LigEff_Score>  (203) 
3.0676722222222224

$$$$
unknown|pharmsElabsTestPreDocking|sdf|204|dock5
     RDKit          3D

 17 18  0  0  0  0  0  0  0  0999 V2000
   14.7023    8.0292    2.6507 C   0  0  0  0  0  0  0  0  0  0  0  0
   13.3271    7.9554    1.9890 C   0  0  0  0  0  0  0  0  0  0  0  0
   13.2066    8.8800    0.8599 N   0  0  0  0  0  0  0  0  0  0  0  0
   12.0716    7.9602    2.8953 C   0  0  0  0  0  0  0  0  0  0  0  0
   10.9183    7.1024    2.3549 C   0  0  0  0  0  0  0  0  0  0  0  0
    9.5367    7.3993    2.9126 C   0  0  0  0  0  0  0  0  0  0  0  0
    9.2785    8.8765    3.0704 C   0  0  0  0  0  0  0  0  0  0  0  0
    7.8357    9.2226    3.2887 C   0  0  0  0  0  0  0  0  0  0  0  0
    7.6492   10.0418    4.2165 O   0  0  0  0  0  0  0  0  0  0  0  0
    6.7077    8.7073    2.5491 N   0  0  0  0  0  0  0  0  0  0  0  0
    5.3363    9.0113    2.9114 C   0  0  0  0  0  0  0  0  0  0  0  0
    4.8311    9.3139    4.1750 C   0  0  0  0  0  0  0  0  0  0  0  0
    3.4789    9.5099    4.0114 C   0  0  0  0  0  0  0  0  0  0  0  0
    3.1384    9.3393    2.7217 N   0  0  0  0  0  0  0  0  0  0  0  0
    4.2617    9.0345    2.0430 C   0  0  0  0  0  0  0  0  0  0  0  0
   10.3049    9.6635    3.8336 C   0  0  0  0  0  0  0  0  0  0  0  0
   11.7210    9.4114    3.3201 C   0  0  0  0  0  0  0  0  0  0  0  0
  1  2  1  0
  2  3  1  0
  2  4  1  0
  4  5  1  0
  5  6  1  0
  6  7  1  0
  7  8  1  0
  8  9  2  0
  8 10  1  0
 10 11  1  0
 11 12  1  0
 12 13  2  0
 13 14  1  0
 14 15  1  0
  7 16  1  0
 16 17  1  0
 17  4  1  0
 15 11  2  0
M  CHG  1   3   1
M  END
>  <EmbedRMS>  (204) 
0.3005329260886256

>  <Gold.Version>  (204) 
2020.3.0

>  <Gold.Id.Protein>  (204) 
unknown|1q8t_protein|pdb

>  <Gold.PLP.Fitness>  (204) 
48.9287

>  <Gold.PLP.PLP>  (204) 
-40.4083

>  <Gold.PLP.part.hbond>  (204) 
-2.3682

>  <Gold.PLP.part.metal>  (204) 
0.0000

>  <Gold.PLP.part.buried>  (204) 
-4.5683

>  <Gold.PLP.part.nonpolar>  (204) 
-33.4893

>  <Gold.PLP.part.repulsive>  (204) 
0.1021

>  <Gold.PLP.ligand.clash>  (204) 
0.0000

>  <Gold.PLP.ligand.torsion>  (204) 
0.8410

>  <Gold.PLP.Chemscore.Hbond>  (204) 
3.1950

>  <Gold.PLP.Chemscore.CHOScore>  (204) 
0.0000

>  <Gold.PLP.Chemscore.Metal>  (204) 
0.0000

>  <Gold.Chemscore.Hbonds>  (204) 
donor molecule, donor type, donor heavy atom, donor atom, acceptor molecule, acceptor atom, score
      L1  H     3    22       P1  2902  2.00
      L1  H    10    31       P1  2887  0.20
      L1  H    14    34       P1  1855  1.00

>  <Gold.PLP.Chemscore.Internal.Correction>  (204) 
0.6175

>  <Gold.PLP.Constraint>  (204) 
-0.0000

>  <Gold.Protein.RotatedTorsions>  (204) 
[  681  677  676  673 ] final -130.56 input -179.99 | X-H torsion
[  702  698  697  694 ] final  -62.58 input  179.99 | X-H torsion
[ 2577 2569 2568 2566 ] final  161.89 input   -0.13 | X-H torsion
[ 2891 2887 2886 2883 ] final   -7.25 input  179.98 | X-H torsion
[ 3175 3171 3170 3167 ] final  101.03 input -179.99 | X-H torsion
[ 5278 5270 5269 5267 ] final  126.43 input    0.55 | X-H torsion
[  641  637  636  633 ] final -174.24 input  179.99 | X-H torsion
[ 1886 1878 1877 1875 ] final  132.61 input    1.60 | X-H torsion
[  965  957  956  954 ] final   84.72 input    0.45 | X-H torsion

>  <Gold.Protein.ActiveResidues>  (204) 
 LYS47   THR48   LEU49   GLY50   THR51   GLY52   SER53   PHE54   GLY55   ARG56  
 VAL57   MET58   LEU59   TYR69   ALA70   MET71   LYS72   ILE73   LEU74   GLU91  
 LEU95   VAL104  LYS105  MET118  VAL119  MET120  GLU121  TYR122  VAL123  PRO124 
 GLY125  GLY126  GLU127  MET128  PHE129  TYR164  ASP166  LEU167  LYS168  PRO169 
 GLU170  ASN171  LEU172  LEU173  ILE174  GLN181  VAL182  THR183  ASP184  PHE185 
 GLY186  PHE187  GLY200  THR201  ASN326  PHE327  TYR330  ARG18   ARG19   ASN20  
 ALA21   ILE22   HIS23  

>  <Gold.Protein.RotatedAtoms>  (204) 
   11.3612   19.3338    8.1364 H   0  0  0  0  0  0  0  0  0  0  0  0  # atno 641  bound_to 637 
   16.3451   13.8793    7.3922 H   0  0  0  0  0  0  0  0  0  0  0  0  # atno 681  bound_to 677 
   20.3236   11.6708   -0.2440 H   0  0  0  0  0  0  0  0  0  0  0  0  # atno 702  bound_to 698 
   -7.1564   15.9628   -0.0285 H   0  0  0  0  0  0  0  0  0  0  0  0  # atno 965  bound_to 957 
    1.0034   12.1489   11.0000 H   0  0  0  0  0  0  0  0  0  0  0  0  # atno 1886 bound_to 1878
   10.3293    1.9156   -2.3886 H   0  0  0  0  0  0  0  0  0  0  0  0  # atno 2577 bound_to 2569
    8.0184    5.3590    0.4154 H   0  0  0  0  0  0  0  0  0  0  0  0  # atno 2891 bound_to 2887
   18.0284    1.9746   -0.9214 H   0  0  0  0  0  0  0  0  0  0  0  0  # atno 3175 bound_to 3171
   13.8597   10.2283    8.8060 H   0  0  0  0  0  0  0  0  0  0  0  0  # atno 5278 bound_to 5270
   17.2283   13.2366    6.2334 LP  0  0  0  0  0  0  0  0  0  0  0  0  # atno 5914 bound_to 677 
   15.7421   12.6526    6.5752 LP  0  0  0  0  0  0  0  0  0  0  0  0  # atno 5915 bound_to 677 
   20.9817   11.5652   -1.6908 LP  0  0  0  0  0  0  0  0  0  0  0  0  # atno 5920 bound_to 698 
   19.3823   11.8454   -1.5172 LP  0  0  0  0  0  0  0  0  0  0  0  0  # atno 5921 bound_to 698 
    9.2941    2.8825   -3.1155 LP  0  0  0  0  0  0  0  0  0  0  0  0  # atno 5950 bound_to 2569
   10.9006    3.1648   -3.1938 LP  0  0  0  0  0  0  0  0  0  0  0  0  # atno 5951 bound_to 2569
    7.1352    5.9447    1.6043 LP  0  0  0  0  0  0  0  0  0  0  0  0  # atno 5982 bound_to 2887
    8.1007    6.9202    0.7196 LP  0  0  0  0  0  0  0  0  0  0  0  0  # atno 5983 bound_to 2887
   19.3014    2.9253   -1.0277 LP  0  0  0  0  0  0  0  0  0  0  0  0  # atno 6000 bound_to 3171
   18.6136    2.6053    0.4185 LP  0  0  0  0  0  0  0  0  0  0  0  0  # atno 6001 bound_to 3171
   12.5978    9.9671    9.7420 LP  0  0  0  0  0  0  0  0  0  0  0  0  # atno 6004 bound_to 5270
   14.1163    9.8382   10.3287 LP  0  0  0  0  0  0  0  0  0  0  0  0  # atno 6005 bound_to 5270
    9.9484   19.7427    8.7462 LP  0  0  0  0  0  0  0  0  0  0  0  0  # atno 6055 bound_to 637 
   10.0509   18.9970    7.2970 LP  0  0  0  0  0  0  0  0  0  0  0  0  # atno 6056 bound_to 637 
    2.3033   11.5115   10.3372 LP  0  0  0  0  0  0  0  0  0  0  0  0  # atno 6063 bound_to 1878
    1.0258   10.5780   10.7412 LP  0  0  0  0  0  0  0  0  0  0  0  0  # atno 6064 bound_to 1878
   -6.5260   15.6627   -1.4595 LP  0  0  0  0  0  0  0  0  0  0  0  0  # atno 6067 bound_to 957 
   -6.7450   17.1973   -0.9461 LP  0  0  0  0  0  0  0  0  0  0  0  0  # atno 6068 bound_to 957 

>  <STRIFE_LigEff_Score>  (204) 
2.8781588235294118

$$$$
unknown|pharmsElabsTestPreDocking|sdf|205|dock3
     RDKit          3D

 18 19  0  0  0  0  0  0  0  0999 V2000
    5.6995    9.4285    5.2665 C   0  0  0  0  0  0  0  0  0  0  0  0
    4.9550    9.3548    3.9760 C   0  0  0  0  0  0  0  0  0  0  0  0
    3.6154    9.6476    3.7981 C   0  0  0  0  0  0  0  0  0  0  0  0
    3.2810    9.4883    2.5070 N   0  0  0  0  0  0  0  0  0  0  0  0
    4.3859    9.1017    1.8476 C   0  0  0  0  0  0  0  0  0  0  0  0
    5.4605    9.0034    2.7331 C   0  0  0  0  0  0  0  0  0  0  0  0
    6.8354    8.6354    2.4327 N   0  0  0  0  0  0  0  0  0  0  0  0
    7.9650    9.3450    2.9891 C   0  0  0  0  0  0  0  0  0  0  0  0
    7.7736   10.3754    3.6730 O   0  0  0  0  0  0  0  0  0  0  0  0
    9.4162    8.9917    2.8327 C   0  0  0  0  0  0  0  0  0  0  0  0
    9.6702    7.5131    2.6606 C   0  0  0  0  0  0  0  0  0  0  0  0
   11.0827    7.2011    2.1914 C   0  0  0  0  0  0  0  0  0  0  0  0
   12.1828    8.0347    2.8467 C   0  0  0  0  0  0  0  0  0  0  0  0
   13.6348    7.6556    2.3825 C   0  0  0  0  0  0  0  0  0  0  0  0
   14.5036    6.9030    3.4045 C   0  0  0  0  0  0  0  0  0  0  0  0
   13.6479    6.9534    1.0958 N   0  0  0  0  0  0  0  0  0  0  0  0
   11.8666    9.5223    3.1011 C   0  0  0  0  0  0  0  0  0  0  0  0
   10.4388    9.7933    3.6031 C   0  0  0  0  0  0  0  0  0  0  0  0
  1  2  1  0
  2  3  2  0
  3  4  1  0
  4  5  1  0
  5  6  2  0
  6  7  1  0
  7  8  1  0
  8  9  2  0
  8 10  1  0
 10 11  1  0
 11 12  1  0
 12 13  1  0
 13 14  1  0
 14 15  1  0
 14 16  1  0
 13 17  1  0
 17 18  1  0
  6  2  1  0
 18 10  1  0
M  CHG  1  16   1
M  END
>  <EmbedRMS>  (205) 
0.25960676527829957

>  <Gold.Version>  (205) 
2020.3.0

>  <Gold.Id.Protein>  (205) 
unknown|1q8t_protein|pdb

>  <Gold.PLP.Fitness>  (205) 
54.2165

>  <Gold.PLP.PLP>  (205) 
-43.6771

>  <Gold.PLP.part.hbond>  (205) 
-3.6621

>  <Gold.PLP.part.metal>  (205) 
0.0000

>  <Gold.PLP.part.buried>  (205) 
-4.1534

>  <Gold.PLP.part.nonpolar>  (205) 
-36.6184

>  <Gold.PLP.part.repulsive>  (205) 
0.1307

>  <Gold.PLP.ligand.clash>  (205) 
0.0000

>  <Gold.PLP.ligand.torsion>  (205) 
2.0892

>  <Gold.PLP.Chemscore.Hbond>  (205) 
4.6250

>  <Gold.PLP.Chemscore.CHOScore>  (205) 
0.0000

>  <Gold.PLP.Chemscore.Metal>  (205) 
0.0000

>  <Gold.Chemscore.Hbonds>  (205) 
donor molecule, donor type, donor heavy atom, donor atom, acceptor molecule, acceptor atom, score
      L1  H     4    23       P1  1855  1.00
      L1  H     7    25       P1  2887  0.65
      L1  H    16    36       P1  2902  2.00
      L1  H    16    38       P1  2691  0.98

>  <Gold.PLP.Chemscore.Internal.Correction>  (205) 
0.8429

>  <Gold.PLP.Constraint>  (205) 
-0.0000

>  <Gold.Protein.RotatedTorsions>  (205) 
[  681  677  676  673 ] final  -27.27 input -179.99 | X-H torsion
[  702  698  697  694 ] final  103.04 input  179.99 | X-H torsion
[ 2577 2569 2568 2566 ] final  178.09 input   -0.13 | X-H torsion
[ 2891 2887 2886 2883 ] final   58.31 input  179.98 | X-H torsion
[ 3175 3171 3170 3167 ] final -153.77 input -179.99 | X-H torsion
[ 5278 5270 5269 5267 ] final   60.72 input    0.55 | X-H torsion
[  641  637  636  633 ] final   87.85 input  179.99 | X-H torsion
[ 1886 1878 1877 1875 ] final -152.97 input    1.60 | X-H torsion
[  965  957  956  954 ] final   42.49 input    0.45 | X-H torsion

>  <Gold.Protein.ActiveResidues>  (205) 
 LYS47   THR48   LEU49   GLY50   THR51   GLY52   SER53   PHE54   GLY55   ARG56  
 VAL57   MET58   LEU59   TYR69   ALA70   MET71   LYS72   ILE73   LEU74   GLU91  
 LEU95   VAL104  LYS105  MET118  VAL119  MET120  GLU121  TYR122  VAL123  PRO124 
 GLY125  GLY126  GLU127  MET128  PHE129  TYR164  ASP166  LEU167  LYS168  PRO169 
 GLU170  ASN171  LEU172  LEU173  ILE174  GLN181  VAL182  THR183  ASP184  PHE185 
 GLY186  PHE187  GLY200  THR201  ASN326  PHE327  TYR330  ARG18   ARG19   ASN20  
 ALA21   ILE22   HIS23  

>  <Gold.Protein.RotatedAtoms>  (205) 
   10.2902   19.7546    8.8434 H   0  0  0  0  0  0  0  0  0  0  0  0  # atno 641  bound_to 637 
   15.6592   12.8230    6.7699 H   0  0  0  0  0  0  0  0  0  0  0  0  # atno 681  bound_to 677 
   19.9267   11.7746   -1.9744 H   0  0  0  0  0  0  0  0  0  0  0  0  # atno 702  bound_to 698 
   -6.9846   15.4767   -0.4162 H   0  0  0  0  0  0  0  0  0  0  0  0  # atno 965  bound_to 957 
    0.6421   11.1279   10.9852 H   0  0  0  0  0  0  0  0  0  0  0  0  # atno 1886 bound_to 1878
   10.5691    1.9873   -2.4208 H   0  0  0  0  0  0  0  0  0  0  0  0  # atno 2577 bound_to 2569
    8.3421    6.2596    0.2562 H   0  0  0  0  0  0  0  0  0  0  0  0  # atno 2891 bound_to 2887
   18.4413    2.4476    0.3556 H   0  0  0  0  0  0  0  0  0  0  0  0  # atno 3175 bound_to 3171
   12.9063   10.1734    8.9883 H   0  0  0  0  0  0  0  0  0  0  0  0  # atno 5278 bound_to 5270
   16.5979   13.9704    7.3516 LP  0  0  0  0  0  0  0  0  0  0  0  0  # atno 5914 bound_to 677 
   17.0945   13.0305    6.1120 LP  0  0  0  0  0  0  0  0  0  0  0  0  # atno 5915 bound_to 677 
   19.6367   11.7789   -0.4081 LP  0  0  0  0  0  0  0  0  0  0  0  0  # atno 5920 bound_to 698 
   21.1449   11.5226   -0.9795 LP  0  0  0  0  0  0  0  0  0  0  0  0  # atno 5921 bound_to 698 
    9.2382    2.6673   -2.9701 LP  0  0  0  0  0  0  0  0  0  0  0  0  # atno 5950 bound_to 2569
   10.7039    3.3045   -3.3052 LP  0  0  0  0  0  0  0  0  0  0  0  0  # atno 5951 bound_to 2569
    7.4723    5.1718    1.0286 LP  0  0  0  0  0  0  0  0  0  0  0  0  # atno 5982 bound_to 2887
    7.4229    6.7453    1.4627 LP  0  0  0  0  0  0  0  0  0  0  0  0  # atno 5983 bound_to 2887
   18.1086    2.0267   -1.1436 LP  0  0  0  0  0  0  0  0  0  0  0  0  # atno 6000 bound_to 3171
   19.3719    3.0061   -0.8096 LP  0  0  0  0  0  0  0  0  0  0  0  0  # atno 6001 bound_to 3171
   13.2726    9.7896   10.4900 LP  0  0  0  0  0  0  0  0  0  0  0  0  # atno 6004 bound_to 5270
   14.4446   10.0735    9.3889 LP  0  0  0  0  0  0  0  0  0  0  0  0  # atno 6005 bound_to 5270
    9.7645   19.1095    7.4861 LP  0  0  0  0  0  0  0  0  0  0  0  0  # atno 6055 bound_to 637 
   11.3626   19.1869    7.8126 LP  0  0  0  0  0  0  0  0  0  0  0  0  # atno 6056 bound_to 637 
    1.6498   12.3413   10.7668 LP  0  0  0  0  0  0  0  0  0  0  0  0  # atno 6063 bound_to 1878
    2.0596   10.8230   10.3272 LP  0  0  0  0  0  0  0  0  0  0  0  0  # atno 6064 bound_to 1878
   -6.4297   16.3054   -1.6574 LP  0  0  0  0  0  0  0  0  0  0  0  0  # atno 6067 bound_to 957 
   -7.0222   17.0666   -0.3398 LP  0  0  0  0  0  0  0  0  0  0  0  0  # atno 6068 bound_to 957 

>  <STRIFE_LigEff_Score>  (205) 
3.012027777777778

$$$$
unknown|pharmsElabsTestPreDocking|sdf|206|dock1
     RDKit          3D

 17 18  0  0  0  0  0  0  0  0999 V2000
   14.4984    7.9233    2.8239 C   0  0  0  0  0  0  0  0  0  0  0  0
   13.1198    7.9069    2.1654 C   0  0  0  0  0  0  0  0  0  0  0  0
   12.9988    8.9157    1.1109 N   0  0  0  0  0  0  0  0  0  0  0  0
   11.8686    7.8486    3.0758 C   0  0  0  0  0  0  0  0  0  0  0  0
   10.6731    7.1291    2.4346 C   0  0  0  0  0  0  0  0  0  0  0  0
    9.3092    7.4134    3.0406 C   0  0  0  0  0  0  0  0  0  0  0  0
    9.1243    8.8660    3.4004 C   0  0  0  0  0  0  0  0  0  0  0  0
    7.7008    9.2482    3.6775 C   0  0  0  0  0  0  0  0  0  0  0  0
    7.5599    9.9601    4.6972 O   0  0  0  0  0  0  0  0  0  0  0  0
    6.5441    8.8745    2.8980 N   0  0  0  0  0  0  0  0  0  0  0  0
    5.1913    9.1948    3.3121 C   0  0  0  0  0  0  0  0  0  0  0  0
    4.7179    9.4008    4.6071 C   0  0  0  0  0  0  0  0  0  0  0  0
    3.3718    9.6603    4.4875 C   0  0  0  0  0  0  0  0  0  0  0  0
    3.0048    9.6191    3.1944 N   0  0  0  0  0  0  0  0  0  0  0  0
    4.1048    9.3356    2.4699 C   0  0  0  0  0  0  0  0  0  0  0  0
   10.1901    9.4911    4.2538 C   0  0  0  0  0  0  0  0  0  0  0  0
   11.5908    9.2435    3.6974 C   0  0  0  0  0  0  0  0  0  0  0  0
  1  2  1  0
  2  3  1  0
  2  4  1  0
  4  5  1  0
  5  6  1  0
  6  7  1  0
  7  8  1  0
  8  9  2  0
  8 10  1  0
 10 11  1  0
 11 12  1  0
 12 13  2  0
 13 14  1  0
 14 15  1  0
  7 16  1  0
 16 17  1  0
 17  4  1  0
 15 11  2  0
M  CHG  1   3   1
M  END
>  <EmbedRMS>  (206) 
0.3005329260886256

>  <Gold.Version>  (206) 
2020.3.0

>  <Gold.Id.Protein>  (206) 
unknown|1q8t_protein|pdb

>  <Gold.PLP.Fitness>  (206) 
49.7852

>  <Gold.PLP.PLP>  (206) 
-41.5679

>  <Gold.PLP.part.hbond>  (206) 
-2.0000

>  <Gold.PLP.part.metal>  (206) 
0.0000

>  <Gold.PLP.part.buried>  (206) 
-4.1831

>  <Gold.PLP.part.nonpolar>  (206) 
-35.4580

>  <Gold.PLP.part.repulsive>  (206) 
0.1689

>  <Gold.PLP.ligand.clash>  (206) 
0.0000

>  <Gold.PLP.ligand.torsion>  (206) 
0.7084

>  <Gold.PLP.Chemscore.Hbond>  (206) 
3.0000

>  <Gold.PLP.Chemscore.CHOScore>  (206) 
0.0000

>  <Gold.PLP.Chemscore.Metal>  (206) 
0.0000

>  <Gold.Chemscore.Hbonds>  (206) 
donor molecule, donor type, donor heavy atom, donor atom, acceptor molecule, acceptor atom, score
      L1  H     3    22       P1  2902  2.00
      L1  H    14    34       P1  1855  1.00

>  <Gold.PLP.Chemscore.Internal.Correction>  (206) 
0.6340

>  <Gold.PLP.Constraint>  (206) 
-0.0000

>  <Gold.Protein.RotatedTorsions>  (206) 
[  681  677  676  673 ] final    8.18 input -179.99 | X-H torsion
[  702  698  697  694 ] final  112.91 input  179.99 | X-H torsion
[ 2577 2569 2568 2566 ] final  -52.01 input   -0.13 | X-H torsion
[ 2891 2887 2886 2883 ] final   50.68 input  179.98 | X-H torsion
[ 3175 3171 3170 3167 ] final  -12.44 input -179.99 | X-H torsion
[ 5278 5270 5269 5267 ] final  172.30 input    0.55 | X-H torsion
[  641  637  636  633 ] final  144.84 input  179.99 | X-H torsion
[ 1886 1878 1877 1875 ] final  161.36 input    1.60 | X-H torsion
[  965  957  956  954 ] final  -23.21 input    0.45 | X-H torsion

>  <Gold.Protein.ActiveResidues>  (206) 
 LYS47   THR48   LEU49   GLY50   THR51   GLY52   SER53   PHE54   GLY55   ARG56  
 VAL57   MET58   LEU59   TYR69   ALA70   MET71   LYS72   ILE73   LEU74   GLU91  
 LEU95   VAL104  LYS105  MET118  VAL119  MET120  GLU121  TYR122  VAL123  PRO124 
 GLY125  GLY126  GLU127  MET128  PHE129  TYR164  ASP166  LEU167  LYS168  PRO169 
 GLU170  ASN171  LEU172  LEU173  ILE174  GLN181  VAL182  THR183  ASP184  PHE185 
 GLY186  PHE187  GLY200  THR201  ASN326  PHE327  TYR330  ARG18   ARG19   ASN20  
 ALA21   ILE22   HIS23  

>  <Gold.Protein.RotatedAtoms>  (206) 
   11.1062   19.6050    8.6397 H   0  0  0  0  0  0  0  0  0  0  0  0  # atno 641  bound_to 637 
   15.9606   12.6075    6.3695 H   0  0  0  0  0  0  0  0  0  0  0  0  # atno 681  bound_to 677 
   20.0731   11.7494   -2.0158 H   0  0  0  0  0  0  0  0  0  0  0  0  # atno 702  bound_to 698 
   -6.5831   15.5624   -1.2965 H   0  0  0  0  0  0  0  0  0  0  0  0  # atno 965  bound_to 957 
    0.7193   11.8137   11.0681 H   0  0  0  0  0  0  0  0  0  0  0  0  # atno 1886 bound_to 1878
   10.5436    3.3190   -3.3473 H   0  0  0  0  0  0  0  0  0  0  0  0  # atno 2577 bound_to 2569
    8.3405    6.1431    0.2303 H   0  0  0  0  0  0  0  0  0  0  0  0  # atno 2891 bound_to 2887
   19.2351    2.8473   -1.0822 H   0  0  0  0  0  0  0  0  0  0  0  0  # atno 3175 bound_to 3171
   14.3576   10.1160    9.2824 H   0  0  0  0  0  0  0  0  0  0  0  0  # atno 5278 bound_to 5270
   16.0764   13.7583    7.4643 LP  0  0  0  0  0  0  0  0  0  0  0  0  # atno 5914 bound_to 677 
   17.2988   13.4695    6.4207 LP  0  0  0  0  0  0  0  0  0  0  0  0  # atno 5915 bound_to 677 
   19.5230   11.8013   -0.5218 LP  0  0  0  0  0  0  0  0  0  0  0  0  # atno 5920 bound_to 698 
   21.1045   11.5267   -0.8224 LP  0  0  0  0  0  0  0  0  0  0  0  0  # atno 5921 bound_to 698 
   10.7282    2.0360   -2.4226 LP  0  0  0  0  0  0  0  0  0  0  0  0  # atno 5950 bound_to 2569
    9.2408    2.5336   -2.8771 LP  0  0  0  0  0  0  0  0  0  0  0  0  # atno 5951 bound_to 2569
    7.4010    5.2164    1.1219 LP  0  0  0  0  0  0  0  0  0  0  0  0  # atno 5982 bound_to 2887
    7.4960    6.8232    1.3968 LP  0  0  0  0  0  0  0  0  0  0  0  0  # atno 5983 bound_to 2887
   18.7003    2.6680    0.4069 LP  0  0  0  0  0  0  0  0  0  0  0  0  # atno 6000 bound_to 3171
   17.9448    1.9443   -0.8469 LP  0  0  0  0  0  0  0  0  0  0  0  0  # atno 6001 bound_to 3171
   12.7819   10.1393    9.0518 LP  0  0  0  0  0  0  0  0  0  0  0  0  # atno 6004 bound_to 5270
   13.4083    9.7843   10.5175 LP  0  0  0  0  0  0  0  0  0  0  0  0  # atno 6005 bound_to 5270
    9.5620   19.5170    8.2621 LP  0  0  0  0  0  0  0  0  0  0  0  0  # atno 6055 bound_to 637 
   10.7057   18.9369    7.2511 LP  0  0  0  0  0  0  0  0  0  0  0  0  # atno 6056 bound_to 637 
    2.1861   11.9469   10.4631 LP  0  0  0  0  0  0  0  0  0  0  0  0  # atno 6063 bound_to 1878
    1.4421   10.4955   10.5436 LP  0  0  0  0  0  0  0  0  0  0  0  0  # atno 6064 bound_to 1878
   -6.6666   17.1425   -1.1196 LP  0  0  0  0  0  0  0  0  0  0  0  0  # atno 6067 bound_to 957 
   -7.2082   16.1392    0.0495 LP  0  0  0  0  0  0  0  0  0  0  0  0  # atno 6068 bound_to 957 

>  <STRIFE_LigEff_Score>  (206) 
2.9285411764705884

$$$$
unknown|pharmsElabsTestPreDocking|sdf|207|dock4
     RDKit          3D

 17 18  0  0  0  0  0  0  0  0999 V2000
   14.5007    7.4531    3.4072 C   0  0  0  0  0  0  0  0  0  0  0  0
   13.5339    7.9563    2.3249 C   0  0  0  0  0  0  0  0  0  0  0  0
   13.6183    7.1002    1.1361 N   0  0  0  0  0  0  0  0  0  0  0  0
   12.0513    8.2020    2.7782 C   0  0  0  0  0  0  0  0  0  0  0  0
   10.9766    7.3985    2.0220 C   0  0  0  0  0  0  0  0  0  0  0  0
    9.6088    8.0539    1.9626 C   0  0  0  0  0  0  0  0  0  0  0  0
    9.2309    8.7391    3.2706 C   0  0  0  0  0  0  0  0  0  0  0  0
    7.8171    9.2606    3.1762 C   0  0  0  0  0  0  0  0  0  0  0  0
    7.4935   10.0477    2.2417 O   0  0  0  0  0  0  0  0  0  0  0  0
    6.8592    8.8743    4.1686 N   0  0  0  0  0  0  0  0  0  0  0  0
    5.4887    9.2886    4.1728 C   0  0  0  0  0  0  0  0  0  0  0  0
    4.7168    9.3686    3.0674 N   0  0  0  0  0  0  0  0  0  0  0  0
    3.5282    9.7972    3.5383 C   0  0  0  0  0  0  0  0  0  0  0  0
    3.6058    9.9651    4.9035 C   0  0  0  0  0  0  0  0  0  0  0  0
    4.8453    9.6429    5.2993 N   0  0  0  0  0  0  0  0  0  0  0  0
   10.1929    9.8923    3.5780 C   0  0  0  0  0  0  0  0  0  0  0  0
   11.6889    9.5613    3.4125 C   0  0  0  0  0  0  0  0  0  0  0  0
  1  2  1  0
  2  3  1  0
  2  4  1  0
  4  5  1  0
  5  6  1  0
  6  7  1  0
  7  8  1  0
  8  9  2  0
  8 10  1  0
 10 11  1  0
 11 12  2  0
 12 13  1  0
 13 14  2  0
 14 15  1  0
  7 16  1  0
 16 17  1  0
 17  4  1  0
 15 11  1  0
M  CHG  1   3   1
M  END
>  <EmbedRMS>  (207) 
0.16863194066678772

>  <Gold.Version>  (207) 
2020.3.0

>  <Gold.Id.Protein>  (207) 
unknown|1q8t_protein|pdb

>  <Gold.PLP.Fitness>  (207) 
47.5453

>  <Gold.PLP.PLP>  (207) 
-37.9488

>  <Gold.PLP.part.hbond>  (207) 
-2.0000

>  <Gold.PLP.part.metal>  (207) 
0.0000

>  <Gold.PLP.part.buried>  (207) 
-5.8781

>  <Gold.PLP.part.nonpolar>  (207) 
-30.3594

>  <Gold.PLP.part.repulsive>  (207) 
0.0941

>  <Gold.PLP.ligand.clash>  (207) 
0.0000

>  <Gold.PLP.ligand.torsion>  (207) 
1.4872

>  <Gold.PLP.Chemscore.Hbond>  (207) 
3.0000

>  <Gold.PLP.Chemscore.CHOScore>  (207) 
1.0000

>  <Gold.PLP.Chemscore.Metal>  (207) 
0.0000

>  <Gold.Chemscore.Hbonds>  (207) 
donor molecule, donor type, donor heavy atom, donor atom, acceptor molecule, acceptor atom, score
      L1  H     3    22       P1  2902  2.00
      L1  H     3    23       P1  2691  1.00
      L1  C    13    32       P1  1855  1.00

>  <Gold.PLP.Chemscore.Internal.Correction>  (207) 
0.5709

>  <Gold.PLP.Constraint>  (207) 
-0.0000

>  <Gold.Protein.RotatedTorsions>  (207) 
[  681  677  676  673 ] final   83.17 input -179.99 | X-H torsion
[  702  698  697  694 ] final  -85.05 input  179.99 | X-H torsion
[ 2577 2569 2568 2566 ] final  143.67 input   -0.13 | X-H torsion
[ 2891 2887 2886 2883 ] final   74.40 input  179.98 | X-H torsion
[ 3175 3171 3170 3167 ] final -106.87 input -179.99 | X-H torsion
[ 5278 5270 5269 5267 ] final  153.13 input    0.55 | X-H torsion
[  641  637  636  633 ] final -179.56 input  179.99 | X-H torsion
[ 1886 1878 1877 1875 ] final  -21.67 input    1.60 | X-H torsion
[  965  957  956  954 ] final -114.48 input    0.45 | X-H torsion

>  <Gold.Protein.ActiveResidues>  (207) 
 LYS47   THR48   LEU49   GLY50   THR51   GLY52   SER53   PHE54   GLY55   ARG56  
 VAL57   MET58   LEU59   TYR69   ALA70   MET71   LYS72   ILE73   LEU74   GLU91  
 LEU95   VAL104  LYS105  MET118  VAL119  MET120  GLU121  TYR122  VAL123  PRO124 
 GLY125  GLY126  GLU127  MET128  PHE129  TYR164  ASP166  LEU167  LYS168  PRO169 
 GLU170  ASN171  LEU172  LEU173  ILE174  GLN181  VAL182  THR183  ASP184  PHE185 
 GLY186  PHE187  GLY200  THR201  ASN326  PHE327  TYR330  ARG18   ARG19   ASN20  
 ALA21   ILE22   HIS23  

>  <Gold.Protein.RotatedAtoms>  (207) 
   11.3521   19.3718    8.2099 H   0  0  0  0  0  0  0  0  0  0  0  0  # atno 641  bound_to 637 
   16.9580   12.9483    6.0895 H   0  0  0  0  0  0  0  0  0  0  0  0  # atno 681  bound_to 677 
   20.6522   11.6146   -0.3481 H   0  0  0  0  0  0  0  0  0  0  0  0  # atno 702  bound_to 698 
   -6.5135   16.8345   -1.4228 H   0  0  0  0  0  0  0  0  0  0  0  0  # atno 965  bound_to 957 
    2.1223   10.9992   10.3107 H   0  0  0  0  0  0  0  0  0  0  0  0  # atno 1886 bound_to 1878
   10.0463    1.9033   -2.4008 H   0  0  0  0  0  0  0  0  0  0  0  0  # atno 2577 bound_to 2569
    8.3114    6.4911    0.3473 H   0  0  0  0  0  0  0  0  0  0  0  0  # atno 2891 bound_to 2887
   19.0113    2.8512    0.2134 H   0  0  0  0  0  0  0  0  0  0  0  0  # atno 3175 bound_to 3171
   14.1989   10.1749    9.0368 H   0  0  0  0  0  0  0  0  0  0  0  0  # atno 5278 bound_to 5270
   15.5890   12.8852    6.9007 LP  0  0  0  0  0  0  0  0  0  0  0  0  # atno 5914 bound_to 677 
   16.7364   13.9838    7.2790 LP  0  0  0  0  0  0  0  0  0  0  0  0  # atno 5915 bound_to 677 
   20.7165   11.6171   -1.9397 LP  0  0  0  0  0  0  0  0  0  0  0  0  # atno 5920 bound_to 698 
   19.3019   11.8528   -1.1587 LP  0  0  0  0  0  0  0  0  0  0  0  0  # atno 5921 bound_to 698 
    9.4402    3.1013   -3.2567 LP  0  0  0  0  0  0  0  0  0  0  0  0  # atno 5950 bound_to 2569
   11.0524    2.9590   -3.0397 LP  0  0  0  0  0  0  0  0  0  0  0  0  # atno 5951 bound_to 2569
    7.6375    5.1302    0.8272 LP  0  0  0  0  0  0  0  0  0  0  0  0  # atno 5982 bound_to 2887
    7.2900    6.5432    1.5683 LP  0  0  0  0  0  0  0  0  0  0  0  0  # atno 5983 bound_to 2887
   17.8738    1.9455   -0.4357 LP  0  0  0  0  0  0  0  0  0  0  0  0  # atno 6000 bound_to 3171
   19.0067    2.6626   -1.3678 LP  0  0  0  0  0  0  0  0  0  0  0  0  # atno 6001 bound_to 3171
   12.6352   10.0713    9.3210 LP  0  0  0  0  0  0  0  0  0  0  0  0  # atno 6004 bound_to 5270
   13.7220    9.7902   10.5069 LP  0  0  0  0  0  0  0  0  0  0  0  0  # atno 6005 bound_to 5270
    9.8778   19.7222    8.6984 LP  0  0  0  0  0  0  0  0  0  0  0  0  # atno 6055 bound_to 637 
   10.1310   18.9774    7.2674 LP  0  0  0  0  0  0  0  0  0  0  0  0  # atno 6056 bound_to 637 
    0.6698   10.9438   10.9605 LP  0  0  0  0  0  0  0  0  0  0  0  0  # atno 6063 bound_to 1878
    1.4814   12.3559   10.8435 LP  0  0  0  0  0  0  0  0  0  0  0  0  # atno 6064 bound_to 1878
   -7.1827   16.6038    0.0033 LP  0  0  0  0  0  0  0  0  0  0  0  0  # atno 6067 bound_to 957 
   -6.7653   15.3382   -0.9404 LP  0  0  0  0  0  0  0  0  0  0  0  0  # atno 6068 bound_to 957 

>  <STRIFE_LigEff_Score>  (207) 
2.796782352941176

$$$$
unknown|pharmsElabsTestPreDocking|sdf|208|dock1
     RDKit          3D

 19 20  0  0  0  0  0  0  0  0999 V2000
    4.5419    8.7168    0.8963 C   0  0  0  0  0  0  0  0  0  0  0  0
    4.7351    8.9746    2.3512 C   0  0  0  0  0  0  0  0  0  0  0  0
    3.7424    9.2805    3.2105 N   0  0  0  0  0  0  0  0  0  0  0  0
    4.3186    9.4150    4.3964 N   0  0  0  0  0  0  0  0  0  0  0  0
    3.5995    9.7757    5.6096 C   0  0  0  0  0  0  0  0  0  0  0  0
    5.6293    9.2281    4.3493 N   0  0  0  0  0  0  0  0  0  0  0  0
    5.9188    8.9412    3.0635 C   0  0  0  0  0  0  0  0  0  0  0  0
    7.2444    8.6380    2.5618 N   0  0  0  0  0  0  0  0  0  0  0  0
    8.4078    9.3177    3.0819 C   0  0  0  0  0  0  0  0  0  0  0  0
    8.2563   10.2550    3.9024 O   0  0  0  0  0  0  0  0  0  0  0  0
    9.8410    9.0217    2.7372 C   0  0  0  0  0  0  0  0  0  0  0  0
   10.1060    7.5557    2.4268 C   0  0  0  0  0  0  0  0  0  0  0  0
   11.5839    7.1947    2.3233 C   0  0  0  0  0  0  0  0  0  0  0  0
   12.4794    8.3707    1.8927 C   0  0  0  0  0  0  0  0  0  0  0  0
   13.9470    7.8565    1.7138 C   0  0  0  0  0  0  0  0  0  0  0  0
   14.4833    7.2847    3.0389 C   0  0  0  0  0  0  0  0  0  0  0  0
   14.0611    6.8334    0.6653 N   0  0  0  0  0  0  0  0  0  0  0  0
   12.3619    9.5049    2.9429 C   0  0  0  0  0  0  0  0  0  0  0  0
   10.9204    9.9113    3.3240 C   0  0  0  0  0  0  0  0  0  0  0  0
  1  2  1  0
  2  3  2  0
  3  4  1  0
  4  5  1  0
  4  6  1  0
  6  7  2  0
  7  8  1  0
  8  9  1  0
  9 10  2  0
  9 11  1  0
 11 12  1  0
 12 13  1  0
 13 14  1  0
 14 15  1  0
 15 16  1  0
 15 17  1  0
 14 18  1  0
 18 19  1  0
  7  2  1  0
 19 11  1  0
M  CHG  1  17   1
M  END
>  <EmbedRMS>  (208) 
0.16952440923283876

>  <Gold.Version>  (208) 
2020.3.0

>  <Gold.Id.Protein>  (208) 
unknown|1q8t_protein|pdb

>  <Gold.PLP.Fitness>  (208) 
49.9735

>  <Gold.PLP.PLP>  (208) 
-38.7692

>  <Gold.PLP.part.hbond>  (208) 
-2.8245

>  <Gold.PLP.part.metal>  (208) 
0.0000

>  <Gold.PLP.part.buried>  (208) 
-4.2791

>  <Gold.PLP.part.nonpolar>  (208) 
-31.3588

>  <Gold.PLP.part.repulsive>  (208) 
0.1891

>  <Gold.PLP.ligand.clash>  (208) 
0.0000

>  <Gold.PLP.ligand.torsion>  (208) 
0.6528

>  <Gold.PLP.Chemscore.Hbond>  (208) 
3.9425

>  <Gold.PLP.Chemscore.CHOScore>  (208) 
0.0000

>  <Gold.PLP.Chemscore.Metal>  (208) 
0.0000

>  <Gold.Chemscore.Hbonds>  (208) 
donor molecule, donor type, donor heavy atom, donor atom, acceptor molecule, acceptor atom, score
      L1  H     8    26       P1  2887  0.94
      L1  H    17    37       P1  2691  1.00
      L1  H    17    38       P1  2902  2.00

>  <Gold.PLP.Chemscore.Internal.Correction>  (208) 
0.6825

>  <Gold.PLP.Constraint>  (208) 
-0.0000

>  <Gold.Protein.RotatedTorsions>  (208) 
[  681  677  676  673 ] final  -98.43 input -179.99 | X-H torsion
[  702  698  697  694 ] final  -56.97 input  179.99 | X-H torsion
[ 2577 2569 2568 2566 ] final -138.23 input   -0.13 | X-H torsion
[ 2891 2887 2886 2883 ] final  -71.62 input  179.98 | X-H torsion
[ 3175 3171 3170 3167 ] final -148.37 input -179.99 | X-H torsion
[ 5278 5270 5269 5267 ] final    5.96 input    0.55 | X-H torsion
[  641  637  636  633 ] final -115.06 input  179.99 | X-H torsion
[ 1886 1878 1877 1875 ] final  160.72 input    1.60 | X-H torsion
[  965  957  956  954 ] final   -0.92 input    0.45 | X-H torsion

>  <Gold.Protein.ActiveResidues>  (208) 
 LYS47   THR48   LEU49   GLY50   THR51   GLY52   SER53   PHE54   GLY55   ARG56  
 VAL57   MET58   LEU59   TYR69   ALA70   MET71   LYS72   ILE73   LEU74   GLU91  
 LEU95   VAL104  LYS105  MET118  VAL119  MET120  GLU121  TYR122  VAL123  PRO124 
 GLY125  GLY126  GLU127  MET128  PHE129  TYR164  ASP166  LEU167  LYS168  PRO169 
 GLU170  ASN171  LEU172  LEU173  ILE174  GLN181  VAL182  THR183  ASP184  PHE185 
 GLY186  PHE187  GLY200  THR201  ASN326  PHE327  TYR330  ARG18   ARG19   ASN20  
 ALA21   ILE22   HIS23  

>  <Gold.Protein.RotatedAtoms>  (208) 
   10.9742   18.9895    7.4198 H   0  0  0  0  0  0  0  0  0  0  0  0  # atno 641  bound_to 637 
   15.9249   13.6162    7.3917 H   0  0  0  0  0  0  0  0  0  0  0  0  # atno 681  bound_to 677 
   20.2373   11.6860   -0.2390 H   0  0  0  0  0  0  0  0  0  0  0  0  # atno 702  bound_to 698 
   -6.7124   15.4065   -1.0158 H   0  0  0  0  0  0  0  0  0  0  0  0  # atno 965  bound_to 957 
    0.7238   11.8224   11.0676 H   0  0  0  0  0  0  0  0  0  0  0  0  # atno 1886 bound_to 1878
   11.0159    2.4080   -2.6802 H   0  0  0  0  0  0  0  0  0  0  0  0  # atno 2577 bound_to 2569
    7.3874    5.2765    1.1266 H   0  0  0  0  0  0  0  0  0  0  0  0  # atno 2891 bound_to 2887
   18.5074    2.4984    0.3690 H   0  0  0  0  0  0  0  0  0  0  0  0  # atno 3175 bound_to 3171
   12.6450    9.9837    9.7465 H   0  0  0  0  0  0  0  0  0  0  0  0  # atno 5278 bound_to 5270
   17.2933   13.6238    6.5772 LP  0  0  0  0  0  0  0  0  0  0  0  0  # atno 5914 bound_to 677 
   16.1195   12.5423    6.2320 LP  0  0  0  0  0  0  0  0  0  0  0  0  # atno 5915 bound_to 677 
   21.0313   11.5550   -1.6136 LP  0  0  0  0  0  0  0  0  0  0  0  0  # atno 5920 bound_to 698 
   19.4234   11.8397   -1.5996 LP  0  0  0  0  0  0  0  0  0  0  0  0  # atno 5921 bound_to 698 
    9.4521    2.1260   -2.5786 LP  0  0  0  0  0  0  0  0  0  0  0  0  # atno 5950 bound_to 2569
   10.0196    3.4029   -3.4236 LP  0  0  0  0  0  0  0  0  0  0  0  0  # atno 5951 bound_to 2569
    7.5190    6.8441    1.3752 LP  0  0  0  0  0  0  0  0  0  0  0  0  # atno 5982 bound_to 2887
    8.3811    6.1075    0.2001 LP  0  0  0  0  0  0  0  0  0  0  0  0  # atno 5983 bound_to 2887
   18.0592    1.9991   -1.0751 LP  0  0  0  0  0  0  0  0  0  0  0  0  # atno 6000 bound_to 3171
   19.3516    2.9803   -0.8922 LP  0  0  0  0  0  0  0  0  0  0  0  0  # atno 6001 bound_to 3171
   14.1223    9.8394   10.3241 LP  0  0  0  0  0  0  0  0  0  0  0  0  # atno 6004 bound_to 5270
   13.8699   10.2233    8.7571 LP  0  0  0  0  0  0  0  0  0  0  0  0  # atno 6005 bound_to 5270
   10.8761   19.7312    8.8252 LP  0  0  0  0  0  0  0  0  0  0  0  0  # atno 6055 bound_to 637 
    9.5307   19.3710    7.9727 LP  0  0  0  0  0  0  0  0  0  0  0  0  # atno 6056 bound_to 637 
    2.1908   11.9383   10.4596 LP  0  0  0  0  0  0  0  0  0  0  0  0  # atno 6063 bound_to 1878
    1.4325   10.4948   10.5477 LP  0  0  0  0  0  0  0  0  0  0  0  0  # atno 6064 bound_to 1878
   -6.5418   16.9428   -1.3977 LP  0  0  0  0  0  0  0  0  0  0  0  0  # atno 6067 bound_to 957 
   -7.1968   16.5031    0.0321 LP  0  0  0  0  0  0  0  0  0  0  0  0  # atno 6068 bound_to 957 

>  <STRIFE_LigEff_Score>  (208) 
2.630184210526316

$$$$
unknown|pharmsElabsTestPreDocking|sdf|209|dock10
     RDKit          3D

 18 19  0  0  0  0  0  0  0  0999 V2000
   14.8406    7.7844    3.4538 C   0  0  0  0  0  0  0  0  0  0  0  0
   13.8907    8.1687    2.3094 C   0  0  0  0  0  0  0  0  0  0  0  0
   14.0315    7.2216    1.1976 N   0  0  0  0  0  0  0  0  0  0  0  0
   12.3905    8.4053    2.7028 C   0  0  0  0  0  0  0  0  0  0  0  0
   11.3799    7.3981    2.1235 C   0  0  0  0  0  0  0  0  0  0  0  0
    9.9786    7.9418    1.9275 C   0  0  0  0  0  0  0  0  0  0  0  0
    9.5381    8.8480    3.0720 C   0  0  0  0  0  0  0  0  0  0  0  0
    8.1035    9.2533    2.8560 C   0  0  0  0  0  0  0  0  0  0  0  0
    7.7981    9.8924    1.8136 O   0  0  0  0  0  0  0  0  0  0  0  0
    7.1204    8.9320    3.8517 N   0  0  0  0  0  0  0  0  0  0  0  0
    5.7085    9.2207    3.8057 C   0  0  0  0  0  0  0  0  0  0  0  0
    5.0689    9.6160    4.9905 C   0  0  0  0  0  0  0  0  0  0  0  0
    3.7070    9.9114    4.9936 C   0  0  0  0  0  0  0  0  0  0  0  0
    2.9838    9.8109    3.8072 C   0  0  0  0  0  0  0  0  0  0  0  0
    3.6052    9.4283    2.6644 N   0  0  0  0  0  0  0  0  0  0  0  0
    4.9288    9.1343    2.6308 C   0  0  0  0  0  0  0  0  0  0  0  0
   10.4209   10.0990    3.1478 C   0  0  0  0  0  0  0  0  0  0  0  0
   11.9358    9.8391    3.0465 C   0  0  0  0  0  0  0  0  0  0  0  0
  1  2  1  0
  2  3  1  0
  2  4  1  0
  4  5  1  0
  5  6  1  0
  6  7  1  0
  7  8  1  0
  8  9  2  0
  8 10  1  0
 10 11  1  0
 11 12  2  0
 12 13  1  0
 13 14  2  0
 14 15  1  0
 15 16  2  0
  7 17  1  0
 17 18  1  0
 18  4  1  0
 16 11  1  0
M  CHG  1   3   1
M  END
>  <EmbedRMS>  (209) 
0.16496192233382964

>  <Gold.Version>  (209) 
2020.3.0

>  <Gold.Id.Protein>  (209) 
unknown|1q8t_protein|pdb

>  <Gold.PLP.Fitness>  (209) 
52.0063

>  <Gold.PLP.PLP>  (209) 
-42.5665

>  <Gold.PLP.part.hbond>  (209) 
-2.0000

>  <Gold.PLP.part.metal>  (209) 
0.0000

>  <Gold.PLP.part.buried>  (209) 
-2.9128

>  <Gold.PLP.part.nonpolar>  (209) 
-37.8778

>  <Gold.PLP.part.repulsive>  (209) 
0.1326

>  <Gold.PLP.ligand.clash>  (209) 
0.0000

>  <Gold.PLP.ligand.torsion>  (209) 
1.4910

>  <Gold.PLP.Chemscore.Hbond>  (209) 
3.0000

>  <Gold.PLP.Chemscore.CHOScore>  (209) 
0.9543

>  <Gold.PLP.Chemscore.Metal>  (209) 
0.0000

>  <Gold.Chemscore.Hbonds>  (209) 
donor molecule, donor type, donor heavy atom, donor atom, acceptor molecule, acceptor atom, score
      L1  H     3    23       P1  2691  1.00
      L1  H     3    25       P1  2902  2.00
      L1  C    14    35       P1  1855  0.95

>  <Gold.PLP.Chemscore.Internal.Correction>  (209) 
0.5588

>  <Gold.PLP.Constraint>  (209) 
-0.0000

>  <Gold.Protein.RotatedTorsions>  (209) 
[  681  677  676  673 ] final   35.30 input -179.99 | X-H torsion
[  702  698  697  694 ] final  -67.12 input  179.99 | X-H torsion
[ 2577 2569 2568 2566 ] final -125.94 input   -0.13 | X-H torsion
[ 2891 2887 2886 2883 ] final  142.57 input  179.98 | X-H torsion
[ 3175 3171 3170 3167 ] final  108.15 input -179.99 | X-H torsion
[ 5278 5270 5269 5267 ] final  -61.71 input    0.55 | X-H torsion
[  641  637  636  633 ] final  102.09 input  179.99 | X-H torsion
[ 1886 1878 1877 1875 ] final   -9.71 input    1.60 | X-H torsion
[  965  957  956  954 ] final  -31.05 input    0.45 | X-H torsion

>  <Gold.Protein.ActiveResidues>  (209) 
 LYS47   THR48   LEU49   GLY50   THR51   GLY52   SER53   PHE54   GLY55   ARG56  
 VAL57   MET58   LEU59   TYR69   ALA70   MET71   LYS72   ILE73   LEU74   GLU91  
 LEU95   VAL104  LYS105  MET118  VAL119  MET120  GLU121  TYR122  VAL123  PRO124 
 GLY125  GLY126  GLU127  MET128  PHE129  TYR164  ASP166  LEU167  LYS168  PRO169 
 GLU170  ASN171  LEU172  LEU173  ILE174  GLN181  VAL182  THR183  ASP184  PHE185 
 GLY186  PHE187  GLY200  THR201  ASN326  PHE327  TYR330  ARG18   ARG19   ASN20  
 ALA21   ILE22   HIS23  

>  <Gold.Protein.RotatedAtoms>  (209) 
   10.5113   19.7526    8.8636 H   0  0  0  0  0  0  0  0  0  0  0  0  # atno 641  bound_to 637 
   16.3182   12.6086    6.1490 H   0  0  0  0  0  0  0  0  0  0  0  0  # atno 681  bound_to 677 
   20.3927   11.6588   -0.2543 H   0  0  0  0  0  0  0  0  0  0  0  0  # atno 702  bound_to 698 
   -6.5447   15.6441   -1.3793 H   0  0  0  0  0  0  0  0  0  0  0  0  # atno 965  bound_to 957 
    2.1996   11.1690   10.3055 H   0  0  0  0  0  0  0  0  0  0  0  0  # atno 1886 bound_to 1878
   11.0629    2.5623   -2.7838 H   0  0  0  0  0  0  0  0  0  0  0  0  # atno 2577 bound_to 2569
    7.7805    6.9424    1.0704 H   0  0  0  0  0  0  0  0  0  0  0  0  # atno 2891 bound_to 2887
   17.9864    1.9568   -0.8200 H   0  0  0  0  0  0  0  0  0  0  0  0  # atno 3175 bound_to 3171
   13.3220    9.8148   10.4598 H   0  0  0  0  0  0  0  0  0  0  0  0  # atno 5278 bound_to 5270
   15.7593   13.4649    7.3699 LP  0  0  0  0  0  0  0  0  0  0  0  0  # atno 5914 bound_to 677 
   17.2395   13.7617    6.7472 LP  0  0  0  0  0  0  0  0  0  0  0  0  # atno 5915 bound_to 677 
   20.9363   11.5744   -1.7493 LP  0  0  0  0  0  0  0  0  0  0  0  0  # atno 5920 bound_to 698 
   19.3550   11.8489   -1.4478 LP  0  0  0  0  0  0  0  0  0  0  0  0  # atno 5921 bound_to 698 
    9.5965    2.0153   -2.4911 LP  0  0  0  0  0  0  0  0  0  0  0  0  # atno 5950 bound_to 2569
    9.8256    3.3511   -3.4019 LP  0  0  0  0  0  0  0  0  0  0  0  0  # atno 5951 bound_to 2569
    8.2844    5.6979    0.2140 LP  0  0  0  0  0  0  0  0  0  0  0  0  # atno 5982 bound_to 2887
    7.2019    5.5005    1.4205 LP  0  0  0  0  0  0  0  0  0  0  0  0  # atno 5983 bound_to 2887
   19.2512    2.8760   -1.1213 LP  0  0  0  0  0  0  0  0  0  0  0  0  # atno 6000 bound_to 3171
   18.7080    2.6735    0.4053 LP  0  0  0  0  0  0  0  0  0  0  0  0  # atno 6001 bound_to 3171
   14.4340   10.0826    9.3514 LP  0  0  0  0  0  0  0  0  0  0  0  0  # atno 6004 bound_to 5270
   12.8458   10.1578    8.9792 LP  0  0  0  0  0  0  0  0  0  0  0  0  # atno 6005 bound_to 5270
    9.6326   19.2031    7.6549 LP  0  0  0  0  0  0  0  0  0  0  0  0  # atno 6055 bound_to 637 
   11.2617   19.0955    7.6225 LP  0  0  0  0  0  0  0  0  0  0  0  0  # atno 6056 bound_to 637 
    0.7683   10.7889   10.8907 LP  0  0  0  0  0  0  0  0  0  0  0  0  # atno 6063 bound_to 1878
    1.3015   12.3321   10.9188 LP  0  0  0  0  0  0  0  0  0  0  0  0  # atno 6064 bound_to 1878
   -6.7170   17.1827   -1.0078 LP  0  0  0  0  0  0  0  0  0  0  0  0  # atno 6067 bound_to 957 
   -7.1982   16.0129    0.0249 LP  0  0  0  0  0  0  0  0  0  0  0  0  # atno 6068 bound_to 957 

>  <STRIFE_LigEff_Score>  (209) 
2.889238888888889

$$$$
unknown|pharmsElabsTestPreDocking|sdf|210|dock5
     RDKit          3D

 19 20  0  0  0  0  0  0  0  0999 V2000
   14.9701    7.1195    3.2818 C   0  0  0  0  0  0  0  0  0  0  0  0
   13.6825    7.2224    2.4659 C   0  0  0  0  0  0  0  0  0  0  0  0
   13.8146    8.1481    1.3389 N   0  0  0  0  0  0  0  0  0  0  0  0
   12.3422    7.3964    3.2219 C   0  0  0  0  0  0  0  0  0  0  0  0
   11.1068    7.0712    2.3698 C   0  0  0  0  0  0  0  0  0  0  0  0
    9.7815    7.6336    2.8569 C   0  0  0  0  0  0  0  0  0  0  0  0
    9.9027    9.0445    3.3746 C   0  0  0  0  0  0  0  0  0  0  0  0
    8.5874    9.7424    3.5593 C   0  0  0  0  0  0  0  0  0  0  0  0
    8.0628   10.1630    2.4991 O   0  0  0  0  0  0  0  0  0  0  0  0
    7.9118    9.9736    4.8084 N   0  0  0  0  0  0  0  0  0  0  0  0
    6.6828   10.7828    4.7943 C   0  0  0  0  0  0  0  0  0  0  0  0
    5.5318   10.0486    4.1765 C   0  0  0  0  0  0  0  0  0  0  0  0
    5.3281   10.0959    2.7886 C   0  0  0  0  0  0  0  0  0  0  0  0
    4.2639    9.3979    2.2118 C   0  0  0  0  0  0  0  0  0  0  0  0
    3.4003    8.6487    3.0159 C   0  0  0  0  0  0  0  0  0  0  0  0
    3.5975    8.5993    4.3989 C   0  0  0  0  0  0  0  0  0  0  0  0
    4.6607    9.2960    4.9797 C   0  0  0  0  0  0  0  0  0  0  0  0
   10.9636    9.2901    4.4106 C   0  0  0  0  0  0  0  0  0  0  0  0
   12.3259    8.7492    3.9821 C   0  0  0  0  0  0  0  0  0  0  0  0
  1  2  1  0
  2  3  1  0
  2  4  1  0
  4  5  1  0
  5  6  1  0
  6  7  1  0
  7  8  1  0
  8  9  2  0
  8 10  1  0
 10 11  1  0
 11 12  1  0
 12 13  2  0
 13 14  1  0
 14 15  2  0
 15 16  1  0
 16 17  2  0
  7 18  1  0
 18 19  1  0
 19  4  1  0
 17 12  1  0
M  CHG  1   3   1
M  END
>  <EmbedRMS>  (210) 
0.2846631031672363

>  <Gold.Version>  (210) 
2020.3.0

>  <Gold.Id.Protein>  (210) 
unknown|1q8t_protein|pdb

>  <Gold.PLP.Fitness>  (210) 
52.4769

>  <Gold.PLP.PLP>  (210) 
-47.9974

>  <Gold.PLP.part.hbond>  (210) 
-1.0000

>  <Gold.PLP.part.metal>  (210) 
0.0000

>  <Gold.PLP.part.buried>  (210) 
-2.5762

>  <Gold.PLP.part.nonpolar>  (210) 
-43.8906

>  <Gold.PLP.part.repulsive>  (210) 
0.0103

>  <Gold.PLP.ligand.clash>  (210) 
0.0000

>  <Gold.PLP.ligand.torsion>  (210) 
1.0722

>  <Gold.PLP.Chemscore.Hbond>  (210) 
2.0000

>  <Gold.PLP.Chemscore.CHOScore>  (210) 
0.0000

>  <Gold.PLP.Chemscore.Metal>  (210) 
0.0000

>  <Gold.Chemscore.Hbonds>  (210) 
donor molecule, donor type, donor heavy atom, donor atom, acceptor molecule, acceptor atom, score
      L1  H     3    26       P1  2902  2.00

>  <Gold.PLP.Chemscore.Internal.Correction>  (210) 
0.6239

>  <Gold.PLP.Constraint>  (210) 
-0.0000

>  <Gold.Protein.RotatedTorsions>  (210) 
[  681  677  676  673 ] final -151.62 input -179.99 | X-H torsion
[  702  698  697  694 ] final    7.18 input  179.99 | X-H torsion
[ 2577 2569 2568 2566 ] final   76.43 input   -0.13 | X-H torsion
[ 2891 2887 2886 2883 ] final -163.91 input  179.98 | X-H torsion
[ 3175 3171 3170 3167 ] final  173.21 input -179.99 | X-H torsion
[ 5278 5270 5269 5267 ] final   35.97 input    0.55 | X-H torsion
[  641  637  636  633 ] final  -23.68 input  179.99 | X-H torsion
[ 1886 1878 1877 1875 ] final -115.19 input    1.60 | X-H torsion
[  965  957  956  954 ] final   35.32 input    0.45 | X-H torsion

>  <Gold.Protein.ActiveResidues>  (210) 
 LYS47   THR48   LEU49   GLY50   THR51   GLY52   SER53   PHE54   GLY55   ARG56  
 VAL57   MET58   LEU59   TYR69   ALA70   MET71   LYS72   ILE73   LEU74   GLU91  
 LEU95   VAL104  LYS105  MET118  VAL119  MET120  GLU121  TYR122  VAL123  PRO124 
 GLY125  GLY126  GLU127  MET128  PHE129  TYR164  ASP166  LEU167  LYS168  PRO169 
 GLU170  ASN171  LEU172  LEU173  ILE174  GLN181  VAL182  THR183  ASP184  PHE185 
 GLY186  PHE187  GLY200  THR201  ASN326  PHE327  TYR330  ARG18   ARG19   ASN20  
 ALA21   ILE22   HIS23  

>  <Gold.Protein.RotatedAtoms>  (210) 
    9.7192   19.1589    7.6144 H   0  0  0  0  0  0  0  0  0  0  0  0  # atno 641  bound_to 637 
   16.6438   13.9540    7.2812 H   0  0  0  0  0  0  0  0  0  0  0  0  # atno 681  bound_to 677 
   19.4405   11.8369   -0.7374 H   0  0  0  0  0  0  0  0  0  0  0  0  # atno 702  bound_to 698 
   -6.9426   15.4308   -0.5094 H   0  0  0  0  0  0  0  0  0  0  0  0  # atno 965  bound_to 957 
    0.9455   10.6805   10.7751 H   0  0  0  0  0  0  0  0  0  0  0  0  # atno 1886 bound_to 1878
    9.3118    2.4240   -2.8161 H   0  0  0  0  0  0  0  0  0  0  0  0  # atno 2577 bound_to 2569
    7.2898    6.4992    1.5326 H   0  0  0  0  0  0  0  0  0  0  0  0  # atno 2891 bound_to 2887
   18.0964    2.1607    0.1150 H   0  0  0  0  0  0  0  0  0  0  0  0  # atno 3175 bound_to 3171
   12.6944   10.0946    9.2987 H   0  0  0  0  0  0  0  0  0  0  0  0  # atno 5278 bound_to 5270
   17.0502   12.9795    6.0890 LP  0  0  0  0  0  0  0  0  0  0  0  0  # atno 5914 bound_to 677 
   15.6059   12.8310    6.8365 LP  0  0  0  0  0  0  0  0  0  0  0  0  # atno 5915 bound_to 677 
   21.0008   11.5411   -0.6129 LP  0  0  0  0  0  0  0  0  0  0  0  0  # atno 5920 bound_to 698 
   20.2922   11.6949   -2.0760 LP  0  0  0  0  0  0  0  0  0  0  0  0  # atno 5921 bound_to 698 
   10.4318    3.3990   -3.3908 LP  0  0  0  0  0  0  0  0  0  0  0  0  # atno 5950 bound_to 2569
   10.8342    2.1130   -2.4683 LP  0  0  0  0  0  0  0  0  0  0  0  0  # atno 5951 bound_to 2569
    8.3470    6.5348    0.3420 LP  0  0  0  0  0  0  0  0  0  0  0  0  # atno 5982 bound_to 2887
    7.6558    5.1300    0.8061 LP  0  0  0  0  0  0  0  0  0  0  0  0  # atno 5983 bound_to 2887
   18.4928    2.2747   -1.4231 LP  0  0  0  0  0  0  0  0  0  0  0  0  # atno 6000 bound_to 3171
   19.3506    3.0602   -0.2768 LP  0  0  0  0  0  0  0  0  0  0  0  0  # atno 6001 bound_to 3171
   13.6759    9.7877   10.5149 LP  0  0  0  0  0  0  0  0  0  0  0  0  # atno 6004 bound_to 5270
   14.2643   10.1583    9.0374 LP  0  0  0  0  0  0  0  0  0  0  0  0  # atno 6005 bound_to 5270
   11.3089   19.1309    7.6970 LP  0  0  0  0  0  0  0  0  0  0  0  0  # atno 6055 bound_to 637 
   10.4196   19.7928    8.8960 LP  0  0  0  0  0  0  0  0  0  0  0  0  # atno 6056 bound_to 637 
    1.0918   12.2504   10.9973 LP  0  0  0  0  0  0  0  0  0  0  0  0  # atno 6063 bound_to 1878
    2.2983   11.3849   10.3178 LP  0  0  0  0  0  0  0  0  0  0  0  0  # atno 6064 bound_to 1878
   -6.4338   16.4227   -1.6461 LP  0  0  0  0  0  0  0  0  0  0  0  0  # atno 6067 bound_to 957 
   -7.0624   16.9976   -0.2529 LP  0  0  0  0  0  0  0  0  0  0  0  0  # atno 6068 bound_to 957 

>  <STRIFE_LigEff_Score>  (210) 
2.761942105263158

$$$$
unknown|pharmsElabsTestPreDocking|sdf|211|dock7
     RDKit          3D

 19 20  0  0  0  0  0  0  0  0999 V2000
   14.7137    7.0776    2.9972 C   0  0  0  0  0  0  0  0  0  0  0  0
   13.4149    7.2867    2.2203 C   0  0  0  0  0  0  0  0  0  0  0  0
   13.5489    8.3141    1.1855 N   0  0  0  0  0  0  0  0  0  0  0  0
   12.0922    7.4155    3.0155 C   0  0  0  0  0  0  0  0  0  0  0  0
   10.8443    7.0451    2.2009 C   0  0  0  0  0  0  0  0  0  0  0  0
    9.5152    7.5624    2.7262 C   0  0  0  0  0  0  0  0  0  0  0  0
    9.6022    8.9782    3.2381 C   0  0  0  0  0  0  0  0  0  0  0  0
    8.2691    9.6298    3.4614 C   0  0  0  0  0  0  0  0  0  0  0  0
    7.8968   10.3940    2.5376 O   0  0  0  0  0  0  0  0  0  0  0  0
    7.4232    9.4685    4.6137 N   0  0  0  0  0  0  0  0  0  0  0  0
    6.1873   10.2634    4.6875 C   0  0  0  0  0  0  0  0  0  0  0  0
    5.1366    9.7529    3.7563 C   0  0  0  0  0  0  0  0  0  0  0  0
    5.2878    9.5276    2.4020 C   0  0  0  0  0  0  0  0  0  0  0  0
    4.1453    9.0254    1.8925 N   0  0  0  0  0  0  0  0  0  0  0  0
    3.2603    8.9230    2.9032 C   0  0  0  0  0  0  0  0  0  0  0  0
    3.8478    9.3661    4.0664 C   0  0  0  0  0  0  0  0  0  0  0  0
    3.2240    9.3944    5.3497 N   0  0  0  0  0  0  0  0  0  0  0  0
   10.6839    9.2627    4.2421 C   0  0  0  0  0  0  0  0  0  0  0  0
   12.0510    8.7686    3.7740 C   0  0  0  0  0  0  0  0  0  0  0  0
  1  2  1  0
  2  3  1  0
  2  4  1  0
  4  5  1  0
  5  6  1  0
  6  7  1  0
  7  8  1  0
  8  9  2  0
  8 10  1  0
 10 11  1  0
 11 12  1  0
 12 13  2  0
 13 14  1  0
 14 15  1  0
 15 16  2  0
 16 17  1  0
  7 18  1  0
 18 19  1  0
 19  4  1  0
 16 12  1  0
M  CHG  1   3   1
M  END
>  <EmbedRMS>  (211) 
0.2848972241218716

>  <Gold.Version>  (211) 
2020.3.0

>  <Gold.Id.Protein>  (211) 
unknown|1q8t_protein|pdb

>  <Gold.PLP.Fitness>  (211) 
57.4193

>  <Gold.PLP.PLP>  (211) 
-43.5919

>  <Gold.PLP.part.hbond>  (211) 
-3.0000

>  <Gold.PLP.part.metal>  (211) 
0.0000

>  <Gold.PLP.part.buried>  (211) 
-2.4256

>  <Gold.PLP.part.nonpolar>  (211) 
-38.9370

>  <Gold.PLP.part.repulsive>  (211) 
0.0032

>  <Gold.PLP.ligand.clash>  (211) 
0.0000

>  <Gold.PLP.ligand.torsion>  (211) 
0.6038

>  <Gold.PLP.Chemscore.Hbond>  (211) 
4.4000

>  <Gold.PLP.Chemscore.CHOScore>  (211) 
0.4119

>  <Gold.PLP.Chemscore.Metal>  (211) 
0.0000

>  <Gold.Chemscore.Hbonds>  (211) 
donor molecule, donor type, donor heavy atom, donor atom, acceptor molecule, acceptor atom, score
      L1  H     3    25       P1  2902  2.00
      L1  H    17    39       P1  1891  0.70
      L1  H    17    40       P1  1891  0.70
      P1  H  1888  1903       L1    17  0.99
      L1  C    15    38       P1  1855  0.41

>  <Gold.PLP.Chemscore.Internal.Correction>  (211) 
0.5994

>  <Gold.PLP.Constraint>  (211) 
-0.0000

>  <Gold.Protein.RotatedTorsions>  (211) 
[  681  677  676  673 ] final   37.13 input -179.99 | X-H torsion
[  702  698  697  694 ] final  161.44 input  179.99 | X-H torsion
[ 2577 2569 2568 2566 ] final  153.98 input   -0.13 | X-H torsion
[ 2891 2887 2886 2883 ] final  116.19 input  179.98 | X-H torsion
[ 3175 3171 3170 3167 ] final  127.09 input -179.99 | X-H torsion
[ 5278 5270 5269 5267 ] final  101.59 input    0.55 | X-H torsion
[  641  637  636  633 ] final   25.22 input  179.99 | X-H torsion
[ 1886 1878 1877 1875 ] final -113.70 input    1.60 | X-H torsion
[  965  957  956  954 ] final -156.55 input    0.45 | X-H torsion

>  <Gold.Protein.ActiveResidues>  (211) 
 LYS47   THR48   LEU49   GLY50   THR51   GLY52   SER53   PHE54   GLY55   ARG56  
 VAL57   MET58   LEU59   TYR69   ALA70   MET71   LYS72   ILE73   LEU74   GLU91  
 LEU95   VAL104  LYS105  MET118  VAL119  MET120  GLU121  TYR122  VAL123  PRO124 
 GLY125  GLY126  GLU127  MET128  PHE129  TYR164  ASP166  LEU167  LYS168  PRO169 
 GLU170  ASN171  LEU172  LEU173  ILE174  GLN181  VAL182  THR183  ASP184  PHE185 
 GLY186  PHE187  GLY200  THR201  ASN326  PHE327  TYR330  ARG18   ARG19   ASN20  
 ALA21   ILE22   HIS23  

>  <Gold.Protein.RotatedAtoms>  (211) 
    9.6085   19.4971    8.2645 H   0  0  0  0  0  0  0  0  0  0  0  0  # atno 641  bound_to 637 
   16.3441   12.6141    6.1385 H   0  0  0  0  0  0  0  0  0  0  0  0  # atno 681  bound_to 677 
   20.7773   11.6213   -1.8420 H   0  0  0  0  0  0  0  0  0  0  0  0  # atno 702  bound_to 698 
   -6.7421   17.1536   -0.9140 H   0  0  0  0  0  0  0  0  0  0  0  0  # atno 965  bound_to 957 
    0.9628   10.6685   10.7654 H   0  0  0  0  0  0  0  0  0  0  0  0  # atno 1886 bound_to 1878
   10.2067    1.9011   -2.3875 H   0  0  0  0  0  0  0  0  0  0  0  0  # atno 2577 bound_to 2569
    8.0410    6.8990    0.7582 H   0  0  0  0  0  0  0  0  0  0  0  0  # atno 2891 bound_to 2887
   17.9253    1.9492   -0.5318 H   0  0  0  0  0  0  0  0  0  0  0  0  # atno 3175 bound_to 3171
   13.4791   10.2393    8.7455 H   0  0  0  0  0  0  0  0  0  0  0  0  # atno 5278 bound_to 5270
   15.7428   13.4428    7.3582 LP  0  0  0  0  0  0  0  0  0  0  0  0  # atno 5914 bound_to 677 
   17.2288   13.7780    6.7699 LP  0  0  0  0  0  0  0  0  0  0  0  0  # atno 5915 bound_to 677 
   19.3108   11.8532   -1.2651 LP  0  0  0  0  0  0  0  0  0  0  0  0  # atno 5920 bound_to 698 
   20.5760   11.6096   -0.2619 LP  0  0  0  0  0  0  0  0  0  0  0  0  # atno 5921 bound_to 698 
    9.3473    2.9818   -3.1805 LP  0  0  0  0  0  0  0  0  0  0  0  0  # atno 5950 bound_to 2569
   10.9764    3.0808   -3.1299 LP  0  0  0  0  0  0  0  0  0  0  0  0  # atno 5951 bound_to 2569
    8.0778    5.3546    0.3711 LP  0  0  0  0  0  0  0  0  0  0  0  0  # atno 5982 bound_to 2887
    7.1343    5.8894    1.5920 LP  0  0  0  0  0  0  0  0  0  0  0  0  # atno 5983 bound_to 2887
   19.0742    2.7186   -1.3215 LP  0  0  0  0  0  0  0  0  0  0  0  0  # atno 6000 bound_to 3171
   18.9493    2.8388    0.3023 LP  0  0  0  0  0  0  0  0  0  0  0  0  # atno 6001 bound_to 3171
   12.7421    9.8778   10.1104 LP  0  0  0  0  0  0  0  0  0  0  0  0  # atno 6004 bound_to 5270
   14.3724    9.9161   10.0240 LP  0  0  0  0  0  0  0  0  0  0  0  0  # atno 6005 bound_to 5270
   10.6997   18.9365    7.2496 LP  0  0  0  0  0  0  0  0  0  0  0  0  # atno 6055 bound_to 637 
   11.1453   19.6311    8.6587 LP  0  0  0  0  0  0  0  0  0  0  0  0  # atno 6056 bound_to 637 
    1.0713   12.2390   11.0044 LP  0  0  0  0  0  0  0  0  0  0  0  0  # atno 6063 bound_to 1878
    2.3005   11.4090   10.3209 LP  0  0  0  0  0  0  0  0  0  0  0  0  # atno 6064 bound_to 1878
   -7.1870   15.9270   -0.0015 LP  0  0  0  0  0  0  0  0  0  0  0  0  # atno 6067 bound_to 957 
   -6.5204   15.6788   -1.4714 LP  0  0  0  0  0  0  0  0  0  0  0  0  # atno 6068 bound_to 957 

>  <STRIFE_LigEff_Score>  (211) 
3.0220684210526314

$$$$
unknown|pharmsElabsTestPreDocking|sdf|212|dock1
     RDKit          3D

 17 18  0  0  0  0  0  0  0  0999 V2000
   14.6686    8.0104    2.6969 C   0  0  0  0  0  0  0  0  0  0  0  0
   13.3026    7.9806    2.0130 C   0  0  0  0  0  0  0  0  0  0  0  0
   13.2209    8.9285    0.8999 N   0  0  0  0  0  0  0  0  0  0  0  0
   12.0335    7.9976    2.9000 C   0  0  0  0  0  0  0  0  0  0  0  0
   10.9034    7.0997    2.3758 C   0  0  0  0  0  0  0  0  0  0  0  0
    9.5085    7.3932    2.9016 C   0  0  0  0  0  0  0  0  0  0  0  0
    9.2229    8.8705    2.9991 C   0  0  0  0  0  0  0  0  0  0  0  0
    7.7712    9.1991    3.1830 C   0  0  0  0  0  0  0  0  0  0  0  0
    7.5575   10.0579    4.0682 O   0  0  0  0  0  0  0  0  0  0  0  0
    6.6626    8.6280    2.4551 N   0  0  0  0  0  0  0  0  0  0  0  0
    5.2813    8.9227    2.7856 C   0  0  0  0  0  0  0  0  0  0  0  0
    4.7482    9.2405    4.0340 C   0  0  0  0  0  0  0  0  0  0  0  0
    3.3975    9.4189    3.8410 C   0  0  0  0  0  0  0  0  0  0  0  0
    3.0841    9.2234    2.5479 N   0  0  0  0  0  0  0  0  0  0  0  0
    4.2236    8.9198    1.8963 C   0  0  0  0  0  0  0  0  0  0  0  0
   10.2238    9.7037    3.7468 C   0  0  0  0  0  0  0  0  0  0  0  0
   11.6518    9.4574    3.2640 C   0  0  0  0  0  0  0  0  0  0  0  0
  1  2  1  0
  2  3  1  0
  2  4  1  0
  4  5  1  0
  5  6  1  0
  6  7  1  0
  7  8  1  0
  8  9  2  0
  8 10  1  0
 10 11  1  0
 11 12  1  0
 12 13  2  0
 13 14  1  0
 14 15  1  0
  7 16  1  0
 16 17  1  0
 17  4  1  0
 15 11  2  0
M  CHG  1   3   1
M  END
>  <EmbedRMS>  (212) 
0.3005329260886256

>  <Gold.Version>  (212) 
2020.3.0

>  <Gold.Id.Protein>  (212) 
unknown|1q8t_protein|pdb

>  <Gold.PLP.Fitness>  (212) 
48.7876

>  <Gold.PLP.PLP>  (212) 
-40.3346

>  <Gold.PLP.part.hbond>  (212) 
-2.7138

>  <Gold.PLP.part.metal>  (212) 
0.0000

>  <Gold.PLP.part.buried>  (212) 
-4.1360

>  <Gold.PLP.part.nonpolar>  (212) 
-33.0922

>  <Gold.PLP.part.repulsive>  (212) 
0.0831

>  <Gold.PLP.ligand.clash>  (212) 
0.0000

>  <Gold.PLP.ligand.torsion>  (212) 
0.9946

>  <Gold.PLP.Chemscore.Hbond>  (212) 
3.2730

>  <Gold.PLP.Chemscore.CHOScore>  (212) 
0.0000

>  <Gold.PLP.Chemscore.Metal>  (212) 
0.0000

>  <Gold.Chemscore.Hbonds>  (212) 
donor molecule, donor type, donor heavy atom, donor atom, acceptor molecule, acceptor atom, score
      L1  H     3    23       P1  2902  2.00
      L1  H    10    31       P1  2887  0.27
      L1  H    14    34       P1  1855  1.00

>  <Gold.PLP.Chemscore.Internal.Correction>  (212) 
0.6233

>  <Gold.PLP.Constraint>  (212) 
-0.0000

>  <Gold.Protein.RotatedTorsions>  (212) 
[  681  677  676  673 ] final   55.13 input -179.99 | X-H torsion
[  702  698  697  694 ] final   59.59 input  179.99 | X-H torsion
[ 2577 2569 2568 2566 ] final   55.59 input   -0.13 | X-H torsion
[ 2891 2887 2886 2883 ] final   44.99 input  179.98 | X-H torsion
[ 3175 3171 3170 3167 ] final   16.45 input -179.99 | X-H torsion
[ 5278 5270 5269 5267 ] final   -2.69 input    0.55 | X-H torsion
[  641  637  636  633 ] final   79.21 input  179.99 | X-H torsion
[ 1886 1878 1877 1875 ] final  -65.42 input    1.60 | X-H torsion
[  965  957  956  954 ] final  163.69 input    0.45 | X-H torsion

>  <Gold.Protein.ActiveResidues>  (212) 
 LYS47   THR48   LEU49   GLY50   THR51   GLY52   SER53   PHE54   GLY55   ARG56  
 VAL57   MET58   LEU59   TYR69   ALA70   MET71   LYS72   ILE73   LEU74   GLU91  
 LEU95   VAL104  LYS105  MET118  VAL119  MET120  GLU121  TYR122  VAL123  PRO124 
 GLY125  GLY126  GLU127  MET128  PHE129  TYR164  ASP166  LEU167  LYS168  PRO169 
 GLU170  ASN171  LEU172  LEU173  ILE174  GLN181  VAL182  THR183  ASP184  PHE185 
 GLY186  PHE187  GLY200  THR201  ASN326  PHE327  TYR330  ARG18   ARG19   ASN20  
 ALA21   ILE22   HIS23  

>  <Gold.Protein.RotatedAtoms>  (212) 
   10.1606   19.7436    8.8077 H   0  0  0  0  0  0  0  0  0  0  0  0  # atno 641  bound_to 637 
   16.6003   12.7032    6.0681 H   0  0  0  0  0  0  0  0  0  0  0  0  # atno 681  bound_to 677 
   19.4413   11.8520   -1.5288 H   0  0  0  0  0  0  0  0  0  0  0  0  # atno 702  bound_to 698 
   -6.9905   17.0360   -0.3706 H   0  0  0  0  0  0  0  0  0  0  0  0  # atno 965  bound_to 957 
    1.6229   10.5826   10.4598 H   0  0  0  0  0  0  0  0  0  0  0  0  # atno 1886 bound_to 1878
    9.2900    2.6886   -3.0015 H   0  0  0  0  0  0  0  0  0  0  0  0  # atno 2577 bound_to 2569
    8.3324    6.0555    0.2186 H   0  0  0  0  0  0  0  0  0  0  0  0  # atno 2891 bound_to 2887
   18.9613    2.6102   -1.3440 H   0  0  0  0  0  0  0  0  0  0  0  0  # atno 3175 bound_to 3171
   12.6759    9.9525    9.8743 H   0  0  0  0  0  0  0  0  0  0  0  0  # atno 5278 bound_to 5270
   15.6194   13.2182    7.2120 LP  0  0  0  0  0  0  0  0  0  0  0  0  # atno 5914 bound_to 677 
   17.0825   13.9088    6.9902 LP  0  0  0  0  0  0  0  0  0  0  0  0  # atno 5915 bound_to 677 
   20.2903   11.6589   -0.1949 LP  0  0  0  0  0  0  0  0  0  0  0  0  # atno 5920 bound_to 698 
   21.0018   11.5611   -1.6615 LP  0  0  0  0  0  0  0  0  0  0  0  0  # atno 5921 bound_to 698 
   10.7374    3.2862   -3.2900 LP  0  0  0  0  0  0  0  0  0  0  0  0  # atno 5950 bound_to 2569
   10.5516    1.9472   -2.3739 LP  0  0  0  0  0  0  0  0  0  0  0  0  # atno 5951 bound_to 2569
    7.3520    5.2593    1.1889 LP  0  0  0  0  0  0  0  0  0  0  0  0  # atno 5982 bound_to 2887
    7.5535    6.8726    1.3420 LP  0  0  0  0  0  0  0  0  0  0  0  0  # atno 5983 bound_to 2887
   19.0577    2.9079    0.2173 LP  0  0  0  0  0  0  0  0  0  0  0  0  # atno 6000 bound_to 3171
   17.8755    1.9538   -0.3818 LP  0  0  0  0  0  0  0  0  0  0  0  0  # atno 6001 bound_to 3171
   14.2259    9.8638   10.2298 LP  0  0  0  0  0  0  0  0  0  0  0  0  # atno 6004 bound_to 5270
   13.7338   10.2318    8.7169 LP  0  0  0  0  0  0  0  0  0  0  0  0  # atno 6005 bound_to 5270
    9.8663   19.0600    7.4002 LP  0  0  0  0  0  0  0  0  0  0  0  0  # atno 6055 bound_to 637 
   11.3973   19.2480    7.9360 LP  0  0  0  0  0  0  0  0  0  0  0  0  # atno 6056 bound_to 637 
    0.6101   11.6290   11.1037 LP  0  0  0  0  0  0  0  0  0  0  0  0  # atno 6063 bound_to 1878
    2.0668   12.1094   10.5434 LP  0  0  0  0  0  0  0  0  0  0  0  0  # atno 6064 bound_to 1878
   -7.0160   15.4441   -0.3873 LP  0  0  0  0  0  0  0  0  0  0  0  0  # atno 6067 bound_to 957 
   -6.4297   16.2856   -1.6580 LP  0  0  0  0  0  0  0  0  0  0  0  0  # atno 6068 bound_to 957 

>  <STRIFE_LigEff_Score>  (212) 
2.8698588235294116

$$$$
unknown|pharmsElabsTestPreDocking|sdf|213|dock10
     RDKit          3D

 16 16  0  0  0  0  0  0  0  0999 V2000
   14.3591    8.0105    3.2995 C   0  0  0  0  0  0  0  0  0  0  0  0
   13.3725    8.1586    2.1289 C   0  0  0  0  0  0  0  0  0  0  0  0
   13.6426    7.1396    1.1103 N   0  0  0  0  0  0  0  0  0  0  0  0
   11.8502    8.2435    2.5069 C   0  0  0  0  0  0  0  0  0  0  0  0
   10.9089    7.7420    1.4128 C   0  0  0  0  0  0  0  0  0  0  0  0
    9.4309    7.7694    1.7692 C   0  0  0  0  0  0  0  0  0  0  0  0
    9.0255    9.0182    2.5142 C   0  0  0  0  0  0  0  0  0  0  0  0
    7.5406    9.2017    2.6240 C   0  0  0  0  0  0  0  0  0  0  0  0
    6.8861    8.7870    1.6379 O   0  0  0  0  0  0  0  0  0  0  0  0
    6.8374    9.7902    3.7309 N   0  0  0  0  0  0  0  0  0  0  0  0
    5.3938   10.0501    3.6328 C   0  0  0  0  0  0  0  0  0  0  0  0
    4.7262    9.7760    4.9589 C   0  0  0  0  0  0  0  0  0  0  0  0
    3.5995    8.8984    5.0327 N   0  0  0  0  0  0  0  0  0  0  0  0
    5.1046   10.4046    6.0279 N   0  0  0  0  0  0  0  0  0  0  0  0
    9.8797    9.4328    3.6910 C   0  0  0  0  0  0  0  0  0  0  0  0
   11.3728    9.4578    3.3276 C   0  0  0  0  0  0  0  0  0  0  0  0
  1  2  1  0
  2  3  1  0
  2  4  1  0
  4  5  1  0
  5  6  1  0
  6  7  1  0
  7  8  1  0
  8  9  2  0
  8 10  1  0
 10 11  1  0
 11 12  1  0
 12 13  1  0
 12 14  2  0
  7 15  1  0
 15 16  1  0
 16  4  1  0
M  CHG  2   3   1  14   1
M  END
>  <EmbedRMS>  (213) 
0.2782345982766255

>  <Gold.Version>  (213) 
2020.3.0

>  <Gold.Id.Protein>  (213) 
unknown|1q8t_protein|pdb

>  <Gold.PLP.Fitness>  (213) 
40.3960

>  <Gold.PLP.PLP>  (213) 
-26.9944

>  <Gold.PLP.part.hbond>  (213) 
-4.0000

>  <Gold.PLP.part.metal>  (213) 
0.0000

>  <Gold.PLP.part.buried>  (213) 
0.7957

>  <Gold.PLP.part.nonpolar>  (213) 
-23.9471

>  <Gold.PLP.part.repulsive>  (213) 
0.1437

>  <Gold.PLP.ligand.clash>  (213) 
0.0000

>  <Gold.PLP.ligand.torsion>  (213) 
1.0054

>  <Gold.PLP.Chemscore.Hbond>  (213) 
4.8633

>  <Gold.PLP.Chemscore.CHOScore>  (213) 
0.0000

>  <Gold.PLP.Chemscore.Metal>  (213) 
0.0000

>  <Gold.Chemscore.Hbonds>  (213) 
donor molecule, donor type, donor heavy atom, donor atom, acceptor molecule, acceptor atom, score
      L1  H     3    21       P1  2902  2.00
      L1  H     3    23       P1  2691  0.99
      L1  H    13    34       P1  1891  0.99
      P1  H  2887  2891       L1     9  0.88

>  <Gold.PLP.Chemscore.Internal.Correction>  (213) 
0.8227

>  <Gold.PLP.Constraint>  (213) 
-0.0000

>  <Gold.Protein.RotatedTorsions>  (213) 
[  681  677  676  673 ] final  -50.11 input -179.99 | X-H torsion
[  702  698  697  694 ] final  158.47 input  179.99 | X-H torsion
[ 2577 2569 2568 2566 ] final  158.25 input   -0.13 | X-H torsion
[ 2891 2887 2886 2883 ] final  161.40 input  179.98 | X-H torsion
[ 3175 3171 3170 3167 ] final  134.18 input -179.99 | X-H torsion
[ 5278 5270 5269 5267 ] final  -45.10 input    0.55 | X-H torsion
[  641  637  636  633 ] final  141.82 input  179.99 | X-H torsion
[ 1886 1878 1877 1875 ] final  177.66 input    1.60 | X-H torsion
[  965  957  956  954 ] final  119.03 input    0.45 | X-H torsion

>  <Gold.Protein.ActiveResidues>  (213) 
 LYS47   THR48   LEU49   GLY50   THR51   GLY52   SER53   PHE54   GLY55   ARG56  
 VAL57   MET58   LEU59   TYR69   ALA70   MET71   LYS72   ILE73   LEU74   GLU91  
 LEU95   VAL104  LYS105  MET118  VAL119  MET120  GLU121  TYR122  VAL123  PRO124 
 GLY125  GLY126  GLU127  MET128  PHE129  TYR164  ASP166  LEU167  LYS168  PRO169 
 GLU170  ASN171  LEU172  LEU173  ILE174  GLN181  VAL182  THR183  ASP184  PHE185 
 GLY186  PHE187  GLY200  THR201  ASN326  PHE327  TYR330  ARG18   ARG19   ASN20  
 ALA21   ILE22   HIS23  

>  <Gold.Protein.RotatedAtoms>  (213) 
   11.0723   19.6214    8.6681 H   0  0  0  0  0  0  0  0  0  0  0  0  # atno 641  bound_to 637 
   15.6141   13.0585    7.0313 H   0  0  0  0  0  0  0  0  0  0  0  0  # atno 681  bound_to 677 
   20.7406   11.6283   -1.8696 H   0  0  0  0  0  0  0  0  0  0  0  0  # atno 702  bound_to 698 
   -7.1630   16.4903   -0.0029 H   0  0  0  0  0  0  0  0  0  0  0  0  # atno 965  bound_to 957 
    0.6334   11.5746   11.0652 H   0  0  0  0  0  0  0  0  0  0  0  0  # atno 1886 bound_to 1878
   10.2731    1.9072   -2.3869 H   0  0  0  0  0  0  0  0  0  0  0  0  # atno 2577 bound_to 2569
    7.5871    6.8605    1.2748 H   0  0  0  0  0  0  0  0  0  0  0  0  # atno 2891 bound_to 2887
   17.9223    1.9615   -0.4217 H   0  0  0  0  0  0  0  0  0  0  0  0  # atno 3175 bound_to 3171
   13.0815    9.8354   10.3661 H   0  0  0  0  0  0  0  0  0  0  0  0  # atno 5278 bound_to 5270
   16.9147   13.9692    7.1541 LP  0  0  0  0  0  0  0  0  0  0  0  0  # atno 5914 bound_to 677 
   16.8252   12.7839    6.0344 LP  0  0  0  0  0  0  0  0  0  0  0  0  # atno 5915 bound_to 677 
   19.3052   11.8533   -1.2166 LP  0  0  0  0  0  0  0  0  0  0  0  0  # atno 5920 bound_to 698 
   20.6201   11.6021   -0.2814 LP  0  0  0  0  0  0  0  0  0  0  0  0  # atno 5921 bound_to 698 
    9.3165    2.9289   -3.1460 LP  0  0  0  0  0  0  0  0  0  0  0  0  # atno 5950 bound_to 2569
   10.9373    3.1273   -3.1650 LP  0  0  0  0  0  0  0  0  0  0  0  0  # atno 5951 bound_to 2569
    8.3668    5.9941    0.1895 LP  0  0  0  0  0  0  0  0  0  0  0  0  # atno 5982 bound_to 2887
    7.3231    5.2905    1.2299 LP  0  0  0  0  0  0  0  0  0  0  0  0  # atno 5983 bound_to 2887
   18.9944    2.6525   -1.3750 LP  0  0  0  0  0  0  0  0  0  0  0  0  # atno 6000 bound_to 3171
   19.0323    2.8920    0.2399 LP  0  0  0  0  0  0  0  0  0  0  0  0  # atno 6001 bound_to 3171
   14.4731   10.0184    9.6133 LP  0  0  0  0  0  0  0  0  0  0  0  0  # atno 6004 bound_to 5270
   13.0597   10.2003    8.8159 LP  0  0  0  0  0  0  0  0  0  0  0  0  # atno 6005 bound_to 5270
    9.5501   19.4957    8.2189 LP  0  0  0  0  0  0  0  0  0  0  0  0  # atno 6055 bound_to 637 
   10.7534   18.9411    7.2644 LP  0  0  0  0  0  0  0  0  0  0  0  0  # atno 6056 bound_to 637 
    2.0338   12.1424   10.5636 LP  0  0  0  0  0  0  0  0  0  0  0  0  # atno 6063 bound_to 1878
    1.6847   10.5515   10.4461 LP  0  0  0  0  0  0  0  0  0  0  0  0  # atno 6064 bound_to 1878
   -6.7219   15.3612   -1.0352 LP  0  0  0  0  0  0  0  0  0  0  0  0  # atno 6067 bound_to 957 
   -6.5421   16.9433   -1.3973 LP  0  0  0  0  0  0  0  0  0  0  0  0  # atno 6068 bound_to 957 

>  <STRIFE_LigEff_Score>  (213) 
2.52475

$$$$
unknown|pharmsElabsTestPreDocking|sdf|214|dock5
     RDKit          3D

 18 18  0  0  0  0  0  0  0  0999 V2000
    3.2997    8.7983    2.7288 C   0  0  0  0  0  0  0  0  0  0  0  0
    4.5748    9.1391    2.5240 C   0  0  0  0  0  0  0  0  0  0  0  0
    5.1060    9.2086    1.1144 C   0  0  0  0  0  0  0  0  0  0  0  0
    5.4858    9.3018    3.6954 C   0  0  0  0  0  0  0  0  0  0  0  0
    5.0922   10.0444    4.7473 C   0  0  0  0  0  0  0  0  0  0  0  0
    5.9564   10.2832    5.9465 C   0  0  0  0  0  0  0  0  0  0  0  0
    6.8281    8.7746    3.6682 N   0  0  0  0  0  0  0  0  0  0  0  0
    7.8687    9.2309    2.7956 C   0  0  0  0  0  0  0  0  0  0  0  0
    7.6179   10.0586    1.8739 O   0  0  0  0  0  0  0  0  0  0  0  0
    9.2763    8.7210    2.9972 C   0  0  0  0  0  0  0  0  0  0  0  0
    9.7280    7.9563    1.7589 C   0  0  0  0  0  0  0  0  0  0  0  0
   11.0922    7.3138    1.9363 C   0  0  0  0  0  0  0  0  0  0  0  0
   12.1211    8.1698    2.6991 C   0  0  0  0  0  0  0  0  0  0  0  0
   13.6277    7.9056    2.3457 C   0  0  0  0  0  0  0  0  0  0  0  0
   14.4919    7.3029    3.4636 C   0  0  0  0  0  0  0  0  0  0  0  0
   13.7822    7.1248    1.1129 N   0  0  0  0  0  0  0  0  0  0  0  0
   11.7205    9.5638    3.2259 C   0  0  0  0  0  0  0  0  0  0  0  0
   10.2169    9.8963    3.2845 C   0  0  0  0  0  0  0  0  0  0  0  0
  1  2  2  0
  2  3  1  0
  2  4  1  0
  4  5  2  0
  5  6  1  0
  4  7  1  0
  7  8  1  0
  8  9  2  0
  8 10  1  0
 10 11  1  0
 11 12  1  0
 12 13  1  0
 13 14  1  0
 14 15  1  0
 14 16  1  0
 13 17  1  0
 17 18  1  0
 18 10  1  0
M  CHG  1  16   1
M  END
>  <EmbedRMS>  (214) 
0.16480955270904202

>  <Gold.Version>  (214) 
2020.3.0

>  <Gold.Id.Protein>  (214) 
unknown|1q8t_protein|pdb

>  <Gold.PLP.Fitness>  (214) 
46.7913

>  <Gold.PLP.PLP>  (214) 
-41.3832

>  <Gold.PLP.part.hbond>  (214) 
-2.0000

>  <Gold.PLP.part.metal>  (214) 
0.0000

>  <Gold.PLP.part.buried>  (214) 
-2.5812

>  <Gold.PLP.part.nonpolar>  (214) 
-37.1103

>  <Gold.PLP.part.repulsive>  (214) 
0.0521

>  <Gold.PLP.ligand.clash>  (214) 
0.0000

>  <Gold.PLP.ligand.torsion>  (214) 
2.5313

>  <Gold.PLP.Chemscore.Hbond>  (214) 
3.0000

>  <Gold.PLP.Chemscore.CHOScore>  (214) 
0.0000

>  <Gold.PLP.Chemscore.Metal>  (214) 
0.0000

>  <Gold.Chemscore.Hbonds>  (214) 
donor molecule, donor type, donor heavy atom, donor atom, acceptor molecule, acceptor atom, score
      L1  H    16    39       P1  2691  1.00
      L1  H    16    40       P1  2902  2.00

>  <Gold.PLP.Chemscore.Internal.Correction>  (214) 
1.4707

>  <Gold.PLP.Constraint>  (214) 
-0.0000

>  <Gold.Protein.RotatedTorsions>  (214) 
[  681  677  676  673 ] final -145.05 input -179.99 | X-H torsion
[  702  698  697  694 ] final  109.64 input  179.99 | X-H torsion
[ 2577 2569 2568 2566 ] final -138.07 input   -0.13 | X-H torsion
[ 2891 2887 2886 2883 ] final  -25.53 input  179.98 | X-H torsion
[ 3175 3171 3170 3167 ] final -138.02 input -179.99 | X-H torsion
[ 5278 5270 5269 5267 ] final -104.73 input    0.55 | X-H torsion
[  641  637  636  633 ] final -166.00 input  179.99 | X-H torsion
[ 1886 1878 1877 1875 ] final  147.52 input    1.60 | X-H torsion
[  965  957  956  954 ] final  156.24 input    0.45 | X-H torsion

>  <Gold.Protein.ActiveResidues>  (214) 
 LYS47   THR48   LEU49   GLY50   THR51   GLY52   SER53   PHE54   GLY55   ARG56  
 VAL57   MET58   LEU59   TYR69   ALA70   MET71   LYS72   ILE73   LEU74   GLU91  
 LEU95   VAL104  LYS105  MET118  VAL119  MET120  GLU121  TYR122  VAL123  PRO124 
 GLY125  GLY126  GLU127  MET128  PHE129  TYR164  ASP166  LEU167  LYS168  PRO169 
 GLU170  ASN171  LEU172  LEU173  ILE174  GLN181  VAL182  THR183  ASP184  PHE185 
 GLY186  PHE187  GLY200  THR201  ASN326  PHE327  TYR330  ARG18   ARG19   ASN20  
 ALA21   ILE22   HIS23  

>  <Gold.Protein.RotatedAtoms>  (214) 
   11.3600   19.2754    8.0218 H   0  0  0  0  0  0  0  0  0  0  0  0  # atno 641  bound_to 637 
   16.5519   13.9403    7.3245 H   0  0  0  0  0  0  0  0  0  0  0  0  # atno 681  bound_to 677 
   20.0239   11.7580   -2.0049 H   0  0  0  0  0  0  0  0  0  0  0  0  # atno 702  bound_to 698 
   -7.0306   16.9698   -0.2839 H   0  0  0  0  0  0  0  0  0  0  0  0  # atno 965  bound_to 957 
    0.8375   11.9928   11.0465 H   0  0  0  0  0  0  0  0  0  0  0  0  # atno 1886 bound_to 1878
   11.0168    2.4100   -2.6815 H   0  0  0  0  0  0  0  0  0  0  0  0  # atno 2577 bound_to 2569
    7.8386    5.2267    0.5920 H   0  0  0  0  0  0  0  0  0  0  0  0  # atno 2891 bound_to 2887
   18.6370    2.5949    0.3726 H   0  0  0  0  0  0  0  0  0  0  0  0  # atno 3175 bound_to 3171
   13.9725    9.8433   10.3718 H   0  0  0  0  0  0  0  0  0  0  0  0  # atno 5278 bound_to 5270
   17.1158   13.0571    6.1253 LP  0  0  0  0  0  0  0  0  0  0  0  0  # atno 5914 bound_to 677 
   15.6370   12.7679    6.7546 LP  0  0  0  0  0  0  0  0  0  0  0  0  # atno 5915 bound_to 677 
   19.5585   11.7942   -0.4819 LP  0  0  0  0  0  0  0  0  0  0  0  0  # atno 5920 bound_to 698 
   21.1208   11.5248   -0.8736 LP  0  0  0  0  0  0  0  0  0  0  0  0  # atno 5921 bound_to 698 
    9.4539    2.1243   -2.5773 LP  0  0  0  0  0  0  0  0  0  0  0  0  # atno 5950 bound_to 2569
   10.0168    3.4024   -3.4235 LP  0  0  0  0  0  0  0  0  0  0  0  0  # atno 5951 bound_to 2569
    7.1768    6.2404    1.6269 LP  0  0  0  0  0  0  0  0  0  0  0  0  # atno 5982 bound_to 2887
    8.2483    6.7636    0.5111 LP  0  0  0  0  0  0  0  0  0  0  0  0  # atno 5983 bound_to 2887
   17.9792    1.9588   -0.9305 LP  0  0  0  0  0  0  0  0  0  0  0  0  # atno 6000 bound_to 3171
   19.2953    2.9192   -1.0406 LP  0  0  0  0  0  0  0  0  0  0  0  0  # atno 6001 bound_to 3171
   14.0077   10.2087    8.8220 LP  0  0  0  0  0  0  0  0  0  0  0  0  # atno 6004 bound_to 5270
   12.5877   10.0017    9.6012 LP  0  0  0  0  0  0  0  0  0  0  0  0  # atno 6005 bound_to 5270
   10.0661   19.7678    8.8082 LP  0  0  0  0  0  0  0  0  0  0  0  0  # atno 6055 bound_to 637 
    9.9343   19.0334    7.3556 LP  0  0  0  0  0  0  0  0  0  0  0  0  # atno 6056 bound_to 637 
    2.2684   11.7473   10.3928 LP  0  0  0  0  0  0  0  0  0  0  0  0  # atno 6063 bound_to 1878
    1.2352   10.5065   10.6366 LP  0  0  0  0  0  0  0  0  0  0  0  0  # atno 6064 bound_to 1878
   -6.9706   15.3919   -0.4882 LP  0  0  0  0  0  0  0  0  0  0  0  0  # atno 6067 bound_to 957 
   -6.4329   16.4076   -1.6484 LP  0  0  0  0  0  0  0  0  0  0  0  0  # atno 6068 bound_to 957 

>  <STRIFE_LigEff_Score>  (214) 
2.5995166666666667

$$$$
unknown|pharmsElabsTestPreDocking|sdf|215|dock5
     RDKit          3D

 17 18  0  0  0  0  0  0  0  0999 V2000
   14.3297    7.6681    3.6668 C   0  0  0  0  0  0  0  0  0  0  0  0
   13.3997    8.1455    2.5386 C   0  0  0  0  0  0  0  0  0  0  0  0
   13.5817    7.3099    1.3480 N   0  0  0  0  0  0  0  0  0  0  0  0
   11.8864    8.3356    2.9157 C   0  0  0  0  0  0  0  0  0  0  0  0
   10.9311    7.4394    2.1291 C   0  0  0  0  0  0  0  0  0  0  0  0
    9.4634    7.5671    2.5086 C   0  0  0  0  0  0  0  0  0  0  0  0
    9.0342    8.9949    2.7514 C   0  0  0  0  0  0  0  0  0  0  0  0
    7.5438    9.1795    2.8348 C   0  0  0  0  0  0  0  0  0  0  0  0
    7.0166    9.5829    1.7701 O   0  0  0  0  0  0  0  0  0  0  0  0
    6.7096    8.9374    3.9886 N   0  0  0  0  0  0  0  0  0  0  0  0
    5.2966    9.2583    3.9694 C   0  0  0  0  0  0  0  0  0  0  0  0
    4.5234    9.3488    5.0720 N   0  0  0  0  0  0  0  0  0  0  0  0
    3.2986    9.6411    4.6629 N   0  0  0  0  0  0  0  0  0  0  0  0
    3.3444    9.7229    3.3187 C   0  0  0  0  0  0  0  0  0  0  0  0
    4.5859    9.4872    2.8512 N   0  0  0  0  0  0  0  0  0  0  0  0
    9.9110    9.8426    3.6451 C   0  0  0  0  0  0  0  0  0  0  0  0
   11.3911    9.7597    3.2365 C   0  0  0  0  0  0  0  0  0  0  0  0
  1  2  1  0
  2  3  1  0
  2  4  1  0
  4  5  1  0
  5  6  1  0
  6  7  1  0
  7  8  1  0
  8  9  2  0
  8 10  1  0
 10 11  1  0
 11 12  2  0
 12 13  1  0
 13 14  2  0
 14 15  1  0
  7 16  1  0
 16 17  1  0
 17  4  1  0
 15 11  1  0
M  CHG  1   3   1
M  END
>  <EmbedRMS>  (215) 
0.2677829583944835

>  <Gold.Version>  (215) 
2020.3.0

>  <Gold.Id.Protein>  (215) 
unknown|1q8t_protein|pdb

>  <Gold.PLP.Fitness>  (215) 
45.7131

>  <Gold.PLP.PLP>  (215) 
-33.3010

>  <Gold.PLP.part.hbond>  (215) 
-3.0000

>  <Gold.PLP.part.metal>  (215) 
0.0000

>  <Gold.PLP.part.buried>  (215) 
-6.9919

>  <Gold.PLP.part.nonpolar>  (215) 
-24.2042

>  <Gold.PLP.part.repulsive>  (215) 
0.2231

>  <Gold.PLP.ligand.clash>  (215) 
0.0000

>  <Gold.PLP.ligand.torsion>  (215) 
1.6996

>  <Gold.PLP.Chemscore.Hbond>  (215) 
4.0000

>  <Gold.PLP.Chemscore.CHOScore>  (215) 
1.0000

>  <Gold.PLP.Chemscore.Metal>  (215) 
0.0000

>  <Gold.Chemscore.Hbonds>  (215) 
donor molecule, donor type, donor heavy atom, donor atom, acceptor molecule, acceptor atom, score
      L1  H     3    23       P1  2902  2.00
      L1  H     3    24       P1  2691  1.00
      P1  H  1888  1903       L1    13  1.00
      L1  C    14    32       P1  1855  1.00

>  <Gold.PLP.Chemscore.Internal.Correction>  (215) 
0.8114

>  <Gold.PLP.Constraint>  (215) 
-0.0000

>  <Gold.Protein.RotatedTorsions>  (215) 
[  681  677  676  673 ] final  -61.81 input -179.99 | X-H torsion
[  702  698  697  694 ] final -118.17 input  179.99 | X-H torsion
[ 2577 2569 2568 2566 ] final  -96.33 input   -0.13 | X-H torsion
[ 2891 2887 2886 2883 ] final  103.80 input  179.98 | X-H torsion
[ 3175 3171 3170 3167 ] final  112.07 input -179.99 | X-H torsion
[ 5278 5270 5269 5267 ] final    3.71 input    0.55 | X-H torsion
[  641  637  636  633 ] final -172.10 input  179.99 | X-H torsion
[ 1886 1878 1877 1875 ] final  -92.22 input    1.60 | X-H torsion
[  965  957  956  954 ] final -122.31 input    0.45 | X-H torsion

>  <Gold.Protein.ActiveResidues>  (215) 
 LYS47   THR48   LEU49   GLY50   THR51   GLY52   SER53   PHE54   GLY55   ARG56  
 VAL57   MET58   LEU59   TYR69   ALA70   MET71   LYS72   ILE73   LEU74   GLU91  
 LEU95   VAL104  LYS105  MET118  VAL119  MET120  GLU121  TYR122  VAL123  PRO124 
 GLY125  GLY126  GLU127  MET128  PHE129  TYR164  ASP166  LEU167  LYS168  PRO169 
 GLU170  ASN171  LEU172  LEU173  ILE174  GLN181  VAL182  THR183  ASP184  PHE185 
 GLY186  PHE187  GLY200  THR201  ASN326  PHE327  TYR330  ARG18   ARG19   ASN20  
 ALA21   ILE22   HIS23  

>  <Gold.Protein.RotatedAtoms>  (215) 
   11.3627   19.3185    8.1067 H   0  0  0  0  0  0  0  0  0  0  0  0  # atno 641  bound_to 637 
   15.6410   13.1948    7.1497 H   0  0  0  0  0  0  0  0  0  0  0  0  # atno 681  bound_to 677 
   21.0083   11.5585   -0.7101 H   0  0  0  0  0  0  0  0  0  0  0  0  # atno 702  bound_to 698 
   -6.5474   16.9237   -1.3465 H   0  0  0  0  0  0  0  0  0  0  0  0  # atno 965  bound_to 957 
    1.2423   10.5545   10.6228 H   0  0  0  0  0  0  0  0  0  0  0  0  # atno 1886 bound_to 1878
   11.0094    2.9337   -3.0457 H   0  0  0  0  0  0  0  0  0  0  0  0  # atno 2577 bound_to 2569
    8.1452    6.8167    0.6178 H   0  0  0  0  0  0  0  0  0  0  0  0  # atno 2891 bound_to 2887
   17.9676    1.9504   -0.7621 H   0  0  0  0  0  0  0  0  0  0  0  0  # atno 3175 bound_to 3171
   12.6511    9.9754    9.7802 H   0  0  0  0  0  0  0  0  0  0  0  0  # atno 5278 bound_to 5270
   17.0508   13.9250    7.0259 LP  0  0  0  0  0  0  0  0  0  0  0  0  # atno 5914 bound_to 677 
   16.6608   12.6847    6.0379 LP  0  0  0  0  0  0  0  0  0  0  0  0  # atno 5915 bound_to 677 
   20.2055   11.7103   -2.0775 LP  0  0  0  0  0  0  0  0  0  0  0  0  # atno 5920 bound_to 698 
   19.4383   11.8186   -0.6401 LP  0  0  0  0  0  0  0  0  0  0  0  0  # atno 5921 bound_to 698 
   10.0384    1.8740   -2.3607 LP  0  0  0  0  0  0  0  0  0  0  0  0  # atno 5950 bound_to 2569
    9.4401    3.1012   -3.2566 LP  0  0  0  0  0  0  0  0  0  0  0  0  # atno 5951 bound_to 2569
    7.9547    5.2410    0.4864 LP  0  0  0  0  0  0  0  0  0  0  0  0  # atno 5982 bound_to 2887
    7.1478    6.0897    1.6244 LP  0  0  0  0  0  0  0  0  0  0  0  0  # atno 5983 bound_to 2887
   19.2196    2.8463   -1.1689 LP  0  0  0  0  0  0  0  0  0  0  0  0  # atno 6000 bound_to 3171
   18.7594    2.7099    0.3920 LP  0  0  0  0  0  0  0  0  0  0  0  0  # atno 6001 bound_to 3171
   14.1507    9.8454   10.3010 LP  0  0  0  0  0  0  0  0  0  0  0  0  # atno 6004 bound_to 5270
   13.8351   10.2260    8.7447 LP  0  0  0  0  0  0  0  0  0  0  0  0  # atno 6005 bound_to 5270
    9.9780   19.7500    8.7637 LP  0  0  0  0  0  0  0  0  0  0  0  0  # atno 6055 bound_to 637 
   10.0197   19.0057    7.3108 LP  0  0  0  0  0  0  0  0  0  0  0  0  # atno 6056 bound_to 637 
    0.8102   12.0167   11.0816 LP  0  0  0  0  0  0  0  0  0  0  0  0  # atno 6063 bound_to 1878
    2.2673   11.7512   10.3939 LP  0  0  0  0  0  0  0  0  0  0  0  0  # atno 6064 bound_to 1878
   -7.1992   16.4807    0.0369 LP  0  0  0  0  0  0  0  0  0  0  0  0  # atno 6067 bound_to 957 
   -6.7132   15.3673   -1.0543 LP  0  0  0  0  0  0  0  0  0  0  0  0  # atno 6068 bound_to 957 

>  <STRIFE_LigEff_Score>  (215) 
2.689005882352941

$$$$
unknown|pharmsElabsTestPreDocking|sdf|216|dock3
     RDKit          3D

 13 13  0  0  0  0  0  0  0  0999 V2000
    4.9060    8.9263    2.8534 C   0  0  0  0  0  0  0  0  0  0  0  0
    6.3017    8.9661    2.4101 N   0  0  0  0  0  0  0  0  0  0  0  0
    7.3587    8.9625    3.3805 C   0  0  0  0  0  0  0  0  0  0  0  0
    7.0668    9.0083    4.6013 O   0  0  0  0  0  0  0  0  0  0  0  0
    8.8241    8.8813    3.0710 C   0  0  0  0  0  0  0  0  0  0  0  0
    9.3965    7.4620    3.0354 C   0  0  0  0  0  0  0  0  0  0  0  0
   10.9326    7.3975    2.9070 C   0  0  0  0  0  0  0  0  0  0  0  0
   11.4877    8.6660    2.2401 C   0  0  0  0  0  0  0  0  0  0  0  0
   12.9500    8.6236    1.6987 C   0  0  0  0  0  0  0  0  0  0  0  0
   13.5052    9.9111    1.1135 C   0  0  0  0  0  0  0  0  0  0  0  0
   13.3778    7.4068    1.0165 N   0  0  0  0  0  0  0  0  0  0  0  0
   11.1898    9.8905    3.1291 C   0  0  0  0  0  0  0  0  0  0  0  0
    9.6983   10.0523    3.4922 C   0  0  0  0  0  0  0  0  0  0  0  0
  1  2  1  0
  2  3  1  0
  3  4  2  0
  3  5  1  0
  5  6  1  0
  6  7  1  0
  7  8  1  0
  8  9  1  0
  9 10  1  0
  9 11  1  0
  8 12  1  0
 12 13  1  0
 13  5  1  0
M  CHG  1  11   1
M  END
>  <EmbedRMS>  (216) 
0.29639754771625826

>  <Gold.Version>  (216) 
2020.3.0

>  <Gold.Id.Protein>  (216) 
unknown|1q8t_protein|pdb

>  <Gold.PLP.Fitness>  (216) 
34.3908

>  <Gold.PLP.PLP>  (216) 
-26.0747

>  <Gold.PLP.part.hbond>  (216) 
-2.0000

>  <Gold.PLP.part.metal>  (216) 
0.0000

>  <Gold.PLP.part.buried>  (216) 
-2.8154

>  <Gold.PLP.part.nonpolar>  (216) 
-20.3930

>  <Gold.PLP.part.repulsive>  (216) 
0.0522

>  <Gold.PLP.ligand.clash>  (216) 
0.0000

>  <Gold.PLP.ligand.torsion>  (216) 
0.5324

>  <Gold.PLP.Chemscore.Hbond>  (216) 
2.7840

>  <Gold.PLP.Chemscore.CHOScore>  (216) 
0.0000

>  <Gold.PLP.Chemscore.Metal>  (216) 
0.0000

>  <Gold.Chemscore.Hbonds>  (216) 
donor molecule, donor type, donor heavy atom, donor atom, acceptor molecule, acceptor atom, score
      L1  H    11    28       P1  2691  0.78
      L1  H    11    29       P1  2902  2.00

>  <Gold.PLP.Chemscore.Internal.Correction>  (216) 
1.0290

>  <Gold.PLP.Constraint>  (216) 
-0.0000

>  <Gold.Protein.RotatedTorsions>  (216) 
[  681  677  676  673 ] final   12.01 input -179.99 | X-H torsion
[  702  698  697  694 ] final  -11.14 input  179.99 | X-H torsion
[ 2577 2569 2568 2566 ] final   -9.62 input   -0.13 | X-H torsion
[ 2891 2887 2886 2883 ] final   68.49 input  179.98 | X-H torsion
[ 3175 3171 3170 3167 ] final    7.09 input -179.99 | X-H torsion
[ 5278 5270 5269 5267 ] final  -51.73 input    0.55 | X-H torsion
[  641  637  636  633 ] final  129.03 input  179.99 | X-H torsion
[ 1886 1878 1877 1875 ] final -146.59 input    1.60 | X-H torsion
[  965  957  956  954 ] final  -89.87 input    0.45 | X-H torsion

>  <Gold.Protein.ActiveResidues>  (216) 
 LYS47   THR48   LEU49   GLY50   THR51   GLY52   SER53   PHE54   GLY55   ARG56  
 VAL57   MET58   LEU59   TYR69   ALA70   MET71   LYS72   ILE73   LEU74   GLU91  
 LEU95   VAL104  LYS105  MET118  VAL119  MET120  GLU121  TYR122  VAL123  PRO124 
 GLY125  GLY126  GLU127  MET128  PHE129  TYR164  ASP166  LEU167  LYS168  PRO169 
 GLU170  ASN171  LEU172  LEU173  ILE174  GLN181  VAL182  THR183  ASP184  PHE185 
 GLY186  PHE187  GLY200  THR201  ASN326  PHE327  TYR330  ARG18   ARG19   ASN20  
 ALA21   ILE22   HIS23  

>  <Gold.Protein.RotatedAtoms>  (216) 
   10.9113   19.6820    8.7690 H   0  0  0  0  0  0  0  0  0  0  0  0  # atno 641  bound_to 637 
   16.0065   12.5984    6.3321 H   0  0  0  0  0  0  0  0  0  0  0  0  # atno 681  bound_to 677 
   19.6029   11.8036   -0.5051 H   0  0  0  0  0  0  0  0  0  0  0  0  # atno 702  bound_to 698 
   -6.4447   16.4941   -1.5811 H   0  0  0  0  0  0  0  0  0  0  0  0  # atno 965  bound_to 957 
    0.6720   11.0372   10.9565 H   0  0  0  0  0  0  0  0  0  0  0  0  # atno 1886 bound_to 1878
    9.8981    3.3242   -3.3983 H   0  0  0  0  0  0  0  0  0  0  0  0  # atno 2577 bound_to 2569
    8.3280    6.4090    0.3084 H   0  0  0  0  0  0  0  0  0  0  0  0  # atno 2891 bound_to 2887
   19.0625    2.6936   -1.2796 H   0  0  0  0  0  0  0  0  0  0  0  0  # atno 3175 bound_to 3171
   13.1741    9.8252   10.4116 H   0  0  0  0  0  0  0  0  0  0  0  0  # atno 5278 bound_to 5270
   16.0249   13.7221    7.4604 LP  0  0  0  0  0  0  0  0  0  0  0  0  # atno 5914 bound_to 677 
   17.3020   13.5152    6.4640 LP  0  0  0  0  0  0  0  0  0  0  0  0  # atno 5915 bound_to 677 
   21.1243   11.5244   -0.8860 LP  0  0  0  0  0  0  0  0  0  0  0  0  # atno 5920 bound_to 698 
   19.9979   11.7465   -2.0473 LP  0  0  0  0  0  0  0  0  0  0  0  0  # atno 5921 bound_to 698 
   11.0983    2.5186   -2.7306 LP  0  0  0  0  0  0  0  0  0  0  0  0  # atno 5950 bound_to 2569
    9.5503    2.0455   -2.5155 LP  0  0  0  0  0  0  0  0  0  0  0  0  # atno 5951 bound_to 2569
    7.5750    5.1370    0.9014 LP  0  0  0  0  0  0  0  0  0  0  0  0  # atno 5982 bound_to 2887
    7.3351    6.6228    1.5351 LP  0  0  0  0  0  0  0  0  0  0  0  0  # atno 5983 bound_to 2887
   18.9495    2.8389    0.3021 LP  0  0  0  0  0  0  0  0  0  0  0  0  # atno 6000 bound_to 3171
   17.8772    1.9351   -0.5344 LP  0  0  0  0  0  0  0  0  0  0  0  0  # atno 6001 bound_to 3171
   14.4669   10.0444    9.5076 LP  0  0  0  0  0  0  0  0  0  0  0  0  # atno 6004 bound_to 5270
   12.9685   10.1851    8.8738 LP  0  0  0  0  0  0  0  0  0  0  0  0  # atno 6005 bound_to 5270
    9.5279   19.4016    8.0323 LP  0  0  0  0  0  0  0  0  0  0  0  0  # atno 6055 bound_to 637 
   10.9452   18.9713    7.3447 LP  0  0  0  0  0  0  0  0  0  0  0  0  # atno 6056 bound_to 637 
    1.5552   12.3540   10.8107 LP  0  0  0  0  0  0  0  0  0  0  0  0  # atno 6063 bound_to 1878
    2.1227   10.9057   10.3135 LP  0  0  0  0  0  0  0  0  0  0  0  0  # atno 6064 bound_to 1878
   -7.0891   16.9404   -0.1953 LP  0  0  0  0  0  0  0  0  0  0  0  0  # atno 6067 bound_to 957 
   -6.9314   15.3601   -0.5750 LP  0  0  0  0  0  0  0  0  0  0  0  0  # atno 6068 bound_to 957 

>  <STRIFE_LigEff_Score>  (216) 
2.645446153846154

$$$$
unknown|pharmsElabsTestPreDocking|sdf|217|dock3
     RDKit          3D

 17 18  0  0  0  0  0  0  0  0999 V2000
   14.1764    7.9996    3.4000 C   0  0  0  0  0  0  0  0  0  0  0  0
   13.1643    8.1807    2.2561 C   0  0  0  0  0  0  0  0  0  0  0  0
   13.3563    7.1384    1.2435 N   0  0  0  0  0  0  0  0  0  0  0  0
   11.6595    8.3421    2.6759 C   0  0  0  0  0  0  0  0  0  0  0  0
   10.6988    7.4371    1.9061 C   0  0  0  0  0  0  0  0  0  0  0  0
    9.2413    7.5369    2.3271 C   0  0  0  0  0  0  0  0  0  0  0  0
    8.8002    8.9553    2.5973 C   0  0  0  0  0  0  0  0  0  0  0  0
    7.3123    9.1172    2.7024 C   0  0  0  0  0  0  0  0  0  0  0  0
    6.7770    9.4937    1.6370 O   0  0  0  0  0  0  0  0  0  0  0  0
    6.4926    8.8729    3.8663 N   0  0  0  0  0  0  0  0  0  0  0  0
    5.1012    9.1604    3.8790 N   0  0  0  0  0  0  0  0  0  0  0  0
    4.3138    9.5723    4.9017 C   0  0  0  0  0  0  0  0  0  0  0  0
    3.0399    9.7120    4.5024 N   0  0  0  0  0  0  0  0  0  0  0  0
    2.9957    9.3873    3.2191 N   0  0  0  0  0  0  0  0  0  0  0  0
    4.2478    9.0516    2.8454 C   0  0  0  0  0  0  0  0  0  0  0  0
    9.6817    9.8096    3.4769 C   0  0  0  0  0  0  0  0  0  0  0  0
   11.1510    9.7550    3.0272 C   0  0  0  0  0  0  0  0  0  0  0  0
  1  2  1  0
  2  3  1  0
  2  4  1  0
  4  5  1  0
  5  6  1  0
  6  7  1  0
  7  8  1  0
  8  9  2  0
  8 10  1  0
 10 11  1  0
 11 12  1  0
 12 13  2  0
 13 14  1  0
 14 15  2  0
  7 16  1  0
 16 17  1  0
 17  4  1  0
 15 11  1  0
M  CHG  1   3   1
M  END
>  <EmbedRMS>  (217) 
0.2678703586981328

>  <Gold.Version>  (217) 
2020.3.0

>  <Gold.Id.Protein>  (217) 
unknown|1q8t_protein|pdb

>  <Gold.PLP.Fitness>  (217) 
46.2407

>  <Gold.PLP.PLP>  (217) 
-37.5653

>  <Gold.PLP.part.hbond>  (217) 
-3.5240

>  <Gold.PLP.part.metal>  (217) 
0.0000

>  <Gold.PLP.part.buried>  (217) 
-4.8308

>  <Gold.PLP.part.nonpolar>  (217) 
-30.0517

>  <Gold.PLP.part.repulsive>  (217) 
0.6333

>  <Gold.PLP.ligand.clash>  (217) 
0.0000

>  <Gold.PLP.ligand.torsion>  (217) 
1.6602

>  <Gold.PLP.Chemscore.Hbond>  (217) 
3.7180

>  <Gold.PLP.Chemscore.CHOScore>  (217) 
0.0000

>  <Gold.PLP.Chemscore.Metal>  (217) 
0.0000

>  <Gold.Chemscore.Hbonds>  (217) 
donor molecule, donor type, donor heavy atom, donor atom, acceptor molecule, acceptor atom, score
      L1  H     3    23       P1  2902  2.00
      L1  H     3    24       P1  2691  0.77
      P1  H  1888  1903       L1    13  0.95

>  <Gold.PLP.Chemscore.Internal.Correction>  (217) 
0.8418

>  <Gold.PLP.Constraint>  (217) 
-0.0000

>  <Gold.Protein.RotatedTorsions>  (217) 
[  681  677  676  673 ] final   25.95 input -179.99 | X-H torsion
[  702  698  697  694 ] final -135.80 input  179.99 | X-H torsion
[ 2577 2569 2568 2566 ] final  108.65 input   -0.13 | X-H torsion
[ 2891 2887 2886 2883 ] final  131.84 input  179.98 | X-H torsion
[ 3175 3171 3170 3167 ] final   73.55 input -179.99 | X-H torsion
[ 5278 5270 5269 5267 ] final -106.01 input    0.55 | X-H torsion
[  641  637  636  633 ] final   11.26 input  179.99 | X-H torsion
[ 1886 1878 1877 1875 ] final -176.62 input    1.60 | X-H torsion
[  965  957  956  954 ] final -117.10 input    0.45 | X-H torsion

>  <Gold.Protein.ActiveResidues>  (217) 
 LYS47   THR48   LEU49   GLY50   THR51   GLY52   SER53   PHE54   GLY55   ARG56  
 VAL57   MET58   LEU59   TYR69   ALA70   MET71   LYS72   ILE73   LEU74   GLU91  
 LEU95   VAL104  LYS105  MET118  VAL119  MET120  GLU121  TYR122  VAL123  PRO124 
 GLY125  GLY126  GLU127  MET128  PHE129  TYR164  ASP166  LEU167  LYS168  PRO169 
 GLU170  ASN171  LEU172  LEU173  ILE174  GLN181  VAL182  THR183  ASP184  PHE185 
 GLY186  PHE187  GLY200  THR201  ASN326  PHE327  TYR330  ARG18   ARG19   ASN20  
 ALA21   ILE22   HIS23  

>  <Gold.Protein.RotatedAtoms>  (217) 
    9.5750   19.4008    8.0722 H   0  0  0  0  0  0  0  0  0  0  0  0  # atno 641  bound_to 637 
   16.1877   12.5910    6.2124 H   0  0  0  0  0  0  0  0  0  0  0  0  # atno 681  bound_to 677 
   21.0994   11.5473   -0.9690 H   0  0  0  0  0  0  0  0  0  0  0  0  # atno 702  bound_to 698 
   -6.5243   16.8655   -1.3986 H   0  0  0  0  0  0  0  0  0  0  0  0  # atno 965  bound_to 957 
    0.6183   11.4870   11.0569 H   0  0  0  0  0  0  0  0  0  0  0  0  # atno 1886 bound_to 1878
    9.5629    2.0805   -2.5592 H   0  0  0  0  0  0  0  0  0  0  0  0  # atno 2577 bound_to 2569
    7.8905    6.9472    0.9441 H   0  0  0  0  0  0  0  0  0  0  0  0  # atno 2891 bound_to 2887
   18.2719    2.1130   -1.2417 H   0  0  0  0  0  0  0  0  0  0  0  0  # atno 3175 bound_to 3171
   13.9898    9.8459   10.3621 H   0  0  0  0  0  0  0  0  0  0  0  0  # atno 5278 bound_to 5270
   15.8548   13.5748    7.4197 LP  0  0  0  0  0  0  0  0  0  0  0  0  # atno 5914 bound_to 677 
   17.2813   13.6704    6.6307 LP  0  0  0  0  0  0  0  0  0  0  0  0  # atno 5915 bound_to 677 
   19.9256   11.7589   -2.0249 LP  0  0  0  0  0  0  0  0  0  0  0  0  # atno 5920 bound_to 698 
   19.6224   11.7817   -0.4204 LP  0  0  0  0  0  0  0  0  0  0  0  0  # atno 5921 bound_to 698 
    9.9095    3.3781   -3.4145 LP  0  0  0  0  0  0  0  0  0  0  0  0  # atno 5950 bound_to 2569
   11.0921    2.4956   -2.7151 LP  0  0  0  0  0  0  0  0  0  0  0  0  # atno 5951 bound_to 2569
    8.2115    5.5445    0.2616 LP  0  0  0  0  0  0  0  0  0  0  0  0  # atno 5982 bound_to 2887
    7.1590    5.6488    1.5058 LP  0  0  0  0  0  0  0  0  0  0  0  0  # atno 5983 bound_to 2887
   19.3933    3.0485   -0.6071 LP  0  0  0  0  0  0  0  0  0  0  0  0  # atno 6000 bound_to 3171
   18.2654    2.3365    0.3349 LP  0  0  0  0  0  0  0  0  0  0  0  0  # atno 6001 bound_to 3171
   13.9894   10.2111    8.8118 LP  0  0  0  0  0  0  0  0  0  0  0  0  # atno 6004 bound_to 5270
   12.5877    9.9967    9.6216 LP  0  0  0  0  0  0  0  0  0  0  0  0  # atno 6005 bound_to 5270
   10.9132   18.9646    7.3280 LP  0  0  0  0  0  0  0  0  0  0  0  0  # atno 6055 bound_to 637 
   10.9671   19.7045    8.7828 LP  0  0  0  0  0  0  0  0  0  0  0  0  # atno 6056 bound_to 637 
    1.9684   12.1980   10.6019 LP  0  0  0  0  0  0  0  0  0  0  0  0  # atno 6063 bound_to 1878
    1.7661   10.5882   10.4165 LP  0  0  0  0  0  0  0  0  0  0  0  0  # atno 6064 bound_to 1878
   -7.1890   16.5633    0.0163 LP  0  0  0  0  0  0  0  0  0  0  0  0  # atno 6067 bound_to 957 
   -6.7477   15.3460   -0.9788 LP  0  0  0  0  0  0  0  0  0  0  0  0  # atno 6068 bound_to 957 

>  <STRIFE_LigEff_Score>  (217) 
2.720041176470588

$$$$
unknown|pharmsElabsTestPreDocking|sdf|218|dock8
     RDKit          3D

 19 20  0  0  0  0  0  0  0  0999 V2000
    3.9169    9.9238    6.1999 C   0  0  0  0  0  0  0  0  0  0  0  0
    4.0568    9.7208    4.7283 C   0  0  0  0  0  0  0  0  0  0  0  0
    5.0645   10.3573    3.9703 C   0  0  0  0  0  0  0  0  0  0  0  0
    5.0200   10.0128    2.6264 C   0  0  0  0  0  0  0  0  0  0  0  0
    5.9106   10.4974    1.5351 C   0  0  0  0  0  0  0  0  0  0  0  0
    7.1990    9.8170    1.5866 N   0  0  0  0  0  0  0  0  0  0  0  0
    8.1314    9.7407    2.6874 C   0  0  0  0  0  0  0  0  0  0  0  0
    7.8072   10.3087    3.7596 O   0  0  0  0  0  0  0  0  0  0  0  0
    9.4642    9.0374    2.7421 C   0  0  0  0  0  0  0  0  0  0  0  0
    9.4334    7.6110    2.2420 C   0  0  0  0  0  0  0  0  0  0  0  0
   10.8154    7.0152    2.0285 C   0  0  0  0  0  0  0  0  0  0  0  0
   11.9055    7.4015    3.0385 C   0  0  0  0  0  0  0  0  0  0  0  0
   13.3434    7.1703    2.5134 C   0  0  0  0  0  0  0  0  0  0  0  0
   14.4795    7.0636    3.5289 C   0  0  0  0  0  0  0  0  0  0  0  0
   13.6806    8.0518    1.3938 N   0  0  0  0  0  0  0  0  0  0  0  0
   11.7929    8.8119    3.6667 C   0  0  0  0  0  0  0  0  0  0  0  0
   10.3848    9.3380    3.8939 C   0  0  0  0  0  0  0  0  0  0  0  0
    3.7659    8.9320    2.4769 S   0  0  0  0  0  0  0  0  0  0  0  0
    3.2333    8.8793    4.0483 N   0  0  0  0  0  0  0  0  0  0  0  0
  1  2  1  0
  2  3  1  0
  3  4  2  0
  4  5  1  0
  5  6  1  0
  6  7  1  0
  7  8  2  0
  7  9  1  0
  9 10  1  0
 10 11  1  0
 11 12  1  0
 12 13  1  0
 13 14  1  0
 13 15  1  0
 12 16  1  0
 16 17  1  0
  4 18  1  0
 18 19  1  0
 19  2  2  0
 17  9  1  0
M  CHG  1  15   1
M  END
>  <EmbedRMS>  (218) 
0.28167996706824416

>  <Gold.Version>  (218) 
2020.3.0

>  <Gold.Id.Protein>  (218) 
unknown|1q8t_protein|pdb

>  <Gold.PLP.Fitness>  (218) 
47.8159

>  <Gold.PLP.PLP>  (218) 
-40.6827

>  <Gold.PLP.part.hbond>  (218) 
-2.0000

>  <Gold.PLP.part.metal>  (218) 
0.0000

>  <Gold.PLP.part.buried>  (218) 
1.5189

>  <Gold.PLP.part.nonpolar>  (218) 
-41.4530

>  <Gold.PLP.part.repulsive>  (218) 
0.1312

>  <Gold.PLP.ligand.clash>  (218) 
0.0000

>  <Gold.PLP.ligand.torsion>  (218) 
0.6356

>  <Gold.PLP.Chemscore.Hbond>  (218) 
2.5702

>  <Gold.PLP.Chemscore.CHOScore>  (218) 
0.0000

>  <Gold.PLP.Chemscore.Metal>  (218) 
0.0000

>  <Gold.Chemscore.Hbonds>  (218) 
donor molecule, donor type, donor heavy atom, donor atom, acceptor molecule, acceptor atom, score
      L1  H    15    39       P1  2902  2.00
      P1  H  1888  1903       L1    19  0.57

>  <Gold.PLP.Chemscore.Internal.Correction>  (218) 
0.6938

>  <Gold.PLP.Constraint>  (218) 
-0.0000

>  <Gold.Protein.RotatedTorsions>  (218) 
[  681  677  676  673 ] final   72.55 input -179.99 | X-H torsion
[  702  698  697  694 ] final   38.55 input  179.99 | X-H torsion
[ 2577 2569 2568 2566 ] final  -42.53 input   -0.13 | X-H torsion
[ 2891 2887 2886 2883 ] final   20.60 input  179.98 | X-H torsion
[ 3175 3171 3170 3167 ] final  -25.38 input -179.99 | X-H torsion
[ 5278 5270 5269 5267 ] final  134.96 input    0.55 | X-H torsion
[  641  637  636  633 ] final  -46.83 input  179.99 | X-H torsion
[ 1886 1878 1877 1875 ] final -128.31 input    1.60 | X-H torsion
[  965  957  956  954 ] final    9.28 input    0.45 | X-H torsion

>  <Gold.Protein.ActiveResidues>  (218) 
 LYS47   THR48   LEU49   GLY50   THR51   GLY52   SER53   PHE54   GLY55   ARG56  
 VAL57   MET58   LEU59   TYR69   ALA70   MET71   LYS72   ILE73   LEU74   GLU91  
 LEU95   VAL104  LYS105  MET118  VAL119  MET120  GLU121  TYR122  VAL123  PRO124 
 GLY125  GLY126  GLU127  MET128  PHE129  TYR164  ASP166  LEU167  LYS168  PRO169 
 GLU170  ASN171  LEU172  LEU173  ILE174  GLN181  VAL182  THR183  ASP184  PHE185 
 GLY186  PHE187  GLY200  THR201  ASN326  PHE327  TYR330  ARG18   ARG19   ASN20  
 ALA21   ILE22   HIS23  

>  <Gold.Protein.RotatedAtoms>  (218) 
    9.9713   19.0315    7.3923 H   0  0  0  0  0  0  0  0  0  0  0  0  # atno 641  bound_to 637 
   16.8329   12.8428    6.0624 H   0  0  0  0  0  0  0  0  0  0  0  0  # atno 681  bound_to 677 
   19.3539   11.8615   -1.2135 H   0  0  0  0  0  0  0  0  0  0  0  0  # atno 702  bound_to 698 
   -6.7774   15.3775   -0.8735 H   0  0  0  0  0  0  0  0  0  0  0  0  # atno 965  bound_to 957 
    0.8080   10.8078   10.8574 H   0  0  0  0  0  0  0  0  0  0  0  0  # atno 1886 bound_to 1878
   10.4044    3.3546   -3.3823 H   0  0  0  0  0  0  0  0  0  0  0  0  # atno 2577 bound_to 2569
    8.2346    5.6907    0.2445 H   0  0  0  0  0  0  0  0  0  0  0  0  # atno 2891 bound_to 2887
   19.3129    2.9270   -0.9138 H   0  0  0  0  0  0  0  0  0  0  0  0  # atno 3175 bound_to 3171
   13.9797   10.2156    8.8627 H   0  0  0  0  0  0  0  0  0  0  0  0  # atno 5278 bound_to 5270
   15.5763   13.0049    7.0272 LP  0  0  0  0  0  0  0  0  0  0  0  0  # atno 5914 bound_to 677 
   16.8808   13.9752    7.1811 LP  0  0  0  0  0  0  0  0  0  0  0  0  # atno 5915 bound_to 677 
   20.6190   11.6023   -0.2809 LP  0  0  0  0  0  0  0  0  0  0  0  0  # atno 5920 bound_to 698 
   20.7651   11.6078   -1.9073 LP  0  0  0  0  0  0  0  0  0  0  0  0  # atno 5921 bound_to 698 
   10.8462    2.1233   -2.4746 LP  0  0  0  0  0  0  0  0  0  0  0  0  # atno 5950 bound_to 2569
    9.2694    2.4089   -2.7884 LP  0  0  0  0  0  0  0  0  0  0  0  0  # atno 5951 bound_to 2569
    7.1925    5.5265    1.4377 LP  0  0  0  0  0  0  0  0  0  0  0  0  # atno 5982 bound_to 2887
    7.8159    6.9893    1.0660 LP  0  0  0  0  0  0  0  0  0  0  0  0  # atno 5983 bound_to 2887
   18.5290    2.5426    0.4179 LP  0  0  0  0  0  0  0  0  0  0  0  0  # atno 6000 bound_to 3171
   18.0342    1.9858   -1.0352 LP  0  0  0  0  0  0  0  0  0  0  0  0  # atno 6001 bound_to 3171
   12.5876   10.0005    9.6061 LP  0  0  0  0  0  0  0  0  0  0  0  0  # atno 6004 bound_to 5270
   14.0002    9.8182   10.4049 LP  0  0  0  0  0  0  0  0  0  0  0  0  # atno 6005 bound_to 5270
   11.4092   19.2924    8.0242 LP  0  0  0  0  0  0  0  0  0  0  0  0  # atno 6055 bound_to 637 
   10.0539   19.7656    8.8027 LP  0  0  0  0  0  0  0  0  0  0  0  0  # atno 6056 bound_to 637 
    1.2806   12.3267   10.9271 LP  0  0  0  0  0  0  0  0  0  0  0  0  # atno 6063 bound_to 1878
    2.2542   11.1746   10.3014 LP  0  0  0  0  0  0  0  0  0  0  0  0  # atno 6064 bound_to 1878
   -6.4977   16.8154   -1.4973 LP  0  0  0  0  0  0  0  0  0  0  0  0  # atno 6067 bound_to 957 
   -7.1724   16.6611   -0.0183 LP  0  0  0  0  0  0  0  0  0  0  0  0  # atno 6068 bound_to 957 

>  <STRIFE_LigEff_Score>  (218) 
2.5166263157894737

$$$$
