unknown|pharmsElabsTestPreDocking|sdf|10|dock3
     RDKit          3D

 17 18  0  0  0  0  0  0  0  0999 V2000
   14.5072    7.9095    2.7094 C   0  0  0  0  0  0  0  0  0  0  0  0
   13.1070    7.9137    2.0979 C   0  0  0  0  0  0  0  0  0  0  0  0
   12.9818    8.8857    1.0099 N   0  0  0  0  0  0  0  0  0  0  0  0
   11.8865    7.9307    3.0507 C   0  0  0  0  0  0  0  0  0  0  0  0
   10.6935    7.1106    2.5385 C   0  0  0  0  0  0  0  0  0  0  0  0
    9.3411    7.4291    3.1530 C   0  0  0  0  0  0  0  0  0  0  0  0
    9.1248    8.9087    3.3473 C   0  0  0  0  0  0  0  0  0  0  0  0
    7.6998    9.2843    3.6260 C   0  0  0  0  0  0  0  0  0  0  0  0
    7.5607   10.0267    4.6240 O   0  0  0  0  0  0  0  0  0  0  0  0
    6.5401    8.8737    2.8701 N   0  0  0  0  0  0  0  0  0  0  0  0
    5.1877    9.1925    3.2870 C   0  0  0  0  0  0  0  0  0  0  0  0
    4.7350    9.4900    4.5715 C   0  0  0  0  0  0  0  0  0  0  0  0
    3.3804    9.7055    4.4612 C   0  0  0  0  0  0  0  0  0  0  0  0
    2.9888    9.5516    3.1840 N   0  0  0  0  0  0  0  0  0  0  0  0
    4.0813    9.2382    2.4604 C   0  0  0  0  0  0  0  0  0  0  0  0
   10.1974    9.6567    4.0856 C   0  0  0  0  0  0  0  0  0  0  0  0
   11.5871    9.3813    3.5147 C   0  0  0  0  0  0  0  0  0  0  0  0
  1  2  1  0
  2  3  1  0
  2  4  1  0
  4  5  1  0
  5  6  1  0
  6  7  1  0
  7  8  1  0
  8  9  2  0
  8 10  1  0
 10 11  1  0
 11 12  1  0
 12 13  2  0
 13 14  1  0
 14 15  1  0
  7 16  1  0
 16 17  1  0
 17  4  1  0
 15 11  2  0
M  CHG  1   3   1
M  END
>  <EmbedRMS>  (1) 
0.3005329260886256

>  <Gold.Version>  (1) 
2020.3.0

>  <Gold.Id.Protein>  (1) 
unknown|1q8t_protein|pdb

>  <Gold.PLP.Fitness>  (1) 
49.7364

>  <Gold.PLP.PLP>  (1) 
-41.7825

>  <Gold.PLP.part.hbond>  (1) 
-2.0000

>  <Gold.PLP.part.metal>  (1) 
0.0000

>  <Gold.PLP.part.buried>  (1) 
-4.4995

>  <Gold.PLP.part.nonpolar>  (1) 
-35.5133

>  <Gold.PLP.part.repulsive>  (1) 
0.1629

>  <Gold.PLP.ligand.clash>  (1) 
0.0000

>  <Gold.PLP.ligand.torsion>  (1) 
0.8321

>  <Gold.PLP.Chemscore.Hbond>  (1) 
3.0000

>  <Gold.PLP.Chemscore.CHOScore>  (1) 
0.0000

>  <Gold.PLP.Chemscore.Metal>  (1) 
0.0000

>  <Gold.Chemscore.Hbonds>  (1) 
donor molecule, donor type, donor heavy atom, donor atom, acceptor molecule, acceptor atom, score
      L1  H     3    24       P1  2902  2.00
      L1  H    14    34       P1  1855  1.00

>  <Gold.PLP.Chemscore.Internal.Correction>  (1) 
0.6181

>  <Gold.PLP.Constraint>  (1) 
-0.0000

>  <Gold.Protein.RotatedTorsions>  (1) 
[  681  677  676  673 ] final -141.40 input -179.99 | X-H torsion
[  702  698  697  694 ] final  152.62 input  179.99 | X-H torsion
[ 2577 2569 2568 2566 ] final -121.45 input   -0.13 | X-H torsion
[ 2891 2887 2886 2883 ] final  -79.51 input  179.98 | X-H torsion
[ 3175 3171 3170 3167 ] final   37.57 input -179.99 | X-H torsion
[ 5278 5270 5269 5267 ] final  118.76 input    0.55 | X-H torsion
[  641  637  636  633 ] final  -98.83 input  179.99 | X-H torsion
[ 1886 1878 1877 1875 ] final -166.50 input    1.60 | X-H torsion
[  965  957  956  954 ] final  -62.58 input    0.45 | X-H torsion

>  <Gold.Protein.ActiveResidues>  (1) 
 LYS47   THR48   LEU49   GLY50   THR51   GLY52   SER53   PHE54   GLY55   ARG56  
 VAL57   MET58   LEU59   TYR69   ALA70   MET71   LYS72   ILE73   LEU74   GLU91  
 LEU95   VAL104  LYS105  MET118  VAL119  MET120  GLU121  TYR122  VAL123  PRO124 
 GLY125  GLY126  GLU127  MET128  PHE129  TYR164  ASP166  LEU167  LYS168  PRO169 
 GLU170  ASN171  LEU172  LEU173  ILE174  GLN181  VAL182  THR183  ASP184  PHE185 
 GLY186  PHE187  GLY200  THR201  ASN326  PHE327  TYR330  ARG18   ARG19   ASN20  
 ALA21   ILE22   HIS23  

>  <Gold.Protein.RotatedAtoms>  (1) 
   10.7479   18.9486    7.3149 H   0  0  0  0  0  0  0  0  0  0  0  0  # atno 641  bound_to 637 
   16.5000   13.9288    7.3453 H   0  0  0  0  0  0  0  0  0  0  0  0  # atno 681  bound_to 677 
   20.6645   11.6427   -1.9180 H   0  0  0  0  0  0  0  0  0  0  0  0  # atno 702  bound_to 698 
   -6.4452   16.0717   -1.5889 H   0  0  0  0  0  0  0  0  0  0  0  0  # atno 965  bound_to 957 
    0.6115   11.3310   11.0333 H   0  0  0  0  0  0  0  0  0  0  0  0  # atno 1886 bound_to 1878
   11.0701    2.6198   -2.8233 H   0  0  0  0  0  0  0  0  0  0  0  0  # atno 2577 bound_to 2569
    7.3259    5.3394    1.2129 H   0  0  0  0  0  0  0  0  0  0  0  0  # atno 2891 bound_to 2887
   18.7064    2.4132   -1.4068 H   0  0  0  0  0  0  0  0  0  0  0  0  # atno 3175 bound_to 3171
   13.7456   10.2360    8.7702 H   0  0  0  0  0  0  0  0  0  0  0  0  # atno 5278 bound_to 5270
   17.1486   13.1015    6.1490 LP  0  0  0  0  0  0  0  0  0  0  0  0  # atno 5914 bound_to 677 
   15.6589   12.7355    6.7090 LP  0  0  0  0  0  0  0  0  0  0  0  0  # atno 5915 bound_to 677 
   19.3016   11.8521   -1.1205 LP  0  0  0  0  0  0  0  0  0  0  0  0  # atno 5920 bound_to 698 
   20.7039   11.5882   -0.3265 LP  0  0  0  0  0  0  0  0  0  0  0  0  # atno 5921 bound_to 698 
    9.6563    1.9818   -2.4635 LP  0  0  0  0  0  0  0  0  0  0  0  0  # atno 5950 bound_to 2569
    9.7584    3.3240   -3.3880 LP  0  0  0  0  0  0  0  0  0  0  0  0  # atno 5951 bound_to 2569
    7.6005    6.9060    1.2956 LP  0  0  0  0  0  0  0  0  0  0  0  0  # atno 5982 bound_to 2887
    8.3643    5.9794    0.1889 LP  0  0  0  0  0  0  0  0  0  0  0  0  # atno 5983 bound_to 2887
   19.2563    3.0211   -0.0417 LP  0  0  0  0  0  0  0  0  0  0  0  0  # atno 6000 bound_to 3171
   17.9451    2.0480   -0.0567 LP  0  0  0  0  0  0  0  0  0  0  0  0  # atno 6001 bound_to 3171
   12.6246    9.9379    9.8617 LP  0  0  0  0  0  0  0  0  0  0  0  0  # atno 6004 bound_to 5270
   14.2096    9.8595   10.2466 LP  0  0  0  0  0  0  0  0  0  0  0  0  # atno 6005 bound_to 5270
   11.0973   19.6543    8.6987 LP  0  0  0  0  0  0  0  0  0  0  0  0  # atno 6055 bound_to 637 
    9.5478   19.4911    8.2096 LP  0  0  0  0  0  0  0  0  0  0  0  0  # atno 6056 bound_to 637 
    1.8400   12.2772   10.6720 LP  0  0  0  0  0  0  0  0  0  0  0  0  # atno 6063 bound_to 1878
    1.9016   10.6733   10.3713 LP  0  0  0  0  0  0  0  0  0  0  0  0  # atno 6064 bound_to 1878
   -6.9293   17.1691   -0.5418 LP  0  0  0  0  0  0  0  0  0  0  0  0  # atno 6067 bound_to 957 
   -7.0907   15.5762   -0.2204 LP  0  0  0  0  0  0  0  0  0  0  0  0  # atno 6068 bound_to 957 

>  <STRIFE_LigEff_Score>  (1) 
2.9256705882352945

$$$$
unknown|pharmsElabsTestPreDocking|sdf|11|dock6
     RDKit          3D

 17 18  0  0  0  0  0  0  0  0999 V2000
   14.5641    7.9858    2.8170 C   0  0  0  0  0  0  0  0  0  0  0  0
   13.2088    7.9471    2.1124 C   0  0  0  0  0  0  0  0  0  0  0  0
   13.1356    8.8991    1.0023 N   0  0  0  0  0  0  0  0  0  0  0  0
   11.9265    7.9493    2.9803 C   0  0  0  0  0  0  0  0  0  0  0  0
   10.7875    7.0993    2.3986 C   0  0  0  0  0  0  0  0  0  0  0  0
    9.3905    7.3965    2.9165 C   0  0  0  0  0  0  0  0  0  0  0  0
    9.1322    8.8733    3.0775 C   0  0  0  0  0  0  0  0  0  0  0  0
    7.6845    9.2225    3.2546 C   0  0  0  0  0  0  0  0  0  0  0  0
    7.4675   10.0011    4.2103 O   0  0  0  0  0  0  0  0  0  0  0  0
    6.5827    8.7512    2.4490 N   0  0  0  0  0  0  0  0  0  0  0  0
    5.2004    9.0512    2.7707 C   0  0  0  0  0  0  0  0  0  0  0  0
    4.6446    9.2847    4.0277 C   0  0  0  0  0  0  0  0  0  0  0  0
    3.3029    9.5080    3.8192 C   0  0  0  0  0  0  0  0  0  0  0  0
    3.0162    9.4190    2.5084 N   0  0  0  0  0  0  0  0  0  0  0  0
    4.1643    9.1403    1.8607 C   0  0  0  0  0  0  0  0  0  0  0  0
   10.1372    9.6512    3.8774 C   0  0  0  0  0  0  0  0  0  0  0  0
   11.5676    9.3984    3.4052 C   0  0  0  0  0  0  0  0  0  0  0  0
  1  2  1  0
  2  3  1  0
  2  4  1  0
  4  5  1  0
  5  6  1  0
  6  7  1  0
  7  8  1  0
  8  9  2  0
  8 10  1  0
 10 11  1  0
 11 12  1  0
 12 13  2  0
 13 14  1  0
 14 15  1  0
  7 16  1  0
 16 17  1  0
 17  4  1  0
 15 11  2  0
M  CHG  1   3   1
M  END
>  <EmbedRMS>  (2) 
0.3005329260886256

>  <Gold.Version>  (2) 
2020.3.0

>  <Gold.Id.Protein>  (2) 
unknown|1q8t_protein|pdb

>  <Gold.PLP.Fitness>  (2) 
49.1104

>  <Gold.PLP.PLP>  (2) 
-41.0260

>  <Gold.PLP.part.hbond>  (2) 
-2.3257

>  <Gold.PLP.part.metal>  (2) 
0.0000

>  <Gold.PLP.part.buried>  (2) 
-4.0070

>  <Gold.PLP.part.nonpolar>  (2) 
-34.5858

>  <Gold.PLP.part.repulsive>  (2) 
0.0958

>  <Gold.PLP.ligand.clash>  (2) 
0.0000

>  <Gold.PLP.ligand.torsion>  (2) 
0.8784

>  <Gold.PLP.Chemscore.Hbond>  (2) 
3.0747

>  <Gold.PLP.Chemscore.CHOScore>  (2) 
0.0000

>  <Gold.PLP.Chemscore.Metal>  (2) 
0.0000

>  <Gold.Chemscore.Hbonds>  (2) 
donor molecule, donor type, donor heavy atom, donor atom, acceptor molecule, acceptor atom, score
      L1  H     3    23       P1  2902  2.00
      L1  H    10    31       P1  2887  0.07
      L1  H    14    34       P1  1855  1.00

>  <Gold.PLP.Chemscore.Internal.Correction>  (2) 
0.6169

>  <Gold.PLP.Constraint>  (2) 
-0.0000

>  <Gold.Protein.RotatedTorsions>  (2) 
[  681  677  676  673 ] final   42.43 input -179.99 | X-H torsion
[  702  698  697  694 ] final   25.59 input  179.99 | X-H torsion
[ 2577 2569 2568 2566 ] final -130.63 input   -0.13 | X-H torsion
[ 2891 2887 2886 2883 ] final   38.60 input  179.98 | X-H torsion
[ 3175 3171 3170 3167 ] final  117.78 input -179.99 | X-H torsion
[ 5278 5270 5269 5267 ] final  -61.97 input    0.55 | X-H torsion
[  641  637  636  633 ] final  149.80 input  179.99 | X-H torsion
[ 1886 1878 1877 1875 ] final  108.11 input    1.60 | X-H torsion
[  965  957  956  954 ] final  130.53 input    0.45 | X-H torsion

>  <Gold.Protein.ActiveResidues>  (2) 
 LYS47   THR48   LEU49   GLY50   THR51   GLY52   SER53   PHE54   GLY55   ARG56  
 VAL57   MET58   LEU59   TYR69   ALA70   MET71   LYS72   ILE73   LEU74   GLU91  
 LEU95   VAL104  LYS105  MET118  VAL119  MET120  GLU121  TYR122  VAL123  PRO124 
 GLY125  GLY126  GLU127  MET128  PHE129  TYR164  ASP166  LEU167  LYS168  PRO169 
 GLU170  ASN171  LEU172  LEU173  ILE174  GLN181  VAL182  THR183  ASP184  PHE185 
 GLY186  PHE187  GLY200  THR201  ASN326  PHE327  TYR330  ARG18   ARG19   ASN20  
 ALA21   ILE22   HIS23  

>  <Gold.Protein.RotatedAtoms>  (2) 
   11.1581   19.5766    8.5896 H   0  0  0  0  0  0  0  0  0  0  0  0  # atno 641  bound_to 637 
   16.4198   12.6339    6.1112 H   0  0  0  0  0  0  0  0  0  0  0  0  # atno 681  bound_to 677 
   19.3583   11.8568   -1.0114 H   0  0  0  0  0  0  0  0  0  0  0  0  # atno 702  bound_to 698 
   -7.1362   16.6588   -0.0584 H   0  0  0  0  0  0  0  0  0  0  0  0  # atno 965  bound_to 957 
    1.3325   12.2962   10.8801 H   0  0  0  0  0  0  0  0  0  0  0  0  # atno 1886 bound_to 1878
   11.0497    2.5026   -2.7434 H   0  0  0  0  0  0  0  0  0  0  0  0  # atno 2577 bound_to 2569
    8.3164    5.9569    0.2135 H   0  0  0  0  0  0  0  0  0  0  0  0  # atno 2891 bound_to 2887
   17.9458    1.9456   -0.6757 H   0  0  0  0  0  0  0  0  0  0  0  0  # atno 3175 bound_to 3171
   13.3259    9.8146   10.4607 H   0  0  0  0  0  0  0  0  0  0  0  0  # atno 5278 bound_to 5270
   15.6986   13.3775    7.3208 LP  0  0  0  0  0  0  0  0  0  0  0  0  # atno 5914 bound_to 677 
   17.1932   13.8225    6.8361 LP  0  0  0  0  0  0  0  0  0  0  0  0  # atno 5915 bound_to 677 
   20.7980   11.5727   -0.3918 LP  0  0  0  0  0  0  0  0  0  0  0  0  # atno 5920 bound_to 698 
   20.5815   11.6423   -2.0089 LP  0  0  0  0  0  0  0  0  0  0  0  0  # atno 5921 bound_to 698 
    9.5379    2.0544   -2.5226 LP  0  0  0  0  0  0  0  0  0  0  0  0  # atno 5950 bound_to 2569
    9.8982    3.3749   -3.4131 LP  0  0  0  0  0  0  0  0  0  0  0  0  # atno 5951 bound_to 2569
    7.3017    5.3170    1.2610 LP  0  0  0  0  0  0  0  0  0  0  0  0  # atno 5982 bound_to 2887
    7.6205    6.9185    1.2754 LP  0  0  0  0  0  0  0  0  0  0  0  0  # atno 5983 bound_to 2887
   19.1686    2.8001   -1.2328 LP  0  0  0  0  0  0  0  0  0  0  0  0  # atno 6000 bound_to 3171
   18.8333    2.7611    0.3650 LP  0  0  0  0  0  0  0  0  0  0  0  0  # atno 6001 bound_to 3171
   14.4328   10.0836    9.3475 LP  0  0  0  0  0  0  0  0  0  0  0  0  # atno 6004 bound_to 5270
   12.8429   10.1571    8.9821 LP  0  0  0  0  0  0  0  0  0  0  0  0  # atno 6005 bound_to 5270
    9.5871   19.5512    8.3318 LP  0  0  0  0  0  0  0  0  0  0  0  0  # atno 6055 bound_to 637 
   10.6260   18.9327    7.2341 LP  0  0  0  0  0  0  0  0  0  0  0  0  # atno 6056 bound_to 637 
    2.2346   11.1191   10.3005 LP  0  0  0  0  0  0  0  0  0  0  0  0  # atno 6063 bound_to 1878
    0.7480   10.8153   10.9041 LP  0  0  0  0  0  0  0  0  0  0  0  0  # atno 6064 bound_to 1878
   -6.7993   15.3286   -0.8659 LP  0  0  0  0  0  0  0  0  0  0  0  0  # atno 6067 bound_to 957 
   -6.4930   16.7984   -1.5082 LP  0  0  0  0  0  0  0  0  0  0  0  0  # atno 6068 bound_to 957 

>  <STRIFE_LigEff_Score>  (2) 
2.8888470588235293

$$$$
unknown|pharmsElabsTestPreDocking|sdf|12|dock10
     RDKit          3D

 18 19  0  0  0  0  0  0  0  0999 V2000
   14.8081    9.4113    1.0646 C   0  0  0  0  0  0  0  0  0  0  0  0
   14.0152    8.1787    1.4642 C   0  0  0  0  0  0  0  0  0  0  0  0
   14.2472    6.9979    0.6420 N   0  0  0  0  0  0  0  0  0  0  0  0
   12.5653    8.4159    1.9778 C   0  0  0  0  0  0  0  0  0  0  0  0
   11.9235    7.3505    2.8846 C   0  0  0  0  0  0  0  0  0  0  0  0
   10.3999    7.5554    2.8534 C   0  0  0  0  0  0  0  0  0  0  0  0
   10.0300    8.9710    3.3342 C   0  0  0  0  0  0  0  0  0  0  0  0
    8.5474    9.1955    3.2425 C   0  0  0  0  0  0  0  0  0  0  0  0
    7.9826    9.2584    2.1156 O   0  0  0  0  0  0  0  0  0  0  0  0
    7.8036    9.3641    4.4546 N   0  0  0  0  0  0  0  0  0  0  0  0
    6.3899    9.5608    4.5407 C   0  0  0  0  0  0  0  0  0  0  0  0
    5.6619   10.0936    5.5938 C   0  0  0  0  0  0  0  0  0  0  0  0
    4.3447   10.0581    5.1857 C   0  0  0  0  0  0  0  0  0  0  0  0
    4.2624    9.5449    3.9424 N   0  0  0  0  0  0  0  0  0  0  0  0
    3.0383    9.3150    3.1900 C   0  0  0  0  0  0  0  0  0  0  0  0
    5.5040    9.2234    3.5432 C   0  0  0  0  0  0  0  0  0  0  0  0
   10.7867   10.0799    2.5784 C   0  0  0  0  0  0  0  0  0  0  0  0
   12.2987    9.8165    2.5566 C   0  0  0  0  0  0  0  0  0  0  0  0
  1  2  1  0
  2  3  1  0
  2  4  1  0
  4  5  1  0
  5  6  1  0
  6  7  1  0
  7  8  1  0
  8  9  2  0
  8 10  1  0
 10 11  1  0
 11 12  1  0
 12 13  2  0
 13 14  1  0
 14 15  1  0
 14 16  1  0
  7 17  1  0
 17 18  1  0
 18  4  1  0
 16 11  2  0
M  CHG  1   3   1
M  END
>  <EmbedRMS>  (3) 
0.18278266355164025

>  <Gold.Version>  (3) 
2020.3.0

>  <Gold.Id.Protein>  (3) 
unknown|1q8t_protein|pdb

>  <Gold.PLP.Fitness>  (3) 
53.3965

>  <Gold.PLP.PLP>  (3) 
-45.2231

>  <Gold.PLP.part.hbond>  (3) 
-2.0000

>  <Gold.PLP.part.metal>  (3) 
0.0000

>  <Gold.PLP.part.buried>  (3) 
-2.5846

>  <Gold.PLP.part.nonpolar>  (3) 
-41.3093

>  <Gold.PLP.part.repulsive>  (3) 
0.0857

>  <Gold.PLP.ligand.clash>  (3) 
0.0000

>  <Gold.PLP.ligand.torsion>  (3) 
0.5619

>  <Gold.PLP.Chemscore.Hbond>  (3) 
2.9760

>  <Gold.PLP.Chemscore.CHOScore>  (3) 
0.0000

>  <Gold.PLP.Chemscore.Metal>  (3) 
0.0000

>  <Gold.Chemscore.Hbonds>  (3) 
donor molecule, donor type, donor heavy atom, donor atom, acceptor molecule, acceptor atom, score
      L1  H     3    24       P1  2691  0.98
      L1  H     3    25       P1  2902  2.00

>  <Gold.PLP.Chemscore.Internal.Correction>  (3) 
0.3691

>  <Gold.PLP.Constraint>  (3) 
-0.0000

>  <Gold.Protein.RotatedTorsions>  (3) 
[  681  677  676  673 ] final  -62.23 input -179.99 | X-H torsion
[  702  698  697  694 ] final  177.67 input  179.99 | X-H torsion
[ 2577 2569 2568 2566 ] final  -50.09 input   -0.13 | X-H torsion
[ 2891 2887 2886 2883 ] final  -25.95 input  179.98 | X-H torsion
[ 3175 3171 3170 3167 ] final  -96.62 input -179.99 | X-H torsion
[ 5278 5270 5269 5267 ] final   53.68 input    0.55 | X-H torsion
[  641  637  636  633 ] final   50.92 input  179.99 | X-H torsion
[ 1886 1878 1877 1875 ] final  -94.65 input    1.60 | X-H torsion
[  965  957  956  954 ] final -134.74 input    0.45 | X-H torsion

>  <Gold.Protein.ActiveResidues>  (3) 
 LYS47   THR48   LEU49   GLY50   THR51   GLY52   SER53   PHE54   GLY55   ARG56  
 VAL57   MET58   LEU59   TYR69   ALA70   MET71   LYS72   ILE73   LEU74   GLU91  
 LEU95   VAL104  LYS105  MET118  VAL119  MET120  GLU121  TYR122  VAL123  PRO124 
 GLY125  GLY126  GLU127  MET128  PHE129  TYR164  ASP166  LEU167  LYS168  PRO169 
 GLU170  ASN171  LEU172  LEU173  ILE174  GLN181  VAL182  THR183  ASP184  PHE185 
 GLY186  PHE187  GLY200  THR201  ASN326  PHE327  TYR330  ARG18   ARG19   ASN20  
 ALA21   ILE22   HIS23  

>  <Gold.Protein.RotatedAtoms>  (3) 
    9.7996   19.6475    8.5799 H   0  0  0  0  0  0  0  0  0  0  0  0  # atno 641  bound_to 637 
   15.6426   13.1998    7.1537 H   0  0  0  0  0  0  0  0  0  0  0  0  # atno 681  bound_to 677 
   20.9497   11.5872   -1.6599 H   0  0  0  0  0  0  0  0  0  0  0  0  # atno 702  bound_to 698 
   -6.6108   17.0398   -1.2047 H   0  0  0  0  0  0  0  0  0  0  0  0  # atno 965  bound_to 957 
    1.2085   10.5615   10.6388 H   0  0  0  0  0  0  0  0  0  0  0  0  # atno 1886 bound_to 1878
   10.5162    3.3277   -3.3554 H   0  0  0  0  0  0  0  0  0  0  0  0  # atno 2577 bound_to 2569
    7.8343    5.2247    0.5965 H   0  0  0  0  0  0  0  0  0  0  0  0  # atno 2891 bound_to 2887
   19.1161    2.9154    0.1107 H   0  0  0  0  0  0  0  0  0  0  0  0  # atno 3175 bound_to 3171
   12.8322   10.1532    9.0670 H   0  0  0  0  0  0  0  0  0  0  0  0  # atno 5278 bound_to 5270
   17.0553   13.9229    7.0211 LP  0  0  0  0  0  0  0  0  0  0  0  0  # atno 5914 bound_to 677 
   16.6546   12.6815    6.0386 LP  0  0  0  0  0  0  0  0  0  0  0  0  # atno 5915 bound_to 677 
   19.3840   11.8452   -1.5209 LP  0  0  0  0  0  0  0  0  0  0  0  0  # atno 5920 bound_to 698 
   20.3214   11.6535   -0.1976 LP  0  0  0  0  0  0  0  0  0  0  0  0  # atno 5921 bound_to 698 
   10.7533    2.0524   -2.4321 LP  0  0  0  0  0  0  0  0  0  0  0  0  # atno 5950 bound_to 2569
    9.2445    2.5081   -2.8591 LP  0  0  0  0  0  0  0  0  0  0  0  0  # atno 5951 bound_to 2569
    7.1785    6.2471    1.6265 LP  0  0  0  0  0  0  0  0  0  0  0  0  # atno 5982 bound_to 2887
    8.2511    6.7592    0.5068 LP  0  0  0  0  0  0  0  0  0  0  0  0  # atno 5983 bound_to 2887
   17.8873    1.9771   -0.2708 LP  0  0  0  0  0  0  0  0  0  0  0  0  # atno 6000 bound_to 3171
   18.8830    2.5635   -1.4247 LP  0  0  0  0  0  0  0  0  0  0  0  0  # atno 6001 bound_to 3171
   13.3856    9.7848   10.5143 LP  0  0  0  0  0  0  0  0  0  0  0  0  # atno 6004 bound_to 5270
   14.4095   10.0995    9.2818 LP  0  0  0  0  0  0  0  0  0  0  0  0  # atno 6005 bound_to 5270
   10.2810   18.9507    7.2317 LP  0  0  0  0  0  0  0  0  0  0  0  0  # atno 6055 bound_to 637 
   11.3629   19.4585    8.3445 LP  0  0  0  0  0  0  0  0  0  0  0  0  # atno 6056 bound_to 637 
    0.8360   12.0467   11.0753 LP  0  0  0  0  0  0  0  0  0  0  0  0  # atno 6063 bound_to 1878
    2.2771   11.7139   10.3832 LP  0  0  0  0  0  0  0  0  0  0  0  0  # atno 6064 bound_to 1878
   -7.2108   16.2779    0.0581 LP  0  0  0  0  0  0  0  0  0  0  0  0  # atno 6067 bound_to 957 
   -6.6348   15.4479   -1.2248 LP  0  0  0  0  0  0  0  0  0  0  0  0  # atno 6068 bound_to 957 

>  <STRIFE_LigEff_Score>  (3) 
2.9664722222222224

$$$$
unknown|pharmsElabsTestPreDocking|sdf|13|dock4
     RDKit          3D

 19 20  0  0  0  0  0  0  0  0999 V2000
    3.2264    9.9184    4.8176 C   0  0  0  0  0  0  0  0  0  0  0  0
    4.6975    9.7408    4.6408 C   0  0  0  0  0  0  0  0  0  0  0  0
    5.5819   10.2703    5.5791 C   0  0  0  0  0  0  0  0  0  0  0  0
    6.9496   10.0970    5.4047 C   0  0  0  0  0  0  0  0  0  0  0  0
    7.4418    9.3908    4.2871 C   0  0  0  0  0  0  0  0  0  0  0  0
    8.8438    9.1642    4.0409 N   0  0  0  0  0  0  0  0  0  0  0  0
    9.4728    8.9334    2.7714 C   0  0  0  0  0  0  0  0  0  0  0  0
    8.8132    8.9539    1.6976 O   0  0  0  0  0  0  0  0  0  0  0  0
   10.9582    8.6930    2.7129 C   0  0  0  0  0  0  0  0  0  0  0  0
   11.2176    7.3144    2.1152 C   0  0  0  0  0  0  0  0  0  0  0  0
   12.6878    6.9462    2.1214 C   0  0  0  0  0  0  0  0  0  0  0  0
   13.6459    8.0996    1.7697 C   0  0  0  0  0  0  0  0  0  0  0  0
   15.0081    7.6786    1.1151 C   0  0  0  0  0  0  0  0  0  0  0  0
   16.1521    7.3432    2.0838 C   0  0  0  0  0  0  0  0  0  0  0  0
   14.8441    6.5992    0.1350 N   0  0  0  0  0  0  0  0  0  0  0  0
   13.0805    9.5010    1.4587 C   0  0  0  0  0  0  0  0  0  0  0  0
   11.6241    9.7869    1.8705 C   0  0  0  0  0  0  0  0  0  0  0  0
    6.5100    8.8778    3.3714 C   0  0  0  0  0  0  0  0  0  0  0  0
    5.1785    9.0615    3.5661 N   0  0  0  0  0  0  0  0  0  0  0  0
  1  2  1  0
  2  3  2  0
  3  4  1  0
  4  5  2  0
  5  6  1  0
  6  7  1  0
  7  8  2  0
  7  9  1  0
  9 10  1  0
 10 11  1  0
 11 12  1  0
 12 13  1  0
 13 14  1  0
 13 15  1  0
 12 16  1  0
 16 17  1  0
  5 18  1  0
 18 19  2  0
 19  2  1  0
 17  9  1  0
M  CHG  1  15   1
M  END
>  <EmbedRMS>  (4) 
0.1605149994458257

>  <Gold.Version>  (4) 
2020.3.0

>  <Gold.Id.Protein>  (4) 
unknown|1q8t_protein|pdb

>  <Gold.PLP.Fitness>  (4) 
47.3683

>  <Gold.PLP.PLP>  (4) 
-40.2327

>  <Gold.PLP.part.hbond>  (4) 
-2.3913

>  <Gold.PLP.part.metal>  (4) 
0.0000

>  <Gold.PLP.part.buried>  (4) 
1.2304

>  <Gold.PLP.part.nonpolar>  (4) 
-39.2729

>  <Gold.PLP.part.repulsive>  (4) 
0.1342

>  <Gold.PLP.ligand.clash>  (4) 
0.0000

>  <Gold.PLP.ligand.torsion>  (4) 
1.1307

>  <Gold.PLP.Chemscore.Hbond>  (4) 
2.8153

>  <Gold.PLP.Chemscore.CHOScore>  (4) 
0.1300

>  <Gold.PLP.Chemscore.Metal>  (4) 
0.0000

>  <Gold.Chemscore.Hbonds>  (4) 
donor molecule, donor type, donor heavy atom, donor atom, acceptor molecule, acceptor atom, score
      L1  H    15    36       P1  2902  1.82
      L1  H    15    38       P1  2691  0.99
      L1  C    18    43       P1  2887  0.13

>  <Gold.PLP.Chemscore.Internal.Correction>  (4) 
0.5613

>  <Gold.PLP.Constraint>  (4) 
-0.0000

>  <Gold.Protein.RotatedTorsions>  (4) 
[  681  677  676  673 ] final  120.01 input -179.99 | X-H torsion
[  702  698  697  694 ] final  124.04 input  179.99 | X-H torsion
[ 2577 2569 2568 2566 ] final   58.94 input   -0.13 | X-H torsion
[ 2891 2887 2886 2883 ] final   63.17 input  179.98 | X-H torsion
[ 3175 3171 3170 3167 ] final  176.46 input -179.99 | X-H torsion
[ 5278 5270 5269 5267 ] final  -49.30 input    0.55 | X-H torsion
[  641  637  636  633 ] final -164.03 input  179.99 | X-H torsion
[ 1886 1878 1877 1875 ] final   68.93 input    1.60 | X-H torsion
[  965  957  956  954 ] final -177.46 input    0.45 | X-H torsion

>  <Gold.Protein.ActiveResidues>  (4) 
 LYS47   THR48   LEU49   GLY50   THR51   GLY52   SER53   PHE54   GLY55   ARG56  
 VAL57   MET58   LEU59   TYR69   ALA70   MET71   LYS72   ILE73   LEU74   GLU91  
 LEU95   VAL104  LYS105  MET118  VAL119  MET120  GLU121  TYR122  VAL123  PRO124 
 GLY125  GLY126  GLU127  MET128  PHE129  TYR164  ASP166  LEU167  LYS168  PRO169 
 GLU170  ASN171  LEU172  LEU173  ILE174  GLN181  VAL182  THR183  ASP184  PHE185 
 GLY186  PHE187  GLY200  THR201  ASN326  PHE327  TYR330  ARG18   ARG19   ASN20  
 ALA21   ILE22   HIS23  

>  <Gold.Protein.RotatedAtoms>  (4) 
   11.3570   19.2616    7.9945 H   0  0  0  0  0  0  0  0  0  0  0  0  # atno 641  bound_to 637 
   17.2304   13.3746    6.3433 H   0  0  0  0  0  0  0  0  0  0  0  0  # atno 681  bound_to 677 
   20.2436   11.7195   -2.0311 H   0  0  0  0  0  0  0  0  0  0  0  0  # atno 702  bound_to 698 
   -6.8767   17.1439   -0.6184 H   0  0  0  0  0  0  0  0  0  0  0  0  # atno 965  bound_to 957 
    1.8699   12.2061   10.6278 H   0  0  0  0  0  0  0  0  0  0  0  0  # atno 1886 bound_to 1878
    9.2855    2.6457   -2.9721 H   0  0  0  0  0  0  0  0  0  0  0  0  # atno 2577 bound_to 2569
    8.3377    6.3320    0.2787 H   0  0  0  0  0  0  0  0  0  0  0  0  # atno 2891 bound_to 2887
   18.1240    2.1857    0.1497 H   0  0  0  0  0  0  0  0  0  0  0  0  # atno 3175 bound_to 3171
   13.1395    9.8286   10.3961 H   0  0  0  0  0  0  0  0  0  0  0  0  # atno 5278 bound_to 5270
   15.8472   12.5927    6.4507 LP  0  0  0  0  0  0  0  0  0  0  0  0  # atno 5914 bound_to 677 
   16.1914   13.8278    7.4619 LP  0  0  0  0  0  0  0  0  0  0  0  0  # atno 5915 bound_to 677 
   19.4202   11.8224   -0.6714 LP  0  0  0  0  0  0  0  0  0  0  0  0  # atno 5920 bound_to 698 
   21.0280   11.5371   -0.6567 LP  0  0  0  0  0  0  0  0  0  0  0  0  # atno 5921 bound_to 698 
   10.6924    3.3104   -3.3102 LP  0  0  0  0  0  0  0  0  0  0  0  0  # atno 5950 bound_to 2569
   10.6013    1.9681   -2.3847 LP  0  0  0  0  0  0  0  0  0  0  0  0  # atno 5951 bound_to 2569
    7.5204    5.1516    0.9681 LP  0  0  0  0  0  0  0  0  0  0  0  0  # atno 5982 bound_to 2887
    7.3795    6.6892    1.4996 LP  0  0  0  0  0  0  0  0  0  0  0  0  # atno 5983 bound_to 2887
   18.4506    2.2454   -1.4077 LP  0  0  0  0  0  0  0  0  0  0  0  0  # atno 6000 bound_to 3171
   19.3638    3.0631   -0.3287 LP  0  0  0  0  0  0  0  0  0  0  0  0  # atno 6001 bound_to 3171
   14.4707   10.0349    9.5462 LP  0  0  0  0  0  0  0  0  0  0  0  0  # atno 6004 bound_to 5270
   13.0012   10.1910    8.8514 LP  0  0  0  0  0  0  0  0  0  0  0  0  # atno 6005 bound_to 5270
   10.0956   19.7725    8.8208 LP  0  0  0  0  0  0  0  0  0  0  0  0  # atno 6055 bound_to 637 
    9.9080   19.0432    7.3719 LP  0  0  0  0  0  0  0  0  0  0  0  0  # atno 6056 bound_to 637 
    1.8420   10.6319   10.3905 LP  0  0  0  0  0  0  0  0  0  0  0  0  # atno 6063 bound_to 1878
    0.5749   11.3974   11.0797 LP  0  0  0  0  0  0  0  0  0  0  0  0  # atno 6064 bound_to 1878
   -7.1148   15.6359   -0.1663 LP  0  0  0  0  0  0  0  0  0  0  0  0  # atno 6067 bound_to 957 
   -6.4508   15.9801   -1.6180 LP  0  0  0  0  0  0  0  0  0  0  0  0  # atno 6068 bound_to 957 

>  <STRIFE_LigEff_Score>  (4) 
2.4930684210526315

$$$$
unknown|pharmsElabsTestPreDocking|sdf|14|dock7
     RDKit          3D

 17 17  0  0  0  0  0  0  0  0999 V2000
    3.4783    8.6315    2.1820 C   0  0  0  0  0  0  0  0  0  0  0  0
    4.7925    8.8614    2.1299 C   0  0  0  0  0  0  0  0  0  0  0  0
    5.6739    9.1268    3.2930 C   0  0  0  0  0  0  0  0  0  0  0  0
    5.1664    9.7227    4.3992 C   0  0  0  0  0  0  0  0  0  0  0  0
    5.9811   10.0984    5.5993 C   0  0  0  0  0  0  0  0  0  0  0  0
    7.1009    8.8769    3.2207 N   0  0  0  0  0  0  0  0  0  0  0  0
    8.1320    9.2992    2.2974 C   0  0  0  0  0  0  0  0  0  0  0  0
    7.7887   10.1005    1.3904 O   0  0  0  0  0  0  0  0  0  0  0  0
    9.6042    8.9891    2.2981 C   0  0  0  0  0  0  0  0  0  0  0  0
    9.9460    7.5776    2.7447 C   0  0  0  0  0  0  0  0  0  0  0  0
   11.3888    7.1912    2.4919 C   0  0  0  0  0  0  0  0  0  0  0  0
   12.4521    8.2868    2.6198 C   0  0  0  0  0  0  0  0  0  0  0  0
   13.7674    7.9355    1.8815 C   0  0  0  0  0  0  0  0  0  0  0  0
   14.7236    9.0723    1.5199 C   0  0  0  0  0  0  0  0  0  0  0  0
   13.5567    7.0120    0.7657 N   0  0  0  0  0  0  0  0  0  0  0  0
   12.0131    9.7288    2.2642 C   0  0  0  0  0  0  0  0  0  0  0  0
   10.5720   10.1086    2.5772 C   0  0  0  0  0  0  0  0  0  0  0  0
  1  2  2  0
  2  3  1  0
  3  4  2  0
  4  5  1  0
  3  6  1  0
  6  7  1  0
  7  8  2  0
  7  9  1  0
  9 10  1  0
 10 11  1  0
 11 12  1  0
 12 13  1  0
 13 14  1  0
 13 15  1  0
 12 16  1  0
 16 17  1  0
 17  9  1  0
M  CHG  1  15   1
M  END
>  <EmbedRMS>  (5) 
0.29216731409503444

>  <Gold.Version>  (5) 
2020.3.0

>  <Gold.Id.Protein>  (5) 
unknown|1q8t_protein|pdb

>  <Gold.PLP.Fitness>  (5) 
44.6880

>  <Gold.PLP.PLP>  (5) 
-38.6574

>  <Gold.PLP.part.hbond>  (5) 
-1.7912

>  <Gold.PLP.part.metal>  (5) 
0.0000

>  <Gold.PLP.part.buried>  (5) 
-3.7282

>  <Gold.PLP.part.nonpolar>  (5) 
-33.6651

>  <Gold.PLP.part.repulsive>  (5) 
0.0645

>  <Gold.PLP.ligand.clash>  (5) 
0.0000

>  <Gold.PLP.ligand.torsion>  (5) 
1.9053

>  <Gold.PLP.Chemscore.Hbond>  (5) 
2.9760

>  <Gold.PLP.Chemscore.CHOScore>  (5) 
0.0000

>  <Gold.PLP.Chemscore.Metal>  (5) 
0.0000

>  <Gold.Chemscore.Hbonds>  (5) 
donor molecule, donor type, donor heavy atom, donor atom, acceptor molecule, acceptor atom, score
      L1  H    15    36       P1  2902  2.00
      L1  H    15    37       P1  2691  0.98

>  <Gold.PLP.Chemscore.Internal.Correction>  (5) 
0.9133

>  <Gold.PLP.Constraint>  (5) 
-0.0000

>  <Gold.Protein.RotatedTorsions>  (5) 
[  681  677  676  673 ] final   88.35 input -179.99 | X-H torsion
[  702  698  697  694 ] final  137.22 input  179.99 | X-H torsion
[ 2577 2569 2568 2566 ] final -121.69 input   -0.13 | X-H torsion
[ 2891 2887 2886 2883 ] final  -25.10 input  179.98 | X-H torsion
[ 3175 3171 3170 3167 ] final  -40.10 input -179.99 | X-H torsion
[ 5278 5270 5269 5267 ] final  -93.24 input    0.55 | X-H torsion
[  641  637  636  633 ] final   79.10 input  179.99 | X-H torsion
[ 1886 1878 1877 1875 ] final -171.06 input    1.60 | X-H torsion
[  965  957  956  954 ] final  156.07 input    0.45 | X-H torsion

>  <Gold.Protein.ActiveResidues>  (5) 
 LYS47   THR48   LEU49   GLY50   THR51   GLY52   SER53   PHE54   GLY55   ARG56  
 VAL57   MET58   LEU59   TYR69   ALA70   MET71   LYS72   ILE73   LEU74   GLU91  
 LEU95   VAL104  LYS105  MET118  VAL119  MET120  GLU121  TYR122  VAL123  PRO124 
 GLY125  GLY126  GLU127  MET128  PHE129  TYR164  ASP166  LEU167  LYS168  PRO169 
 GLU170  ASN171  LEU172  LEU173  ILE174  GLN181  VAL182  THR183  ASP184  PHE185 
 GLY186  PHE187  GLY200  THR201  ASN326  PHE327  TYR330  ARG18   ARG19   ASN20  
 ALA21   ILE22   HIS23  

>  <Gold.Protein.RotatedAtoms>  (5) 
   10.1590   19.7434    8.8071 H   0  0  0  0  0  0  0  0  0  0  0  0  # atno 641  bound_to 637 
   17.0126   13.0040    6.1109 H   0  0  0  0  0  0  0  0  0  0  0  0  # atno 681  bound_to 677 
   20.4446   11.6834   -2.0056 H   0  0  0  0  0  0  0  0  0  0  0  0  # atno 702  bound_to 698 
   -7.0315   16.9681   -0.2820 H   0  0  0  0  0  0  0  0  0  0  0  0  # atno 965  bound_to 957 
    0.6114   11.4013   11.0453 H   0  0  0  0  0  0  0  0  0  0  0  0  # atno 1886 bound_to 1878
   11.0698    2.6167   -2.8211 H   0  0  0  0  0  0  0  0  0  0  0  0  # atno 2577 bound_to 2569
    7.8430    5.2289    0.5874 H   0  0  0  0  0  0  0  0  0  0  0  0  # atno 2891 bound_to 2887
   19.3599    2.9900   -0.6983 H   0  0  0  0  0  0  0  0  0  0  0  0  # atno 3175 bound_to 3171
   13.8085    9.8243   10.4418 H   0  0  0  0  0  0  0  0  0  0  0  0  # atno 5278 bound_to 5270
   15.6058   12.8314    6.8370 LP  0  0  0  0  0  0  0  0  0  0  0  0  # atno 5914 bound_to 677 
   16.6622   13.9790    7.3203 LP  0  0  0  0  0  0  0  0  0  0  0  0  # atno 5915 bound_to 677 
   19.3379   11.8408   -0.8708 LP  0  0  0  0  0  0  0  0  0  0  0  0  # atno 5920 bound_to 698 
   20.8988   11.5567   -0.4841 LP  0  0  0  0  0  0  0  0  0  0  0  0  # atno 5921 bound_to 698 
    9.6530    1.9835   -2.4649 LP  0  0  0  0  0  0  0  0  0  0  0  0  # atno 5950 bound_to 2569
    9.7620    3.3256   -3.3888 LP  0  0  0  0  0  0  0  0  0  0  0  0  # atno 5951 bound_to 2569
    7.1751    6.2336    1.6272 LP  0  0  0  0  0  0  0  0  0  0  0  0  # atno 5982 bound_to 2887
    8.2453    6.7682    0.5156 LP  0  0  0  0  0  0  0  0  0  0  0  0  # atno 5983 bound_to 2887
   18.3413    2.3977    0.3728 LP  0  0  0  0  0  0  0  0  0  0  0  0  # atno 6000 bound_to 3171
   18.1724    2.0644   -1.2168 LP  0  0  0  0  0  0  0  0  0  0  0  0  # atno 6001 bound_to 3171
   14.1600   10.1836    8.9304 LP  0  0  0  0  0  0  0  0  0  0  0  0  # atno 6004 bound_to 5270
   12.6079   10.0469    9.4191 LP  0  0  0  0  0  0  0  0  0  0  0  0  # atno 6005 bound_to 5270
    9.8677   19.0594    7.3992 LP  0  0  0  0  0  0  0  0  0  0  0  0  # atno 6055 bound_to 637 
   11.3977   19.2488    7.9376 LP  0  0  0  0  0  0  0  0  0  0  0  0  # atno 6056 bound_to 637 
    1.8997   12.2446   10.6401 LP  0  0  0  0  0  0  0  0  0  0  0  0  # atno 6063 bound_to 1878
    1.8420   10.6319   10.3905 LP  0  0  0  0  0  0  0  0  0  0  0  0  # atno 6064 bound_to 1878
   -6.9695   15.3909   -0.4906 LP  0  0  0  0  0  0  0  0  0  0  0  0  # atno 6067 bound_to 957 
   -6.4330   16.4104   -1.6480 LP  0  0  0  0  0  0  0  0  0  0  0  0  # atno 6068 bound_to 957 

>  <STRIFE_LigEff_Score>  (5) 
2.6287058823529414

$$$$
unknown|pharmsElabsTestPreDocking|sdf|15|dock6
     RDKit          3D

 16 16  0  0  0  0  0  0  0  0999 V2000
   13.5386    7.0757    3.5366 C   0  0  0  0  0  0  0  0  0  0  0  0
   13.3720    7.9566    2.2827 C   0  0  0  0  0  0  0  0  0  0  0  0
   13.7808    7.1900    1.0984 N   0  0  0  0  0  0  0  0  0  0  0  0
   11.9035    8.4653    2.1761 C   0  0  0  0  0  0  0  0  0  0  0  0
   10.9370    7.2669    2.0770 C   0  0  0  0  0  0  0  0  0  0  0  0
    9.5187    7.7545    1.8141 C   0  0  0  0  0  0  0  0  0  0  0  0
    9.0524    8.6685    2.9525 C   0  0  0  0  0  0  0  0  0  0  0  0
    7.6457    9.1334    2.7032 C   0  0  0  0  0  0  0  0  0  0  0  0
    7.3911    9.9100    1.7397 O   0  0  0  0  0  0  0  0  0  0  0  0
    6.5957    8.6796    3.5651 N   0  0  0  0  0  0  0  0  0  0  0  0
    5.2123    9.1068    3.4065 C   0  0  0  0  0  0  0  0  0  0  0  0
    4.6571    9.5233    4.7421 C   0  0  0  0  0  0  0  0  0  0  0  0
    5.4167   10.1022    5.6076 N   0  0  0  0  0  0  0  0  0  0  0  0
    3.3021    9.1908    5.0894 N   0  0  0  0  0  0  0  0  0  0  0  0
   10.0088    9.8583    3.1438 C   0  0  0  0  0  0  0  0  0  0  0  0
   11.4569    9.3784    3.3450 C   0  0  0  0  0  0  0  0  0  0  0  0
  1  2  1  0
  2  3  1  0
  2  4  1  0
  4  5  1  0
  5  6  1  0
  6  7  1  0
  7  8  1  0
  8  9  2  0
  8 10  1  0
 10 11  1  0
 11 12  1  0
 12 13  2  0
 12 14  1  0
  7 15  1  0
 15 16  1  0
 16  4  1  0
M  CHG  3   3   1  13   1  14   1
M  END
>  <EmbedRMS>  (6) 
0.03078882717110932

>  <Gold.Version>  (6) 
2020.3.0

>  <Gold.Id.Protein>  (6) 
unknown|1q8t_protein|pdb

>  <Gold.PLP.Fitness>  (6) 
40.8979

>  <Gold.PLP.PLP>  (6) 
-30.6088

>  <Gold.PLP.part.hbond>  (6) 
-3.0000

>  <Gold.PLP.part.metal>  (6) 
0.0000

>  <Gold.PLP.part.buried>  (6) 
-3.2385

>  <Gold.PLP.part.nonpolar>  (6) 
-25.3388

>  <Gold.PLP.part.repulsive>  (6) 
1.6241

>  <Gold.PLP.ligand.clash>  (6) 
0.0000

>  <Gold.PLP.ligand.torsion>  (6) 
0.4693

>  <Gold.PLP.Chemscore.Hbond>  (6) 
3.7293

>  <Gold.PLP.Chemscore.CHOScore>  (6) 
0.0000

>  <Gold.PLP.Chemscore.Metal>  (6) 
0.0000

>  <Gold.Chemscore.Hbonds>  (6) 
donor molecule, donor type, donor heavy atom, donor atom, acceptor molecule, acceptor atom, score
      L1  H     3    22       P1  2902  2.00
      L1  H     3    23       P1  2691  1.00
      L1  H    14    36       P1  1891  0.73

>  <Gold.PLP.Chemscore.Internal.Correction>  (6) 
0.0398

>  <Gold.PLP.Constraint>  (6) 
-0.0000

>  <Gold.Protein.RotatedTorsions>  (6) 
[  681  677  676  673 ] final  154.14 input -179.99 | X-H torsion
[  702  698  697  694 ] final -110.80 input  179.99 | X-H torsion
[ 2577 2569 2568 2566 ] final   73.93 input   -0.13 | X-H torsion
[ 2891 2887 2886 2883 ] final  -77.11 input  179.98 | X-H torsion
[ 3175 3171 3170 3167 ] final  106.30 input -179.99 | X-H torsion
[ 5278 5270 5269 5267 ] final  -28.43 input    0.55 | X-H torsion
[  641  637  636  633 ] final  -36.31 input  179.99 | X-H torsion
[ 1886 1878 1877 1875 ] final   89.77 input    1.60 | X-H torsion
[  965  957  956  954 ] final    3.25 input    0.45 | X-H torsion

>  <Gold.Protein.ActiveResidues>  (6) 
 LYS47   THR48   LEU49   GLY50   THR51   GLY52   SER53   PHE54   GLY55   ARG56  
 VAL57   MET58   LEU59   TYR69   ALA70   MET71   LYS72   ILE73   LEU74   GLU91  
 LEU95   VAL104  LYS105  MET118  VAL119  MET120  GLU121  TYR122  VAL123  PRO124 
 GLY125  GLY126  GLU127  MET128  PHE129  TYR164  ASP166  LEU167  LYS168  PRO169 
 GLU170  ASN171  LEU172  LEU173  ILE174  GLN181  VAL182  THR183  ASP184  PHE185 
 GLY186  PHE187  GLY200  THR201  ASN326  PHE327  TYR330  ARG18   ARG19   ASN20  
 ALA21   ILE22   HIS23  

>  <Gold.Protein.RotatedAtoms>  (6) 
    9.8439   19.0842    7.4816 H   0  0  0  0  0  0  0  0  0  0  0  0  # atno 641  bound_to 637 
   17.1989   13.7374    6.7226 H   0  0  0  0  0  0  0  0  0  0  0  0  # atno 681  bound_to 677 
   20.9478   11.5673   -0.6124 H   0  0  0  0  0  0  0  0  0  0  0  0  # atno 702  bound_to 698 
   -6.7387   15.3913   -0.9583 H   0  0  0  0  0  0  0  0  0  0  0  0  # atno 965  bound_to 957 
    1.5940   12.3045   10.7662 H   0  0  0  0  0  0  0  0  0  0  0  0  # atno 1886 bound_to 1878
    9.3030    2.4549   -2.8382 H   0  0  0  0  0  0  0  0  0  0  0  0  # atno 2577 bound_to 2569
    7.3437    5.3188    1.1873 H   0  0  0  0  0  0  0  0  0  0  0  0  # atno 2891 bound_to 2887
   17.9964    1.9606   -0.8469 H   0  0  0  0  0  0  0  0  0  0  0  0  # atno 3175 bound_to 3171
   12.8780    9.8720   10.2090 H   0  0  0  0  0  0  0  0  0  0  0  0  # atno 5278 bound_to 5270
   16.3016   12.5596    6.1364 LP  0  0  0  0  0  0  0  0  0  0  0  0  # atno 5914 bound_to 677 
   15.7703   13.4789    7.3770 LP  0  0  0  0  0  0  0  0  0  0  0  0  # atno 5915 bound_to 677 
   20.3248   11.6891   -2.0733 LP  0  0  0  0  0  0  0  0  0  0  0  0  # atno 5920 bound_to 698 
   19.3826   11.8305   -0.7471 LP  0  0  0  0  0  0  0  0  0  0  0  0  # atno 5921 bound_to 698 
   10.4710    3.3905   -3.3820 LP  0  0  0  0  0  0  0  0  0  0  0  0  # atno 5950 bound_to 2569
   10.8042    2.0890   -2.4538 LP  0  0  0  0  0  0  0  0  0  0  0  0  # atno 5951 bound_to 2569
    7.5754    6.8889    1.3206 LP  0  0  0  0  0  0  0  0  0  0  0  0  # atno 5982 bound_to 2887
    8.3706    6.0182    0.1909 LP  0  0  0  0  0  0  0  0  0  0  0  0  # atno 5983 bound_to 2887
   19.2652    2.8894   -1.0978 LP  0  0  0  0  0  0  0  0  0  0  0  0  # atno 6000 bound_to 3171
   18.6835    2.6560    0.4101 LP  0  0  0  0  0  0  0  0  0  0  0  0  # atno 6001 bound_to 3171
   14.4333    9.9533    9.8757 LP  0  0  0  0  0  0  0  0  0  0  0  0  # atno 6004 bound_to 5270
   13.3137   10.2270    8.7188 LP  0  0  0  0  0  0  0  0  0  0  0  0  # atno 6005 bound_to 5270
   11.3819   19.2160    7.8715 LP  0  0  0  0  0  0  0  0  0  0  0  0  # atno 6055 bound_to 637 
   10.2152   19.7866    8.8613 LP  0  0  0  0  0  0  0  0  0  0  0  0  # atno 6056 bound_to 637 
    2.0878   10.8578   10.3207 LP  0  0  0  0  0  0  0  0  0  0  0  0  # atno 6063 bound_to 1878
    0.6195   11.0679   11.0038 LP  0  0  0  0  0  0  0  0  0  0  0  0  # atno 6064 bound_to 1878
   -6.5227   16.8931   -1.4409 LP  0  0  0  0  0  0  0  0  0  0  0  0  # atno 6067 bound_to 957 
   -7.1882   16.5688    0.0146 LP  0  0  0  0  0  0  0  0  0  0  0  0  # atno 6068 bound_to 957 

>  <STRIFE_LigEff_Score>  (6) 
2.55611875

$$$$
unknown|pharmsElabsTestPreDocking|sdf|16|dock7
     RDKit          3D

 18 19  0  0  0  0  0  0  0  0999 V2000
   14.7758    7.7853    3.0869 C   0  0  0  0  0  0  0  0  0  0  0  0
   13.7299    8.0990    2.0065 C   0  0  0  0  0  0  0  0  0  0  0  0
   13.7851    7.0897    0.9429 N   0  0  0  0  0  0  0  0  0  0  0  0
   12.2658    8.3523    2.5107 C   0  0  0  0  0  0  0  0  0  0  0  0
   11.1909    7.4035    1.9488 C   0  0  0  0  0  0  0  0  0  0  0  0
    9.7957    7.9918    1.8760 C   0  0  0  0  0  0  0  0  0  0  0  0
    9.4568    8.8468    3.0928 C   0  0  0  0  0  0  0  0  0  0  0  0
    8.0233    9.2993    2.9936 C   0  0  0  0  0  0  0  0  0  0  0  0
    7.6573    9.9543    1.9809 O   0  0  0  0  0  0  0  0  0  0  0  0
    7.1110    9.0036    4.0625 N   0  0  0  0  0  0  0  0  0  0  0  0
    5.7127    9.3378    4.1324 C   0  0  0  0  0  0  0  0  0  0  0  0
    5.0757    9.7721    5.3155 C   0  0  0  0  0  0  0  0  0  0  0  0
    3.7163   10.0696    5.2964 C   0  0  0  0  0  0  0  0  0  0  0  0
    2.9914    9.9385    4.1161 C   0  0  0  0  0  0  0  0  0  0  0  0
    3.6426    9.5083    2.9613 C   0  0  0  0  0  0  0  0  0  0  0  0
    4.9704    9.2215    2.9956 N   0  0  0  0  0  0  0  0  0  0  0  0
   10.3789   10.0690    3.1733 C   0  0  0  0  0  0  0  0  0  0  0  0
   11.8759    9.7765    2.9577 C   0  0  0  0  0  0  0  0  0  0  0  0
  1  2  1  0
  2  3  1  0
  2  4  1  0
  4  5  1  0
  5  6  1  0
  6  7  1  0
  7  8  1  0
  8  9  2  0
  8 10  1  0
 10 11  1  0
 11 12  2  0
 12 13  1  0
 13 14  2  0
 14 15  1  0
 15 16  2  0
  7 17  1  0
 17 18  1  0
 18  4  1  0
 16 11  1  0
M  CHG  1   3   1
M  END
>  <EmbedRMS>  (7) 
0.16489371128598093

>  <Gold.Version>  (7) 
2020.3.0

>  <Gold.Id.Protein>  (7) 
unknown|1q8t_protein|pdb

>  <Gold.PLP.Fitness>  (7) 
51.7610

>  <Gold.PLP.PLP>  (7) 
-44.2831

>  <Gold.PLP.part.hbond>  (7) 
-2.0000

>  <Gold.PLP.part.metal>  (7) 
0.0000

>  <Gold.PLP.part.buried>  (7) 
-1.8964

>  <Gold.PLP.part.nonpolar>  (7) 
-40.5869

>  <Gold.PLP.part.repulsive>  (7) 
0.0666

>  <Gold.PLP.ligand.clash>  (7) 
0.0000

>  <Gold.PLP.ligand.torsion>  (7) 
1.4485

>  <Gold.PLP.Chemscore.Hbond>  (7) 
3.0000

>  <Gold.PLP.Chemscore.CHOScore>  (7) 
0.2725

>  <Gold.PLP.Chemscore.Metal>  (7) 
0.0000

>  <Gold.Chemscore.Hbonds>  (7) 
donor molecule, donor type, donor heavy atom, donor atom, acceptor molecule, acceptor atom, score
      L1  H     3    23       P1  2902  2.00
      L1  H     3    25       P1  2691  1.00
      L1  C    15    36       P1  1855  0.27

>  <Gold.PLP.Chemscore.Internal.Correction>  (7) 
0.5574

>  <Gold.PLP.Constraint>  (7) 
-0.0000

>  <Gold.Protein.RotatedTorsions>  (7) 
[  681  677  676  673 ] final   99.91 input -179.99 | X-H torsion
[  702  698  697  694 ] final -124.16 input  179.99 | X-H torsion
[ 2577 2569 2568 2566 ] final   89.63 input   -0.13 | X-H torsion
[ 2891 2887 2886 2883 ] final  -29.99 input  179.98 | X-H torsion
[ 3175 3171 3170 3167 ] final  -89.26 input -179.99 | X-H torsion
[ 5278 5270 5269 5267 ] final  165.43 input    0.55 | X-H torsion
[  641  637  636  633 ] final -144.52 input  179.99 | X-H torsion
[ 1886 1878 1877 1875 ] final -115.60 input    1.60 | X-H torsion
[  965  957  956  954 ] final -111.60 input    0.45 | X-H torsion

>  <Gold.Protein.ActiveResidues>  (7) 
 LYS47   THR48   LEU49   GLY50   THR51   GLY52   SER53   PHE54   GLY55   ARG56  
 VAL57   MET58   LEU59   TYR69   ALA70   MET71   LYS72   ILE73   LEU74   GLU91  
 LEU95   VAL104  LYS105  MET118  VAL119  MET120  GLU121  TYR122  VAL123  PRO124 
 GLY125  GLY126  GLU127  MET128  PHE129  TYR164  ASP166  LEU167  LYS168  PRO169 
 GLU170  ASN171  LEU172  LEU173  ILE174  GLN181  VAL182  THR183  ASP184  PHE185 
 GLY186  PHE187  GLY200  THR201  ASN326  PHE327  TYR330  ARG18   ARG19   ASN20  
 ALA21   ILE22   HIS23  

>  <Gold.Protein.RotatedAtoms>  (7) 
   11.2717   19.1330    7.7333 H   0  0  0  0  0  0  0  0  0  0  0  0  # atno 641  bound_to 637 
   17.1170   13.1356    6.1767 H   0  0  0  0  0  0  0  0  0  0  0  0  # atno 681  bound_to 677 
   21.0480   11.5531   -0.7948 H   0  0  0  0  0  0  0  0  0  0  0  0  # atno 702  bound_to 698 
   -6.5024   16.7989   -1.4481 H   0  0  0  0  0  0  0  0  0  0  0  0  # atno 965  bound_to 957 
    0.9408   10.6839   10.7778 H   0  0  0  0  0  0  0  0  0  0  0  0  # atno 1886 bound_to 1878
    9.3851    2.2685   -2.7029 H   0  0  0  0  0  0  0  0  0  0  0  0  # atno 2577 bound_to 2569
    7.7927    5.2069    0.6405 H   0  0  0  0  0  0  0  0  0  0  0  0  # atno 2891 bound_to 2887
   19.1822    2.9530    0.0244 H   0  0  0  0  0  0  0  0  0  0  0  0  # atno 3175 bound_to 3171
   14.3106   10.1386    9.1886 H   0  0  0  0  0  0  0  0  0  0  0  0  # atno 5278 bound_to 5270
   15.6675   12.7245    6.6927 LP  0  0  0  0  0  0  0  0  0  0  0  0  # atno 5914 bound_to 677 
   16.4906   13.9474    7.3953 LP  0  0  0  0  0  0  0  0  0  0  0  0  # atno 5915 bound_to 677 
   20.1088   11.7273   -2.0695 LP  0  0  0  0  0  0  0  0  0  0  0  0  # atno 5920 bound_to 698 
   19.4933   11.8073   -0.5591 LP  0  0  0  0  0  0  0  0  0  0  0  0  # atno 5921 bound_to 698 
   10.2182    3.4199   -3.4209 LP  0  0  0  0  0  0  0  0  0  0  0  0  # atno 5950 bound_to 2569
   10.9706    2.2558   -2.5575 LP  0  0  0  0  0  0  0  0  0  0  0  0  # atno 5951 bound_to 2569
    7.1962    6.3109    1.6213 LP  0  0  0  0  0  0  0  0  0  0  0  0  # atno 5982 bound_to 2887
    8.2773    6.7140    0.4657 LP  0  0  0  0  0  0  0  0  0  0  0  0  # atno 5983 bound_to 2887
   17.9118    2.0102   -0.1569 LP  0  0  0  0  0  0  0  0  0  0  0  0  # atno 6000 bound_to 3171
   18.7889    2.4908   -1.4477 LP  0  0  0  0  0  0  0  0  0  0  0  0  # atno 6001 bound_to 3171
   12.7187   10.1162    9.1426 LP  0  0  0  0  0  0  0  0  0  0  0  0  # atno 6004 bound_to 5270
   13.5210    9.7835   10.5255 LP  0  0  0  0  0  0  0  0  0  0  0  0  # atno 6005 bound_to 5270
   10.4057   19.7931    8.8949 LP  0  0  0  0  0  0  0  0  0  0  0  0  # atno 6055 bound_to 637 
    9.6878   19.1581    7.5728 LP  0  0  0  0  0  0  0  0  0  0  0  0  # atno 6056 bound_to 637 
    1.0974   12.2535   10.9953 LP  0  0  0  0  0  0  0  0  0  0  0  0  # atno 6063 bound_to 1878
    2.2976   11.3782   10.3170 LP  0  0  0  0  0  0  0  0  0  0  0  0  # atno 6064 bound_to 1878
   -7.1750   16.6477   -0.0128 LP  0  0  0  0  0  0  0  0  0  0  0  0  # atno 6067 bound_to 957 
   -6.7848   15.3318   -0.8976 LP  0  0  0  0  0  0  0  0  0  0  0  0  # atno 6068 bound_to 957 

>  <STRIFE_LigEff_Score>  (7) 
2.875611111111111

$$$$
unknown|pharmsElabsTestPreDocking|sdf|17|dock2
     RDKit          3D

 18 18  0  0  0  0  0  0  0  0999 V2000
    5.8701   10.1005    5.9292 C   0  0  0  0  0  0  0  0  0  0  0  0
    5.0924    9.9637    4.8519 C   0  0  0  0  0  0  0  0  0  0  0  0
    3.5965   10.0861    4.9976 C   0  0  0  0  0  0  0  0  0  0  0  0
    5.7049    9.5487    3.5552 C   0  0  0  0  0  0  0  0  0  0  0  0
    4.9796    9.6192    2.4231 C   0  0  0  0  0  0  0  0  0  0  0  0
    5.5074    9.1939    1.0881 C   0  0  0  0  0  0  0  0  0  0  0  0
    7.0215    8.9612    3.5129 N   0  0  0  0  0  0  0  0  0  0  0  0
    8.0985    9.4257    2.6903 C   0  0  0  0  0  0  0  0  0  0  0  0
    7.9039   10.3251    1.8239 O   0  0  0  0  0  0  0  0  0  0  0  0
    9.4769    8.8367    2.8785 C   0  0  0  0  0  0  0  0  0  0  0  0
    9.8654    8.0335    1.6431 C   0  0  0  0  0  0  0  0  0  0  0  0
   11.1923    7.3146    1.8092 C   0  0  0  0  0  0  0  0  0  0  0  0
   12.2802    8.1173    2.5477 C   0  0  0  0  0  0  0  0  0  0  0  0
   13.7636    7.7618    2.1767 C   0  0  0  0  0  0  0  0  0  0  0  0
   14.6240    7.1748    3.3058 C   0  0  0  0  0  0  0  0  0  0  0  0
   13.8513    6.9130    0.9830 N   0  0  0  0  0  0  0  0  0  0  0  0
   11.9690    9.5380    3.0635 C   0  0  0  0  0  0  0  0  0  0  0  0
   10.4883    9.9583    3.1390 C   0  0  0  0  0  0  0  0  0  0  0  0
  1  2  2  0
  2  3  1  0
  2  4  1  0
  4  5  2  0
  5  6  1  0
  4  7  1  0
  7  8  1  0
  8  9  2  0
  8 10  1  0
 10 11  1  0
 11 12  1  0
 12 13  1  0
 13 14  1  0
 14 15  1  0
 14 16  1  0
 13 17  1  0
 17 18  1  0
 18 10  1  0
M  CHG  1  16   1
M  END
>  <EmbedRMS>  (8) 
0.16480955270904202

>  <Gold.Version>  (8) 
2020.3.0

>  <Gold.Id.Protein>  (8) 
unknown|1q8t_protein|pdb

>  <Gold.PLP.Fitness>  (8) 
47.4096

>  <Gold.PLP.PLP>  (8) 
-40.5975

>  <Gold.PLP.part.hbond>  (8) 
-2.0000

>  <Gold.PLP.part.metal>  (8) 
0.0000

>  <Gold.PLP.part.buried>  (8) 
-1.5173

>  <Gold.PLP.part.nonpolar>  (8) 
-36.8599

>  <Gold.PLP.part.repulsive>  (8) 
0.0756

>  <Gold.PLP.ligand.clash>  (8) 
0.0000

>  <Gold.PLP.ligand.torsion>  (8) 
1.8967

>  <Gold.PLP.Chemscore.Hbond>  (8) 
3.0000

>  <Gold.PLP.Chemscore.CHOScore>  (8) 
0.0000

>  <Gold.PLP.Chemscore.Metal>  (8) 
0.0000

>  <Gold.Chemscore.Hbonds>  (8) 
donor molecule, donor type, donor heavy atom, donor atom, acceptor molecule, acceptor atom, score
      L1  H    16    39       P1  2691  1.00
      L1  H    16    40       P1  2902  2.00

>  <Gold.PLP.Chemscore.Internal.Correction>  (8) 
1.6055

>  <Gold.PLP.Constraint>  (8) 
-0.0000

>  <Gold.Protein.RotatedTorsions>  (8) 
[  681  677  676  673 ] final  -63.66 input -179.99 | X-H torsion
[  702  698  697  694 ] final  107.07 input  179.99 | X-H torsion
[ 2577 2569 2568 2566 ] final -131.10 input   -0.13 | X-H torsion
[ 2891 2887 2886 2883 ] final   91.64 input  179.98 | X-H torsion
[ 3175 3171 3170 3167 ] final -135.00 input -179.99 | X-H torsion
[ 5278 5270 5269 5267 ] final  -95.12 input    0.55 | X-H torsion
[  641  637  636  633 ] final  -65.32 input  179.99 | X-H torsion
[ 1886 1878 1877 1875 ] final  132.78 input    1.60 | X-H torsion
[  965  957  956  954 ] final -103.39 input    0.45 | X-H torsion

>  <Gold.Protein.ActiveResidues>  (8) 
 LYS47   THR48   LEU49   GLY50   THR51   GLY52   SER53   PHE54   GLY55   ARG56  
 VAL57   MET58   LEU59   TYR69   ALA70   MET71   LYS72   ILE73   LEU74   GLU91  
 LEU95   VAL104  LYS105  MET118  VAL119  MET120  GLU121  TYR122  VAL123  PRO124 
 GLY125  GLY126  GLU127  MET128  PHE129  TYR164  ASP166  LEU167  LYS168  PRO169 
 GLU170  ASN171  LEU172  LEU173  ILE174  GLN181  VAL182  THR183  ASP184  PHE185 
 GLY186  PHE187  GLY200  THR201  ASN326  PHE327  TYR330  ARG18   ARG19   ASN20  
 ALA21   ILE22   HIS23  

>  <Gold.Protein.RotatedAtoms>  (8) 
   10.2326   18.9655    7.2917 H   0  0  0  0  0  0  0  0  0  0  0  0  # atno 641  bound_to 637 
   15.6483   13.2168    7.1670 H   0  0  0  0  0  0  0  0  0  0  0  0  # atno 681  bound_to 677 
   19.9856   11.7645   -1.9944 H   0  0  0  0  0  0  0  0  0  0  0  0  # atno 702  bound_to 698 
   -6.4750   16.6904   -1.5106 H   0  0  0  0  0  0  0  0  0  0  0  0  # atno 965  bound_to 957 
    1.0013   12.1473   11.0007 H   0  0  0  0  0  0  0  0  0  0  0  0  # atno 1886 bound_to 1878
   11.0481    2.4967   -2.7394 H   0  0  0  0  0  0  0  0  0  0  0  0  # atno 2577 bound_to 2569
    8.2295    6.7017    0.4926 H   0  0  0  0  0  0  0  0  0  0  0  0  # atno 2891 bound_to 2887
   18.6750    2.6224    0.3682 H   0  0  0  0  0  0  0  0  0  0  0  0  # atno 3175 bound_to 3171
   13.8363    9.8269   10.4325 H   0  0  0  0  0  0  0  0  0  0  0  0  # atno 5278 bound_to 5270
   17.0702   13.9154    7.0044 LP  0  0  0  0  0  0  0  0  0  0  0  0  # atno 5914 bound_to 677 
   16.6337   12.6711    6.0412 LP  0  0  0  0  0  0  0  0  0  0  0  0  # atno 5915 bound_to 677 
   19.5880   11.7884   -0.4521 LP  0  0  0  0  0  0  0  0  0  0  0  0  # atno 5920 bound_to 698 
   21.1316   11.5237   -0.9145 LP  0  0  0  0  0  0  0  0  0  0  0  0  # atno 5921 bound_to 698 
    9.5323    2.0585   -2.5258 LP  0  0  0  0  0  0  0  0  0  0  0  0  # atno 5950 bound_to 2569
    9.9056    3.3770   -3.4140 LP  0  0  0  0  0  0  0  0  0  0  0  0  # atno 5951 bound_to 2569
    7.8250    5.1665    0.6188 LP  0  0  0  0  0  0  0  0  0  0  0  0  # atno 5982 bound_to 2887
    7.1887    6.2852    1.6238 LP  0  0  0  0  0  0  0  0  0  0  0  0  # atno 5983 bound_to 2887
   17.9598    1.9503   -0.8857 LP  0  0  0  0  0  0  0  0  0  0  0  0  # atno 6000 bound_to 3171
   19.2747    2.8987   -1.0808 LP  0  0  0  0  0  0  0  0  0  0  0  0  # atno 6001 bound_to 3171
   14.1367   10.1882    8.9107 LP  0  0  0  0  0  0  0  0  0  0  0  0  # atno 6004 bound_to 5270
   12.6020   10.0395    9.4486 LP  0  0  0  0  0  0  0  0  0  0  0  0  # atno 6005 bound_to 5270
   11.3805   19.4308    8.2921 LP  0  0  0  0  0  0  0  0  0  0  0  0  # atno 6055 bound_to 637 
    9.8074   19.6967    8.6407 LP  0  0  0  0  0  0  0  0  0  0  0  0  # atno 6056 bound_to 637 
    2.3032   11.5143   10.3377 LP  0  0  0  0  0  0  0  0  0  0  0  0  # atno 6063 bound_to 1878
    1.0281   10.5768   10.7399 LP  0  0  0  0  0  0  0  0  0  0  0  0  # atno 6064 bound_to 1878
   -7.1480   16.7671   -0.0697 LP  0  0  0  0  0  0  0  0  0  0  0  0  # atno 6067 bound_to 957 
   -6.8407   15.3266   -0.7749 LP  0  0  0  0  0  0  0  0  0  0  0  0  # atno 6068 bound_to 957 

>  <STRIFE_LigEff_Score>  (8) 
2.6338666666666666

$$$$
unknown|pharmsElabsTestPreDocking|sdf|18|dock10
     RDKit          3D

 18 19  0  0  0  0  0  0  0  0999 V2000
   14.7179    7.2368    3.5342 C   0  0  0  0  0  0  0  0  0  0  0  0
   13.8704    7.9163    2.4481 C   0  0  0  0  0  0  0  0  0  0  0  0
   13.9943    7.1864    1.1813 N   0  0  0  0  0  0  0  0  0  0  0  0
   12.3754    8.2137    2.8194 C   0  0  0  0  0  0  0  0  0  0  0  0
   11.3411    7.2013    2.2934 C   0  0  0  0  0  0  0  0  0  0  0  0
    9.9552    7.7688    2.0593 C   0  0  0  0  0  0  0  0  0  0  0  0
    9.5341    8.7502    3.1478 C   0  0  0  0  0  0  0  0  0  0  0  0
    8.1113    9.1792    2.9015 C   0  0  0  0  0  0  0  0  0  0  0  0
    7.8240    9.7530    1.8168 O   0  0  0  0  0  0  0  0  0  0  0  0
    7.1197    8.9549    3.9151 N   0  0  0  0  0  0  0  0  0  0  0  0
    5.7164    9.2789    3.8464 C   0  0  0  0  0  0  0  0  0  0  0  0
    5.0838    9.7558    5.0046 C   0  0  0  0  0  0  0  0  0  0  0  0
    3.7305   10.0877    4.9849 C   0  0  0  0  0  0  0  0  0  0  0  0
    3.0088    9.9419    3.8023 C   0  0  0  0  0  0  0  0  0  0  0  0
    3.6234    9.4805    2.6852 N   0  0  0  0  0  0  0  0  0  0  0  0
    4.9386    9.1493    2.6742 C   0  0  0  0  0  0  0  0  0  0  0  0
   10.4489    9.9802    3.1565 C   0  0  0  0  0  0  0  0  0  0  0  0
   11.9569    9.6761    3.0782 C   0  0  0  0  0  0  0  0  0  0  0  0
  1  2  1  0
  2  3  1  0
  2  4  1  0
  4  5  1  0
  5  6  1  0
  6  7  1  0
  7  8  1  0
  8  9  2  0
  8 10  1  0
 10 11  1  0
 11 12  2  0
 12 13  1  0
 13 14  2  0
 14 15  1  0
 15 16  2  0
  7 17  1  0
 17 18  1  0
 18  4  1  0
 16 11  1  0
M  CHG  1   3   1
M  END
>  <EmbedRMS>  (9) 
0.16496192233382964

>  <Gold.Version>  (9) 
2020.3.0

>  <Gold.Id.Protein>  (9) 
unknown|1q8t_protein|pdb

>  <Gold.PLP.Fitness>  (9) 
52.6133

>  <Gold.PLP.PLP>  (9) 
-43.0768

>  <Gold.PLP.part.hbond>  (9) 
-2.0000

>  <Gold.PLP.part.metal>  (9) 
0.0000

>  <Gold.PLP.part.buried>  (9) 
-2.7031

>  <Gold.PLP.part.nonpolar>  (9) 
-38.3938

>  <Gold.PLP.part.repulsive>  (9) 
0.1346

>  <Gold.PLP.ligand.clash>  (9) 
0.0000

>  <Gold.PLP.ligand.torsion>  (9) 
1.4675

>  <Gold.PLP.Chemscore.Hbond>  (9) 
3.0000

>  <Gold.PLP.Chemscore.CHOScore>  (9) 
0.9705

>  <Gold.PLP.Chemscore.Metal>  (9) 
0.0000

>  <Gold.Chemscore.Hbonds>  (9) 
donor molecule, donor type, donor heavy atom, donor atom, acceptor molecule, acceptor atom, score
      L1  H     3    23       P1  2691  1.00
      L1  H     3    25       P1  2902  2.00
      L1  C    14    35       P1  1855  0.97

>  <Gold.PLP.Chemscore.Internal.Correction>  (9) 
0.5600

>  <Gold.PLP.Constraint>  (9) 
-0.0000

>  <Gold.Protein.RotatedTorsions>  (9) 
[  681  677  676  673 ] final  -31.87 input -179.99 | X-H torsion
[  702  698  697  694 ] final   39.32 input  179.99 | X-H torsion
[ 2577 2569 2568 2566 ] final -153.92 input   -0.13 | X-H torsion
[ 2891 2887 2886 2883 ] final  152.68 input  179.98 | X-H torsion
[ 3175 3171 3170 3167 ] final  -38.83 input -179.99 | X-H torsion
[ 5278 5270 5269 5267 ] final  -60.11 input    0.55 | X-H torsion
[  641  637  636  633 ] final  -37.46 input  179.99 | X-H torsion
[ 1886 1878 1877 1875 ] final   87.74 input    1.60 | X-H torsion
[  965  957  956  954 ] final  -34.16 input    0.45 | X-H torsion

>  <Gold.Protein.ActiveResidues>  (9) 
 LYS47   THR48   LEU49   GLY50   THR51   GLY52   SER53   PHE54   GLY55   ARG56  
 VAL57   MET58   LEU59   TYR69   ALA70   MET71   LYS72   ILE73   LEU74   GLU91  
 LEU95   VAL104  LYS105  MET118  VAL119  MET120  GLU121  TYR122  VAL123  PRO124 
 GLY125  GLY126  GLU127  MET128  PHE129  TYR164  ASP166  LEU167  LYS168  PRO169 
 GLU170  ASN171  LEU172  LEU173  ILE174  GLN181  VAL182  THR183  ASP184  PHE185 
 GLY186  PHE187  GLY200  THR201  ASN326  PHE327  TYR330  ARG18   ARG19   ASN20  
 ALA21   ILE22   HIS23  

>  <Gold.Protein.RotatedAtoms>  (9) 
    9.8569   19.0779    7.4707 H   0  0  0  0  0  0  0  0  0  0  0  0  # atno 641  bound_to 637 
   15.6398   12.8658    6.8243 H   0  0  0  0  0  0  0  0  0  0  0  0  # atno 681  bound_to 677 
   19.3550   11.8615   -1.2254 H   0  0  0  0  0  0  0  0  0  0  0  0  # atno 702  bound_to 698 
   -6.5308   15.6798   -1.4091 H   0  0  0  0  0  0  0  0  0  0  0  0  # atno 965  bound_to 957 
    1.6225   12.2999   10.7528 H   0  0  0  0  0  0  0  0  0  0  0  0  # atno 1886 bound_to 1878
   10.9006    2.2272   -2.5631 H   0  0  0  0  0  0  0  0  0  0  0  0  # atno 2577 bound_to 2569
    7.6757    6.9098    1.1839 H   0  0  0  0  0  0  0  0  0  0  0  0  # atno 2891 bound_to 2887
   19.3577    2.9858   -0.7175 H   0  0  0  0  0  0  0  0  0  0  0  0  # atno 3175 bound_to 3171
   13.2978    9.8160   10.4538 H   0  0  0  0  0  0  0  0  0  0  0  0  # atno 5278 bound_to 5270
   16.6653   13.9793    7.3186 LP  0  0  0  0  0  0  0  0  0  0  0  0  # atno 5914 bound_to 677 
   17.0475   12.9766    6.0878 LP  0  0  0  0  0  0  0  0  0  0  0  0  # atno 5915 bound_to 677 
   20.6076   11.6042   -0.2756 LP  0  0  0  0  0  0  0  0  0  0  0  0  # atno 5920 bound_to 698 
   20.7753   11.6059   -1.9000 LP  0  0  0  0  0  0  0  0  0  0  0  0  # atno 5921 bound_to 698 
    9.3168    2.3010   -2.7100 LP  0  0  0  0  0  0  0  0  0  0  0  0  # atno 5950 bound_to 2569
   10.2762    3.4183   -3.4155 LP  0  0  0  0  0  0  0  0  0  0  0  0  # atno 5951 bound_to 2569
    8.3363    5.8540    0.1912 LP  0  0  0  0  0  0  0  0  0  0  0  0  # atno 5982 bound_to 2887
    7.2602    5.3787    1.3238 LP  0  0  0  0  0  0  0  0  0  0  0  0  # atno 5983 bound_to 2887
   18.3568    2.4100    0.3791 LP  0  0  0  0  0  0  0  0  0  0  0  0  # atno 6000 bound_to 3171
   18.1592    2.0565   -1.2029 LP  0  0  0  0  0  0  0  0  0  0  0  0  # atno 6001 bound_to 3171
   14.4412   10.0766    9.3760 LP  0  0  0  0  0  0  0  0  0  0  0  0  # atno 6004 bound_to 5270
   12.8642   10.1625    8.9609 LP  0  0  0  0  0  0  0  0  0  0  0  0  # atno 6005 bound_to 5270
   11.3865   19.2242    7.8881 LP  0  0  0  0  0  0  0  0  0  0  0  0  # atno 6055 bound_to 637 
   10.1970   19.7849    8.8562 LP  0  0  0  0  0  0  0  0  0  0  0  0  # atno 6056 bound_to 637 
    2.0671   10.8319   10.3254 LP  0  0  0  0  0  0  0  0  0  0  0  0  # atno 6063 bound_to 1878
    0.6102   11.0986   11.0132 LP  0  0  0  0  0  0  0  0  0  0  0  0  # atno 6064 bound_to 1878
   -6.7376   17.1940   -0.9624 LP  0  0  0  0  0  0  0  0  0  0  0  0  # atno 6067 bound_to 957 
   -7.1923   15.9641    0.0109 LP  0  0  0  0  0  0  0  0  0  0  0  0  # atno 6068 bound_to 957 

>  <STRIFE_LigEff_Score>  (9) 
2.9229611111111113

$$$$
unknown|pharmsElabsTestPreDocking|sdf|19|dock4
     RDKit          3D

 19 20  0  0  0  0  0  0  0  0999 V2000
   14.5971    7.4075    2.7628 C   0  0  0  0  0  0  0  0  0  0  0  0
   13.3360    7.5667    1.9136 C   0  0  0  0  0  0  0  0  0  0  0  0
   13.4010    8.7882    1.0996 N   0  0  0  0  0  0  0  0  0  0  0  0
   11.9682    7.3978    2.6044 C   0  0  0  0  0  0  0  0  0  0  0  0
   10.6820    7.2815    1.7432 C   0  0  0  0  0  0  0  0  0  0  0  0
    9.6030    8.3164    2.0295 C   0  0  0  0  0  0  0  0  0  0  0  0
    9.3858    8.5000    3.5301 C   0  0  0  0  0  0  0  0  0  0  0  0
    8.2174    9.4140    3.7843 C   0  0  0  0  0  0  0  0  0  0  0  0
    7.7308   10.1000    2.8419 O   0  0  0  0  0  0  0  0  0  0  0  0
    7.6722    9.5127    5.1055 N   0  0  0  0  0  0  0  0  0  0  0  0
    6.5625   10.4002    5.4304 C   0  0  0  0  0  0  0  0  0  0  0  0
    5.3072    9.8948    4.8021 C   0  0  0  0  0  0  0  0  0  0  0  0
    4.0632    9.7847    5.3920 C   0  0  0  0  0  0  0  0  0  0  0  0
    3.2073    9.2404    4.5059 N   0  0  0  0  0  0  0  0  0  0  0  0
    3.8846    8.9947    3.3942 N   0  0  0  0  0  0  0  0  0  0  0  0
    3.2958    8.4232    2.1927 C   0  0  0  0  0  0  0  0  0  0  0  0
    5.1654    9.3796    3.5329 C   0  0  0  0  0  0  0  0  0  0  0  0
   10.6541    9.0768    4.1498 C   0  0  0  0  0  0  0  0  0  0  0  0
   11.8566    8.1527    3.9646 C   0  0  0  0  0  0  0  0  0  0  0  0
  1  2  1  0
  2  3  1  0
  2  4  1  0
  4  5  1  0
  5  6  1  0
  6  7  1  0
  7  8  1  0
  8  9  2  0
  8 10  1  0
 10 11  1  0
 11 12  1  0
 12 13  1  0
 13 14  2  0
 14 15  1  0
 15 16  1  0
 15 17  1  0
  7 18  1  0
 18 19  1  0
 19  4  1  0
 17 12  2  0
M  CHG  1   3   1
M  END
>  <EmbedRMS>  (10) 
0.19659211194601114

>  <Gold.Version>  (10) 
2020.3.0

>  <Gold.Id.Protein>  (10) 
unknown|1q8t_protein|pdb

>  <Gold.PLP.Fitness>  (10) 
60.0010

>  <Gold.PLP.PLP>  (10) 
-52.0880

>  <Gold.PLP.part.hbond>  (10) 
-2.0000

>  <Gold.PLP.part.metal>  (10) 
0.0000

>  <Gold.PLP.part.buried>  (10) 
-4.8123

>  <Gold.PLP.part.nonpolar>  (10) 
-44.8578

>  <Gold.PLP.part.repulsive>  (10) 
0.1358

>  <Gold.PLP.ligand.clash>  (10) 
0.0000

>  <Gold.PLP.ligand.torsion>  (10) 
0.7621

>  <Gold.PLP.Chemscore.Hbond>  (10) 
3.0000

>  <Gold.PLP.Chemscore.CHOScore>  (10) 
0.0000

>  <Gold.PLP.Chemscore.Metal>  (10) 
0.0000

>  <Gold.Chemscore.Hbonds>  (10) 
donor molecule, donor type, donor heavy atom, donor atom, acceptor molecule, acceptor atom, score
      L1  H     3    24       P1  2902  2.00
      P1  H  1888  1903       L1    14  1.00

>  <Gold.PLP.Chemscore.Internal.Correction>  (10) 
0.4373

>  <Gold.PLP.Constraint>  (10) 
-0.0000

>  <Gold.Protein.RotatedTorsions>  (10) 
[  681  677  676  673 ] final  132.09 input -179.99 | X-H torsion
[  702  698  697  694 ] final  168.41 input  179.99 | X-H torsion
[ 2577 2569 2568 2566 ] final  -12.46 input   -0.13 | X-H torsion
[ 2891 2887 2886 2883 ] final  148.38 input  179.98 | X-H torsion
[ 3175 3171 3170 3167 ] final  -20.55 input -179.99 | X-H torsion
[ 5278 5270 5269 5267 ] final   99.89 input    0.55 | X-H torsion
[  641  637  636  633 ] final  -97.45 input  179.99 | X-H torsion
[ 1886 1878 1877 1875 ] final  -33.19 input    1.60 | X-H torsion
[  965  957  956  954 ] final  106.96 input    0.45 | X-H torsion

>  <Gold.Protein.ActiveResidues>  (10) 
 LYS47   THR48   LEU49   GLY50   THR51   GLY52   SER53   PHE54   GLY55   ARG56  
 VAL57   MET58   LEU59   TYR69   ALA70   MET71   LYS72   ILE73   LEU74   GLU91  
 LEU95   VAL104  LYS105  MET118  VAL119  MET120  GLU121  TYR122  VAL123  PRO124 
 GLY125  GLY126  GLU127  MET128  PHE129  TYR164  ASP166  LEU167  LYS168  PRO169 
 GLU170  ASN171  LEU172  LEU173  ILE174  GLN181  VAL182  THR183  ASP184  PHE185 
 GLY186  PHE187  GLY200  THR201  ASN326  PHE327  TYR330  ARG18   ARG19   ASN20  
 ALA21   ILE22   HIS23  

>  <Gold.Protein.RotatedAtoms>  (10) 
   10.7273   18.9465    7.3087 H   0  0  0  0  0  0  0  0  0  0  0  0  # atno 641  bound_to 637 
   17.2523   13.5142    6.4682 H   0  0  0  0  0  0  0  0  0  0  0  0  # atno 681  bound_to 677 
   20.8576   11.6056   -1.7699 H   0  0  0  0  0  0  0  0  0  0  0  0  # atno 702  bound_to 698 
   -7.1758   16.3039    0.0211 H   0  0  0  0  0  0  0  0  0  0  0  0  # atno 965  bound_to 957 
    2.0196   10.8533   10.3311 H   0  0  0  0  0  0  0  0  0  0  0  0  # atno 1886 bound_to 1878
    9.9406    3.3362   -3.4035 H   0  0  0  0  0  0  0  0  0  0  0  0  # atno 2577 bound_to 2569
    7.7202    6.9270    1.1365 H   0  0  0  0  0  0  0  0  0  0  0  0  # atno 2891 bound_to 2887
   19.2876    2.8996   -0.9796 H   0  0  0  0  0  0  0  0  0  0  0  0  # atno 3175 bound_to 3171
   13.4527   10.2386    8.7473 H   0  0  0  0  0  0  0  0  0  0  0  0  # atno 5278 bound_to 5270
   15.9918   12.5521    6.3209 LP  0  0  0  0  0  0  0  0  0  0  0  0  # atno 5914 bound_to 677 
   16.0239   13.7214    7.4603 LP  0  0  0  0  0  0  0  0  0  0  0  0  # atno 5915 bound_to 677 
   19.3335   11.8514   -1.3776 LP  0  0  0  0  0  0  0  0  0  0  0  0  # atno 5920 bound_to 698 
   20.4688   11.6279   -0.2253 LP  0  0  0  0  0  0  0  0  0  0  0  0  # atno 5921 bound_to 698 
   11.0877    2.4808   -2.7051 LP  0  0  0  0  0  0  0  0  0  0  0  0  # atno 5950 bound_to 2569
    9.5162    2.0707   -2.5355 LP  0  0  0  0  0  0  0  0  0  0  0  0  # atno 5951 bound_to 2569
    8.3163    5.7864    0.1982 LP  0  0  0  0  0  0  0  0  0  0  0  0  # atno 5982 bound_to 2887
    7.2334    5.4282    1.3668 LP  0  0  0  0  0  0  0  0  0  0  0  0  # atno 5983 bound_to 2887
   18.5929    2.5901    0.4194 LP  0  0  0  0  0  0  0  0  0  0  0  0  # atno 6000 bound_to 3171
   17.9969    1.9671   -0.9674 LP  0  0  0  0  0  0  0  0  0  0  0  0  # atno 6001 bound_to 3171
   12.7578    9.8724   10.1329 LP  0  0  0  0  0  0  0  0  0  0  0  0  # atno 6004 bound_to 5270
   14.3846    9.9222    9.9996 LP  0  0  0  0  0  0  0  0  0  0  0  0  # atno 6005 bound_to 5270
   11.1140   19.6465    8.6854 LP  0  0  0  0  0  0  0  0  0  0  0  0  # atno 6055 bound_to 637 
    9.5528   19.5009    8.2295 LP  0  0  0  0  0  0  0  0  0  0  0  0  # atno 6056 bound_to 637 
    0.6064   11.1127   11.0173 LP  0  0  0  0  0  0  0  0  0  0  0  0  # atno 6063 bound_to 1878
    1.6529   12.3407   10.7653 LP  0  0  0  0  0  0  0  0  0  0  0  0  # atno 6064 bound_to 1878
   -6.6450   15.4345   -1.2026 LP  0  0  0  0  0  0  0  0  0  0  0  0  # atno 6067 bound_to 957 
   -6.6056   17.0662   -1.2551 LP  0  0  0  0  0  0  0  0  0  0  0  0  # atno 6068 bound_to 957 

>  <STRIFE_LigEff_Score>  (10) 
3.1579473684210524

$$$$
unknown|pharmsElabsTestPreDocking|sdf|1|dock5
     RDKit          3D

 18 19  0  0  0  0  0  0  0  0999 V2000
   14.8062    7.5480    3.5043 C   0  0  0  0  0  0  0  0  0  0  0  0
   13.8904    8.0447    2.3754 C   0  0  0  0  0  0  0  0  0  0  0  0
   14.0140    7.1699    1.2039 N   0  0  0  0  0  0  0  0  0  0  0  0
   12.3938    8.3119    2.7630 C   0  0  0  0  0  0  0  0  0  0  0  0
   11.3701    7.2997    2.2162 C   0  0  0  0  0  0  0  0  0  0  0  0
    9.9753    7.8544    2.0051 C   0  0  0  0  0  0  0  0  0  0  0  0
    9.5476    8.8009    3.1215 C   0  0  0  0  0  0  0  0  0  0  0  0
    8.1178    9.2169    2.8948 C   0  0  0  0  0  0  0  0  0  0  0  0
    7.8248    9.8570    1.8493 O   0  0  0  0  0  0  0  0  0  0  0  0
    7.1252    8.9046    3.8838 N   0  0  0  0  0  0  0  0  0  0  0  0
    5.7159    9.2042    3.8273 C   0  0  0  0  0  0  0  0  0  0  0  0
    5.0761    9.6293    5.0015 C   0  0  0  0  0  0  0  0  0  0  0  0
    3.7167    9.9362    4.9942 C   0  0  0  0  0  0  0  0  0  0  0  0
    2.9963    9.8171    3.8078 C   0  0  0  0  0  0  0  0  0  0  0  0
    3.6179    9.4058    2.6752 N   0  0  0  0  0  0  0  0  0  0  0  0
    4.9391    9.1000    2.6519 C   0  0  0  0  0  0  0  0  0  0  0  0
   10.4459   10.0426    3.1577 C   0  0  0  0  0  0  0  0  0  0  0  0
   11.9573    9.7611    3.0627 C   0  0  0  0  0  0  0  0  0  0  0  0
  1  2  1  0
  2  3  1  0
  2  4  1  0
  4  5  1  0
  5  6  1  0
  6  7  1  0
  7  8  1  0
  8  9  2  0
  8 10  1  0
 10 11  1  0
 11 12  2  0
 12 13  1  0
 13 14  2  0
 14 15  1  0
 15 16  2  0
  7 17  1  0
 17 18  1  0
 18  4  1  0
 16 11  1  0
M  CHG  1   3   1
M  END
>  <EmbedRMS>  (11) 
0.16496192233382964

>  <Gold.Version>  (11) 
2020.3.0

>  <Gold.Id.Protein>  (11) 
unknown|1q8t_protein|pdb

>  <Gold.PLP.Fitness>  (11) 
52.2414

>  <Gold.PLP.PLP>  (11) 
-42.8367

>  <Gold.PLP.part.hbond>  (11) 
-2.0000

>  <Gold.PLP.part.metal>  (11) 
0.0000

>  <Gold.PLP.part.buried>  (11) 
-2.7881

>  <Gold.PLP.part.nonpolar>  (11) 
-38.2002

>  <Gold.PLP.part.repulsive>  (11) 
0.1352

>  <Gold.PLP.ligand.clash>  (11) 
0.0000

>  <Gold.PLP.ligand.torsion>  (11) 
1.5319

>  <Gold.PLP.Chemscore.Hbond>  (11) 
3.0000

>  <Gold.PLP.Chemscore.CHOScore>  (11) 
0.9674

>  <Gold.PLP.Chemscore.Metal>  (11) 
0.0000

>  <Gold.Chemscore.Hbonds>  (11) 
donor molecule, donor type, donor heavy atom, donor atom, acceptor molecule, acceptor atom, score
      L1  H     3    24       P1  2902  2.00
      L1  H     3    25       P1  2691  1.00
      L1  C    14    35       P1  1855  0.97

>  <Gold.PLP.Chemscore.Internal.Correction>  (11) 
0.5662

>  <Gold.PLP.Constraint>  (11) 
-0.0000

>  <Gold.Protein.RotatedTorsions>  (11) 
[  681  677  676  673 ] final  147.08 input -179.99 | X-H torsion
[  702  698  697  694 ] final  -43.49 input  179.99 | X-H torsion
[ 2577 2569 2568 2566 ] final  -40.35 input   -0.13 | X-H torsion
[ 2891 2887 2886 2883 ] final  152.59 input  179.98 | X-H torsion
[ 3175 3171 3170 3167 ] final  -64.92 input -179.99 | X-H torsion
[ 5278 5270 5269 5267 ] final  -62.96 input    0.55 | X-H torsion
[  641  637  636  633 ] final -176.87 input  179.99 | X-H torsion
[ 1886 1878 1877 1875 ] final  100.12 input    1.60 | X-H torsion
[  965  957  956  954 ] final  -64.13 input    0.45 | X-H torsion

>  <Gold.Protein.ActiveResidues>  (11) 
 LYS47   THR48   LEU49   GLY50   THR51   GLY52   SER53   PHE54   GLY55   ARG56  
 VAL57   MET58   LEU59   TYR69   ALA70   MET71   LYS72   ILE73   LEU74   GLU91  
 LEU95   VAL104  LYS105  MET118  VAL119  MET120  GLU121  TYR122  VAL123  PRO124 
 GLY125  GLY126  GLU127  MET128  PHE129  TYR164  ASP166  LEU167  LYS168  PRO169 
 GLU170  ASN171  LEU172  LEU173  ILE174  GLN181  VAL182  THR183  ASP184  PHE185 
 GLY186  PHE187  GLY200  THR201  ASN326  PHE327  TYR330  ARG18   ARG19   ASN20  
 ALA21   ILE22   HIS23  

>  <Gold.Protein.RotatedAtoms>  (11) 
   11.3577   19.3526    8.1729 H   0  0  0  0  0  0  0  0  0  0  0  0  # atno 641  bound_to 637 
   17.2289   13.6720    6.6391 H   0  0  0  0  0  0  0  0  0  0  0  0  # atno 681  bound_to 677 
   20.0315   11.7230   -0.2618 H   0  0  0  0  0  0  0  0  0  0  0  0  # atno 702  bound_to 698 
   -6.4430   16.0954   -1.5934 H   0  0  0  0  0  0  0  0  0  0  0  0  # atno 965  bound_to 957 
    1.4468   12.3109   10.8322 H   0  0  0  0  0  0  0  0  0  0  0  0  # atno 1886 bound_to 1878
   10.3712    3.3600   -3.3885 H   0  0  0  0  0  0  0  0  0  0  0  0  # atno 2577 bound_to 2569
    7.6766    6.9102    1.1830 H   0  0  0  0  0  0  0  0  0  0  0  0  # atno 2891 bound_to 2887
   19.3326    3.0200   -0.3154 H   0  0  0  0  0  0  0  0  0  0  0  0  # atno 3175 bound_to 3171
   13.3411    9.8140   10.4641 H   0  0  0  0  0  0  0  0  0  0  0  0  # atno 5278 bound_to 5270
   16.1979   12.5456    6.1868 LP  0  0  0  0  0  0  0  0  0  0  0  0  # atno 5914 bound_to 677 
   15.8423   13.5618    7.4146 LP  0  0  0  0  0  0  0  0  0  0  0  0  # atno 5915 bound_to 677 
   21.1184   11.5356   -1.4111 LP  0  0  0  0  0  0  0  0  0  0  0  0  # atno 5920 bound_to 698 
   19.5529   11.8202   -1.7780 LP  0  0  0  0  0  0  0  0  0  0  0  0  # atno 5921 bound_to 698 
   10.8710    2.1455   -2.4882 LP  0  0  0  0  0  0  0  0  0  0  0  0  # atno 5950 bound_to 2569
    9.2795    2.3809   -2.7682 LP  0  0  0  0  0  0  0  0  0  0  0  0  # atno 5951 bound_to 2569
    8.3360    5.8526    0.1913 LP  0  0  0  0  0  0  0  0  0  0  0  0  # atno 5982 bound_to 2887
    7.2597    5.3797    1.3247 LP  0  0  0  0  0  0  0  0  0  0  0  0  # atno 5983 bound_to 2887
   18.0739    2.1727    0.1677 LP  0  0  0  0  0  0  0  0  0  0  0  0  # atno 6000 bound_to 3171
   18.4686    2.2578   -1.4146 LP  0  0  0  0  0  0  0  0  0  0  0  0  # atno 6001 bound_to 3171
   14.4279   10.0872    9.3323 LP  0  0  0  0  0  0  0  0  0  0  0  0  # atno 6004 bound_to 5270
   12.8318   10.1541    8.9938 LP  0  0  0  0  0  0  0  0  0  0  0  0  # atno 6005 bound_to 5270
    9.9129   19.7330    8.7233 LP  0  0  0  0  0  0  0  0  0  0  0  0  # atno 6055 bound_to 637 
   10.0901   18.9869    7.2815 LP  0  0  0  0  0  0  0  0  0  0  0  0  # atno 6056 bound_to 637 
    2.1798   10.9997   10.3043 LP  0  0  0  0  0  0  0  0  0  0  0  0  # atno 6063 bound_to 1878
    0.6824   10.9192   10.9507 LP  0  0  0  0  0  0  0  0  0  0  0  0  # atno 6064 bound_to 1878
   -6.9394   17.1612   -0.5198 LP  0  0  0  0  0  0  0  0  0  0  0  0  # atno 6067 bound_to 957 
   -7.0830   15.5592   -0.2377 LP  0  0  0  0  0  0  0  0  0  0  0  0  # atno 6068 bound_to 957 

>  <STRIFE_LigEff_Score>  (11) 
2.9023

$$$$
unknown|pharmsElabsTestPreDocking|sdf|20|dock1
     RDKit          3D

 17 17  0  0  0  0  0  0  0  0999 V2000
    3.6725    8.5841    2.8025 C   0  0  0  0  0  0  0  0  0  0  0  0
    4.6704    9.4715    2.9025 C   0  0  0  0  0  0  0  0  0  0  0  0
    4.8860   10.4025    1.7246 C   0  0  0  0  0  0  0  0  0  0  0  0
    5.5415    9.5662    4.1306 C   0  0  0  0  0  0  0  0  0  0  0  0
    4.9230    9.8013    5.3111 C   0  0  0  0  0  0  0  0  0  0  0  0
    6.9928    9.3618    4.0457 N   0  0  0  0  0  0  0  0  0  0  0  0
    7.7282    9.0425    2.8409 C   0  0  0  0  0  0  0  0  0  0  0  0
    7.1260    8.8067    1.7722 O   0  0  0  0  0  0  0  0  0  0  0  0
    9.2187    8.9322    2.7178 C   0  0  0  0  0  0  0  0  0  0  0  0
    9.6733    7.6394    2.0574 C   0  0  0  0  0  0  0  0  0  0  0  0
   11.1758    7.3992    2.1285 C   0  0  0  0  0  0  0  0  0  0  0  0
   12.0032    8.6940    2.2229 C   0  0  0  0  0  0  0  0  0  0  0  0
   13.5243    8.3314    2.1755 C   0  0  0  0  0  0  0  0  0  0  0  0
   13.9941    7.8000    3.5419 C   0  0  0  0  0  0  0  0  0  0  0  0
   13.8331    7.3375    1.1385 N   0  0  0  0  0  0  0  0  0  0  0  0
   11.6047    9.4564    3.5134 C   0  0  0  0  0  0  0  0  0  0  0  0
   10.0873    9.6535    3.7280 C   0  0  0  0  0  0  0  0  0  0  0  0
  1  2  2  0
  2  3  1  0
  2  4  1  0
  4  5  2  0
  4  6  1  0
  6  7  1  0
  7  8  2  0
  7  9  1  0
  9 10  1  0
 10 11  1  0
 11 12  1  0
 12 13  1  0
 13 14  1  0
 13 15  1  0
 12 16  1  0
 16 17  1  0
 17  9  1  0
M  CHG  1  15   1
M  END
>  <EmbedRMS>  (12) 
0.18263911859618057

>  <Gold.Version>  (12) 
2020.3.0

>  <Gold.Id.Protein>  (12) 
unknown|1q8t_protein|pdb

>  <Gold.PLP.Fitness>  (12) 
51.0072

>  <Gold.PLP.PLP>  (12) 
-41.8466

>  <Gold.PLP.part.hbond>  (12) 
-3.0000

>  <Gold.PLP.part.metal>  (12) 
0.0000

>  <Gold.PLP.part.buried>  (12) 
-1.8290

>  <Gold.PLP.part.nonpolar>  (12) 
-36.0053

>  <Gold.PLP.part.repulsive>  (12) 
0.0346

>  <Gold.PLP.ligand.clash>  (12) 
0.0000

>  <Gold.PLP.ligand.torsion>  (12) 
1.7639

>  <Gold.PLP.Chemscore.Hbond>  (12) 
3.9760

>  <Gold.PLP.Chemscore.CHOScore>  (12) 
0.0000

>  <Gold.PLP.Chemscore.Metal>  (12) 
0.0000

>  <Gold.Chemscore.Hbonds>  (12) 
donor molecule, donor type, donor heavy atom, donor atom, acceptor molecule, acceptor atom, score
      L1  H    15    36       P1  2691  1.00
      L1  H    15    37       P1  2902  2.00
      P1  H  2887  2891       L1     8  0.98

>  <Gold.PLP.Chemscore.Internal.Correction>  (12) 
0.7604

>  <Gold.PLP.Constraint>  (12) 
-0.0000

>  <Gold.Protein.RotatedTorsions>  (12) 
[  681  677  676  673 ] final  -74.56 input -179.99 | X-H torsion
[  702  698  697  694 ] final  178.47 input  179.99 | X-H torsion
[ 2577 2569 2568 2566 ] final  154.55 input   -0.13 | X-H torsion
[ 2891 2887 2886 2883 ] final  147.48 input  179.98 | X-H torsion
[ 3175 3171 3170 3167 ] final -167.60 input -179.99 | X-H torsion
[ 5278 5270 5269 5267 ] final -168.94 input    0.55 | X-H torsion
[  641  637  636  633 ] final   70.38 input  179.99 | X-H torsion
[ 1886 1878 1877 1875 ] final  114.27 input    1.60 | X-H torsion
[  965  957  956  954 ] final   36.94 input    0.45 | X-H torsion

>  <Gold.Protein.ActiveResidues>  (12) 
 LYS47   THR48   LEU49   GLY50   THR51   GLY52   SER53   PHE54   GLY55   ARG56  
 VAL57   MET58   LEU59   TYR69   ALA70   MET71   LYS72   ILE73   LEU74   GLU91  
 LEU95   VAL104  LYS105  MET118  VAL119  MET120  GLU121  TYR122  VAL123  PRO124 
 GLY125  GLY126  GLU127  MET128  PHE129  TYR164  ASP166  LEU167  LYS168  PRO169 
 GLU170  ASN171  LEU172  LEU173  ILE174  GLN181  VAL182  THR183  ASP184  PHE185 
 GLY186  PHE187  GLY200  THR201  ASN326  PHE327  TYR330  ARG18   ARG19   ASN20  
 ALA21   ILE22   HIS23  

>  <Gold.Protein.RotatedAtoms>  (12) 
   10.0354   19.7231    8.7538 H   0  0  0  0  0  0  0  0  0  0  0  0  # atno 641  bound_to 637 
   15.7078   13.3469    7.2592 H   0  0  0  0  0  0  0  0  0  0  0  0  # atno 681  bound_to 677 
   20.9568   11.5857   -1.6497 H   0  0  0  0  0  0  0  0  0  0  0  0  # atno 702  bound_to 698 
   -6.9523   15.4400   -0.4879 H   0  0  0  0  0  0  0  0  0  0  0  0  # atno 965  bound_to 957 
    1.2456   12.2733   10.9145 H   0  0  0  0  0  0  0  0  0  0  0  0  # atno 1886 bound_to 1878
   10.2155    1.9017   -2.3873 H   0  0  0  0  0  0  0  0  0  0  0  0  # atno 2577 bound_to 2569
    7.7296    6.9300    1.1263 H   0  0  0  0  0  0  0  0  0  0  0  0  # atno 2891 bound_to 2887
   18.2815    2.3203    0.2866 H   0  0  0  0  0  0  0  0  0  0  0  0  # atno 3175 bound_to 3171
   14.4242   10.0485    9.5588 H   0  0  0  0  0  0  0  0  0  0  0  0  # atno 5278 bound_to 5270
   17.1701   13.8455    6.8733 LP  0  0  0  0  0  0  0  0  0  0  0  0  # atno 5914 bound_to 677 
   16.4711   12.6040    6.0754 LP  0  0  0  0  0  0  0  0  0  0  0  0  # atno 5915 bound_to 677 
   19.3894   11.8445   -1.5328 LP  0  0  0  0  0  0  0  0  0  0  0  0  # atno 5920 bound_to 698 
   20.3086   11.6557   -0.1964 LP  0  0  0  0  0  0  0  0  0  0  0  0  # atno 5921 bound_to 698 
    9.3429    2.9748   -3.1760 LP  0  0  0  0  0  0  0  0  0  0  0  0  # atno 5950 bound_to 2569
   10.9715    3.0871   -3.1346 LP  0  0  0  0  0  0  0  0  0  0  0  0  # atno 5951 bound_to 2569
    8.3117    5.7725    0.2002 LP  0  0  0  0  0  0  0  0  0  0  0  0  # atno 5982 bound_to 2887
    7.2281    5.4390    1.3754 LP  0  0  0  0  0  0  0  0  0  0  0  0  # atno 5983 bound_to 2887
   18.2551    2.1158   -1.2924 LP  0  0  0  0  0  0  0  0  0  0  0  0  # atno 6000 bound_to 3171
   19.3935    3.0511   -0.5881 LP  0  0  0  0  0  0  0  0  0  0  0  0  # atno 6001 bound_to 3171
   13.0060   10.1918    8.8482 LP  0  0  0  0  0  0  0  0  0  0  0  0  # atno 6004 bound_to 5270
   13.1141    9.8027   10.4304 LP  0  0  0  0  0  0  0  0  0  0  0  0  # atno 6005 bound_to 5270
    9.9844   19.0165    7.3280 LP  0  0  0  0  0  0  0  0  0  0  0  0  # atno 6055 bound_to 637 
   11.4111   19.3131    8.0650 LP  0  0  0  0  0  0  0  0  0  0  0  0  # atno 6056 bound_to 637 
    2.2663   11.2153   10.3029 LP  0  0  0  0  0  0  0  0  0  0  0  0  # atno 6063 bound_to 1878
    0.8078   10.7432   10.8655 LP  0  0  0  0  0  0  0  0  0  0  0  0  # atno 6064 bound_to 1878
   -6.4323   16.3963   -1.6498 LP  0  0  0  0  0  0  0  0  0  0  0  0  # atno 6067 bound_to 957 
   -7.0536   17.0143   -0.2719 LP  0  0  0  0  0  0  0  0  0  0  0  0  # atno 6068 bound_to 957 

>  <STRIFE_LigEff_Score>  (12) 
3.0004235294117647

$$$$
unknown|pharmsElabsTestPreDocking|sdf|21|dock1
     RDKit          3D

 16 16  0  0  0  0  0  0  0  0999 V2000
   14.6193    9.1229    1.4833 C   0  0  0  0  0  0  0  0  0  0  0  0
   13.6830    7.9449    1.6930 C   0  0  0  0  0  0  0  0  0  0  0  0
   13.9724    6.7783    0.8659 N   0  0  0  0  0  0  0  0  0  0  0  0
   12.1835    8.2741    1.9689 C   0  0  0  0  0  0  0  0  0  0  0  0
   11.3201    7.1866    2.6274 C   0  0  0  0  0  0  0  0  0  0  0  0
    9.8178    7.5050    2.4829 C   0  0  0  0  0  0  0  0  0  0  0  0
    9.5003    8.9924    2.3098 C   0  0  0  0  0  0  0  0  0  0  0  0
    8.0395    9.3297    2.3487 C   0  0  0  0  0  0  0  0  0  0  0  0
    7.4667    9.3569    1.2315 O   0  0  0  0  0  0  0  0  0  0  0  0
    7.2885    9.6568    3.5293 N   0  0  0  0  0  0  0  0  0  0  0  0
    5.8903   10.1017    3.4316 C   0  0  0  0  0  0  0  0  0  0  0  0
    5.0164    9.4951    4.5381 C   0  0  0  0  0  0  0  0  0  0  0  0
    3.5102    9.7471    4.3471 C   0  0  0  0  0  0  0  0  0  0  0  0
    3.0303    9.3118    3.0278 N   0  0  0  0  0  0  0  0  0  0  0  0
   10.4876   10.0504    2.7793 C   0  0  0  0  0  0  0  0  0  0  0  0
   11.9660    9.6166    2.6958 C   0  0  0  0  0  0  0  0  0  0  0  0
  1  2  1  0
  2  3  1  0
  2  4  1  0
  4  5  1  0
  5  6  1  0
  6  7  1  0
  7  8  1  0
  8  9  2  0
  8 10  1  0
 10 11  1  0
 11 12  1  0
 12 13  1  0
 13 14  1  0
  7 15  1  0
 15 16  1  0
 16  4  1  0
M  CHG  2   3   1  14   1
M  END
>  <EmbedRMS>  (13) 
0.26685653268904913

>  <Gold.Version>  (13) 
2020.3.0

>  <Gold.Id.Protein>  (13) 
unknown|1q8t_protein|pdb

>  <Gold.PLP.Fitness>  (13) 
45.5129

>  <Gold.PLP.PLP>  (13) 
-34.2546

>  <Gold.PLP.part.hbond>  (13) 
-3.1563

>  <Gold.PLP.part.metal>  (13) 
0.0000

>  <Gold.PLP.part.buried>  (13) 
-3.1086

>  <Gold.PLP.part.nonpolar>  (13) 
-28.8615

>  <Gold.PLP.part.repulsive>  (13) 
0.2007

>  <Gold.PLP.ligand.clash>  (13) 
0.0000

>  <Gold.PLP.ligand.torsion>  (13) 
0.8423

>  <Gold.PLP.Chemscore.Hbond>  (13) 
3.9587

>  <Gold.PLP.Chemscore.CHOScore>  (13) 
0.0000

>  <Gold.PLP.Chemscore.Metal>  (13) 
0.0000

>  <Gold.Chemscore.Hbonds>  (13) 
donor molecule, donor type, donor heavy atom, donor atom, acceptor molecule, acceptor atom, score
      L1  H     3    22       P1  2691  0.97
      L1  H     3    23       P1  2902  2.00
      L1  H    14    39       P1  1855  0.99

>  <Gold.PLP.Chemscore.Internal.Correction>  (13) 
1.0667

>  <Gold.PLP.Constraint>  (13) 
-0.0000

>  <Gold.Protein.RotatedTorsions>  (13) 
[  681  677  676  673 ] final   41.21 input -179.99 | X-H torsion
[  702  698  697  694 ] final  137.74 input  179.99 | X-H torsion
[ 2577 2569 2568 2566 ] final -111.29 input   -0.13 | X-H torsion
[ 2891 2887 2886 2883 ] final -123.94 input  179.98 | X-H torsion
[ 3175 3171 3170 3167 ] final  -70.89 input -179.99 | X-H torsion
[ 5278 5270 5269 5267 ] final  -32.84 input    0.55 | X-H torsion
[  641  637  636  633 ] final  -70.92 input  179.99 | X-H torsion
[ 1886 1878 1877 1875 ] final   -9.52 input    1.60 | X-H torsion
[  965  957  956  954 ] final -116.33 input    0.45 | X-H torsion

>  <Gold.Protein.ActiveResidues>  (13) 
 LYS47   THR48   LEU49   GLY50   THR51   GLY52   SER53   PHE54   GLY55   ARG56  
 VAL57   MET58   LEU59   TYR69   ALA70   MET71   LYS72   ILE73   LEU74   GLU91  
 LEU95   VAL104  LYS105  MET118  VAL119  MET120  GLU121  TYR122  VAL123  PRO124 
 GLY125  GLY126  GLU127  MET128  PHE129  TYR164  ASP166  LEU167  LYS168  PRO169 
 GLU170  ASN171  LEU172  LEU173  ILE174  GLN181  VAL182  THR183  ASP184  PHE185 
 GLY186  PHE187  GLY200  THR201  ASN326  PHE327  TYR330  ARG18   ARG19   ASN20  
 ALA21   ILE22   HIS23  

>  <Gold.Protein.RotatedAtoms>  (13) 
   10.3179   18.9531    7.2768 H   0  0  0  0  0  0  0  0  0  0  0  0  # atno 641  bound_to 637 
   16.4023   12.6289    6.1170 H   0  0  0  0  0  0  0  0  0  0  0  0  # atno 681  bound_to 677 
   20.4524   11.6820   -2.0037 H   0  0  0  0  0  0  0  0  0  0  0  0  # atno 702  bound_to 698 
   -6.5210   16.8565   -1.4059 H   0  0  0  0  0  0  0  0  0  0  0  0  # atno 965  bound_to 957 
    2.2006   11.1719   10.3056 H   0  0  0  0  0  0  0  0  0  0  0  0  # atno 1886 bound_to 1878
   11.0659    2.7499   -2.9139 H   0  0  0  0  0  0  0  0  0  0  0  0  # atno 2577 bound_to 2569
    7.1532    5.9025    1.5478 H   0  0  0  0  0  0  0  0  0  0  0  0  # atno 2891 bound_to 2887
   19.3064    3.0122   -0.2262 H   0  0  0  0  0  0  0  0  0  0  0  0  # atno 3175 bound_to 3171
   12.9271    9.8609   10.2560 H   0  0  0  0  0  0  0  0  0  0  0  0  # atno 5278 bound_to 5270
   15.7083   13.3927    7.3299 LP  0  0  0  0  0  0  0  0  0  0  0  0  # atno 5914 bound_to 677 
   17.2020   13.8126    6.8208 LP  0  0  0  0  0  0  0  0  0  0  0  0  # atno 5915 bound_to 677 
   19.3356   11.8414   -0.8790 LP  0  0  0  0  0  0  0  0  0  0  0  0  # atno 5920 bound_to 698 
   20.8930   11.5576   -0.4779 LP  0  0  0  0  0  0  0  0  0  0  0  0  # atno 5921 bound_to 698 
    9.8027    1.9214   -2.4108 LP  0  0  0  0  0  0  0  0  0  0  0  0  # atno 5950 bound_to 2569
    9.6163    3.2475   -3.3453 LP  0  0  0  0  0  0  0  0  0  0  0  0  # atno 5951 bound_to 2569
    8.0699    6.9396    0.7600 LP  0  0  0  0  0  0  0  0  0  0  0  0  # atno 5982 bound_to 2887
    8.0766    5.3533    0.3721 LP  0  0  0  0  0  0  0  0  0  0  0  0  # atno 5983 bound_to 2887
   18.0234    2.1262    0.0974 LP  0  0  0  0  0  0  0  0  0  0  0  0  # atno 6000 bound_to 3171
   18.5466    2.3125   -1.4382 LP  0  0  0  0  0  0  0  0  0  0  0  0  # atno 6001 bound_to 3171
   14.4514    9.9703    9.8076 LP  0  0  0  0  0  0  0  0  0  0  0  0  # atno 6004 bound_to 5270
   13.2439   10.2216    8.7374 LP  0  0  0  0  0  0  0  0  0  0  0  0  # atno 6005 bound_to 5270
   11.3528   19.4720    8.3698 LP  0  0  0  0  0  0  0  0  0  0  0  0  # atno 6055 bound_to 637 
    9.7452   19.6685    8.5788 LP  0  0  0  0  0  0  0  0  0  0  0  0  # atno 6056 bound_to 637 
    0.7702   10.7865   10.8894 LP  0  0  0  0  0  0  0  0  0  0  0  0  # atno 6063 bound_to 1878
    1.2986   12.3314   10.9199 LP  0  0  0  0  0  0  0  0  0  0  0  0  # atno 6064 bound_to 1878
   -7.1872   16.5753    0.0126 LP  0  0  0  0  0  0  0  0  0  0  0  0  # atno 6067 bound_to 957 
   -6.7529   15.3435   -0.9675 LP  0  0  0  0  0  0  0  0  0  0  0  0  # atno 6068 bound_to 957 

>  <STRIFE_LigEff_Score>  (13) 
2.84455625

$$$$
unknown|pharmsElabsTestPreDocking|sdf|22|dock10
     RDKit          3D

 17 17  0  0  0  0  0  0  0  0999 V2000
   14.7275    9.0797    1.4723 C   0  0  0  0  0  0  0  0  0  0  0  0
   13.8036    7.8940    1.6930 C   0  0  0  0  0  0  0  0  0  0  0  0
   14.0496    6.7551    0.8149 N   0  0  0  0  0  0  0  0  0  0  0  0
   12.3200    8.2111    2.0583 C   0  0  0  0  0  0  0  0  0  0  0  0
   11.4841    7.0912    2.6976 C   0  0  0  0  0  0  0  0  0  0  0  0
    9.9775    7.4198    2.6441 C   0  0  0  0  0  0  0  0  0  0  0  0
    9.6577    8.9158    2.5739 C   0  0  0  0  0  0  0  0  0  0  0  0
    8.2006    9.2593    2.6988 C   0  0  0  0  0  0  0  0  0  0  0  0
    7.9418   10.2378    3.4420 O   0  0  0  0  0  0  0  0  0  0  0  0
    7.1102    8.5641    2.0790 N   0  0  0  0  0  0  0  0  0  0  0  0
    5.7981    8.9632    2.4103 N   0  0  0  0  0  0  0  0  0  0  0  0
    5.4113    9.1712    3.6303 C   0  0  0  0  0  0  0  0  0  0  0  0
    4.0632    9.5865    3.9199 N   0  0  0  0  0  0  0  0  0  0  0  0
    3.6133    9.8246    5.2897 C   0  0  0  0  0  0  0  0  0  0  0  0
    3.1512    9.7655    2.8668 N   0  0  0  0  0  0  0  0  0  0  0  0
   10.6723    9.9439    3.0491 C   0  0  0  0  0  0  0  0  0  0  0  0
   12.1437    9.5133    2.8657 C   0  0  0  0  0  0  0  0  0  0  0  0
  1  2  1  0
  2  3  1  0
  2  4  1  0
  4  5  1  0
  5  6  1  0
  6  7  1  0
  7  8  1  0
  8  9  2  0
  8 10  1  0
 10 11  1  0
 11 12  2  0
 12 13  1  0
 13 14  1  0
 13 15  1  0
  7 16  1  0
 16 17  1  0
 17  4  1  0
M  CHG  1   3   1
M  END
>  <EmbedRMS>  (14) 
0.2570984896337683

>  <Gold.Version>  (14) 
2020.3.0

>  <Gold.Id.Protein>  (14) 
unknown|1q8t_protein|pdb

>  <Gold.PLP.Fitness>  (14) 
46.1734

>  <Gold.PLP.PLP>  (14) 
-35.9757

>  <Gold.PLP.part.hbond>  (14) 
-3.9136

>  <Gold.PLP.part.metal>  (14) 
0.0000

>  <Gold.PLP.part.buried>  (14) 
-3.1553

>  <Gold.PLP.part.nonpolar>  (14) 
-30.0198

>  <Gold.PLP.part.repulsive>  (14) 
0.0982

>  <Gold.PLP.ligand.clash>  (14) 
0.0000

>  <Gold.PLP.ligand.torsion>  (14) 
0.8657

>  <Gold.PLP.Chemscore.Hbond>  (14) 
3.6440

>  <Gold.PLP.Chemscore.CHOScore>  (14) 
0.0000

>  <Gold.PLP.Chemscore.Metal>  (14) 
0.0000

>  <Gold.Chemscore.Hbonds>  (14) 
donor molecule, donor type, donor heavy atom, donor atom, acceptor molecule, acceptor atom, score
      L1  H     3    22       P1  2902  2.00
      L1  H     3    23       P1  2691  0.99
      L1  H    10    31       P1  2887  0.60
      L1  H    15    36       P1  1855  0.05

>  <Gold.PLP.Chemscore.Internal.Correction>  (14) 
0.9970

>  <Gold.PLP.Constraint>  (14) 
-0.0000

>  <Gold.Protein.RotatedTorsions>  (14) 
[  681  677  676  673 ] final -112.35 input -179.99 | X-H torsion
[  702  698  697  694 ] final -123.07 input  179.99 | X-H torsion
[ 2577 2569 2568 2566 ] final -129.66 input   -0.13 | X-H torsion
[ 2891 2887 2886 2883 ] final  -58.62 input  179.98 | X-H torsion
[ 3175 3171 3170 3167 ] final  153.56 input -179.99 | X-H torsion
[ 5278 5270 5269 5267 ] final  -68.73 input    0.55 | X-H torsion
[  641  637  636  633 ] final   60.12 input  179.99 | X-H torsion
[ 1886 1878 1877 1875 ] final   57.56 input    1.60 | X-H torsion
[  965  957  956  954 ] final  142.44 input    0.45 | X-H torsion

>  <Gold.Protein.ActiveResidues>  (14) 
 LYS47   THR48   LEU49   GLY50   THR51   GLY52   SER53   PHE54   GLY55   ARG56  
 VAL57   MET58   LEU59   TYR69   ALA70   MET71   LYS72   ILE73   LEU74   GLU91  
 LEU95   VAL104  LYS105  MET118  VAL119  MET120  GLU121  TYR122  VAL123  PRO124 
 GLY125  GLY126  GLU127  MET128  PHE129  TYR164  ASP166  LEU167  LYS168  PRO169 
 GLU170  ASN171  LEU172  LEU173  ILE174  GLN181  VAL182  THR183  ASP184  PHE185 
 GLY186  PHE187  GLY200  THR201  ASN326  PHE327  TYR330  ARG18   ARG19   ASN20  
 ALA21   ILE22   HIS23  

>  <Gold.Protein.RotatedAtoms>  (14) 
    9.9030   19.6881    8.6708 H   0  0  0  0  0  0  0  0  0  0  0  0  # atno 641  bound_to 637 
   16.0947   13.7489    7.4180 H   0  0  0  0  0  0  0  0  0  0  0  0  # atno 681  bound_to 677 
   21.0414   11.5539   -0.7790 H   0  0  0  0  0  0  0  0  0  0  0  0  # atno 702  bound_to 698 
   -7.0944   16.8167   -0.1469 H   0  0  0  0  0  0  0  0  0  0  0  0  # atno 965  bound_to 957 
    1.9982   12.1081   10.5545 H   0  0  0  0  0  0  0  0  0  0  0  0  # atno 1886 bound_to 1878
   11.0529    2.5149   -2.7517 H   0  0  0  0  0  0  0  0  0  0  0  0  # atno 2577 bound_to 2569
    7.5029    5.2058    0.9758 H   0  0  0  0  0  0  0  0  0  0  0  0  # atno 2891 bound_to 2887
   17.9701    2.0346   -0.1332 H   0  0  0  0  0  0  0  0  0  0  0  0  # atno 3175 bound_to 3171
   13.4300    9.8113   10.4784 H   0  0  0  0  0  0  0  0  0  0  0  0  # atno 5278 bound_to 5270
   17.2980   13.4631    6.4148 LP  0  0  0  0  0  0  0  0  0  0  0  0  # atno 5914 bound_to 677 
   15.9361   12.5634    6.3666 LP  0  0  0  0  0  0  0  0  0  0  0  0  # atno 5915 bound_to 677 
   20.1264   11.7242   -2.0717 LP  0  0  0  0  0  0  0  0  0  0  0  0  # atno 5920 bound_to 698 
   19.4826   11.8094   -0.5734 LP  0  0  0  0  0  0  0  0  0  0  0  0  # atno 5921 bound_to 698 
    9.5497    2.0459   -2.5159 LP  0  0  0  0  0  0  0  0  0  0  0  0  # atno 5950 bound_to 2569
    9.8830    3.3704   -3.4111 LP  0  0  0  0  0  0  0  0  0  0  0  0  # atno 5951 bound_to 2569
    7.3953    6.7105    1.4865 LP  0  0  0  0  0  0  0  0  0  0  0  0  # atno 5982 bound_to 2887
    8.3831    6.3156    0.2476 LP  0  0  0  0  0  0  0  0  0  0  0  0  # atno 5983 bound_to 2887
   18.7521    2.4629   -1.4525 LP  0  0  0  0  0  0  0  0  0  0  0  0  # atno 6000 bound_to 3171
   19.2243    3.0046    0.0138 LP  0  0  0  0  0  0  0  0  0  0  0  0  # atno 6001 bound_to 3171
   14.3944   10.1082    9.2461 LP  0  0  0  0  0  0  0  0  0  0  0  0  # atno 6004 bound_to 5270
   12.7718   10.1359    9.0649 LP  0  0  0  0  0  0  0  0  0  0  0  0  # atno 6005 bound_to 5270
   10.1359   18.9763    7.2659 LP  0  0  0  0  0  0  0  0  0  0  0  0  # atno 6055 bound_to 637 
   11.3990   19.3902    8.2145 LP  0  0  0  0  0  0  0  0  0  0  0  0  # atno 6056 bound_to 637 
    1.6834   10.5510   10.4467 LP  0  0  0  0  0  0  0  0  0  0  0  0  # atno 6063 bound_to 1878
    0.5984   11.5814   11.1007 LP  0  0  0  0  0  0  0  0  0  0  0  0  # atno 6064 bound_to 1878
   -6.8802   15.3347   -0.6879 LP  0  0  0  0  0  0  0  0  0  0  0  0  # atno 6067 bound_to 957 
   -6.4560   16.6260   -1.5929 LP  0  0  0  0  0  0  0  0  0  0  0  0  # atno 6068 bound_to 957 

>  <STRIFE_LigEff_Score>  (14) 
2.7160823529411764

$$$$
unknown|pharmsElabsTestPreDocking|sdf|23|dock9
     RDKit          3D

 19 20  0  0  0  0  0  0  0  0999 V2000
   14.8156    9.2005    1.1526 C   0  0  0  0  0  0  0  0  0  0  0  0
   14.0286    8.0051    1.6878 C   0  0  0  0  0  0  0  0  0  0  0  0
   13.8481    6.9637    0.6746 N   0  0  0  0  0  0  0  0  0  0  0  0
   12.7355    8.2760    2.4948 C   0  0  0  0  0  0  0  0  0  0  0  0
   11.7492    7.0994    2.4894 C   0  0  0  0  0  0  0  0  0  0  0  0
   10.3111    7.4242    2.8528 C   0  0  0  0  0  0  0  0  0  0  0  0
    9.8391    8.7232    2.2500 C   0  0  0  0  0  0  0  0  0  0  0  0
    8.3520    8.8997    2.2846 C   0  0  0  0  0  0  0  0  0  0  0  0
    7.8708    9.1641    1.1626 O   0  0  0  0  0  0  0  0  0  0  0  0
    7.4909    8.7792    3.4442 N   0  0  0  0  0  0  0  0  0  0  0  0
    6.0608    9.0819    3.4487 C   0  0  0  0  0  0  0  0  0  0  0  0
    5.1961    8.7438    2.3705 C   0  0  0  0  0  0  0  0  0  0  0  0
    3.8384    9.0421    2.4064 C   0  0  0  0  0  0  0  0  0  0  0  0
    3.2988    9.7076    3.4978 C   0  0  0  0  0  0  0  0  0  0  0  0
    4.1203   10.0719    4.5636 C   0  0  0  0  0  0  0  0  0  0  0  0
    5.4879    9.7621    4.5475 C   0  0  0  0  0  0  0  0  0  0  0  0
    6.2487   10.1377    5.6049 F   0  0  0  0  0  0  0  0  0  0  0  0
   10.6953    9.9324    2.4841 C   0  0  0  0  0  0  0  0  0  0  0  0
   12.1593    9.6721    2.1344 C   0  0  0  0  0  0  0  0  0  0  0  0
  1  2  1  0
  2  3  1  0
  2  4  1  0
  4  5  1  0
  5  6  1  0
  6  7  1  0
  7  8  1  0
  8  9  2  0
  8 10  1  0
 10 11  1  0
 11 12  2  0
 12 13  1  0
 13 14  2  0
 14 15  1  0
 15 16  2  0
 16 17  1  0
  7 18  1  0
 18 19  1  0
 19  4  1  0
 16 11  1  0
M  CHG  1   3   1
M  END
>  <EmbedRMS>  (15) 
0.2845218485686444

>  <Gold.Version>  (15) 
2020.3.0

>  <Gold.Id.Protein>  (15) 
unknown|1q8t_protein|pdb

>  <Gold.PLP.Fitness>  (15) 
55.9380

>  <Gold.PLP.PLP>  (15) 
-49.3751

>  <Gold.PLP.part.hbond>  (15) 
-2.9735

>  <Gold.PLP.part.metal>  (15) 
0.0000

>  <Gold.PLP.part.buried>  (15) 
-2.6315

>  <Gold.PLP.part.nonpolar>  (15) 
-43.8468

>  <Gold.PLP.part.repulsive>  (15) 
0.0791

>  <Gold.PLP.ligand.clash>  (15) 
0.0000

>  <Gold.PLP.ligand.torsion>  (15) 
1.7243

>  <Gold.PLP.Chemscore.Hbond>  (15) 
3.1217

>  <Gold.PLP.Chemscore.CHOScore>  (15) 
0.0000

>  <Gold.PLP.Chemscore.Metal>  (15) 
0.0000

>  <Gold.Chemscore.Hbonds>  (15) 
donor molecule, donor type, donor heavy atom, donor atom, acceptor molecule, acceptor atom, score
      L1  H     3    24       P1  2902  2.00
      L1  H     3    25       P1  2691  0.99
      P1  H  2887  2891       L1     9  0.13

>  <Gold.PLP.Chemscore.Internal.Correction>  (15) 
0.6464

>  <Gold.PLP.Constraint>  (15) 
-0.0000

>  <Gold.Protein.RotatedTorsions>  (15) 
[  681  677  676  673 ] final   60.47 input -179.99 | X-H torsion
[  702  698  697  694 ] final    7.18 input  179.99 | X-H torsion
[ 2577 2569 2568 2566 ] final -178.91 input   -0.13 | X-H torsion
[ 2891 2887 2886 2883 ] final  120.76 input  179.98 | X-H torsion
[ 3175 3171 3170 3167 ] final  158.23 input -179.99 | X-H torsion
[ 5278 5270 5269 5267 ] final  -77.52 input    0.55 | X-H torsion
[  641  637  636  633 ] final  169.97 input  179.99 | X-H torsion
[ 1886 1878 1877 1875 ] final -150.20 input    1.60 | X-H torsion
[  965  957  956  954 ] final  101.68 input    0.45 | X-H torsion

>  <Gold.Protein.ActiveResidues>  (15) 
 LYS47   THR48   LEU49   GLY50   THR51   GLY52   SER53   PHE54   GLY55   ARG56  
 VAL57   MET58   LEU59   TYR69   ALA70   MET71   LYS72   ILE73   LEU74   GLU91  
 LEU95   VAL104  LYS105  MET118  VAL119  MET120  GLU121  TYR122  VAL123  PRO124 
 GLY125  GLY126  GLU127  MET128  PHE129  TYR164  ASP166  LEU167  LYS168  PRO169 
 GLU170  ASN171  LEU172  LEU173  ILE174  GLN181  VAL182  THR183  ASP184  PHE185 
 GLY186  PHE187  GLY200  THR201  ASN326  PHE327  TYR330  ARG18   ARG19   ASN20  
 ALA21   ILE22   HIS23  

>  <Gold.Protein.RotatedAtoms>  (15) 
   11.3122   19.4456    8.3500 H   0  0  0  0  0  0  0  0  0  0  0  0  # atno 641  bound_to 637 
   16.6743   12.7410    6.0597 H   0  0  0  0  0  0  0  0  0  0  0  0  # atno 681  bound_to 677 
   19.4405   11.8369   -0.7374 H   0  0  0  0  0  0  0  0  0  0  0  0  # atno 702  bound_to 698 
   -7.1762   16.2215    0.0203 H   0  0  0  0  0  0  0  0  0  0  0  0  # atno 965  bound_to 957 
    0.6539   11.0880   10.9732 H   0  0  0  0  0  0  0  0  0  0  0  0  # atno 1886 bound_to 1878
   10.6107    2.0065   -2.4311 H   0  0  0  0  0  0  0  0  0  0  0  0  # atno 2577 bound_to 2569
    7.9988    6.9198    0.8120 H   0  0  0  0  0  0  0  0  0  0  0  0  # atno 2891 bound_to 2887
   17.9934    2.0603   -0.0689 H   0  0  0  0  0  0  0  0  0  0  0  0  # atno 3175 bound_to 3171
   13.5674    9.8115   10.4835 H   0  0  0  0  0  0  0  0  0  0  0  0  # atno 5278 bound_to 5270
   15.5979   13.1515    7.1592 LP  0  0  0  0  0  0  0  0  0  0  0  0  # atno 5914 bound_to 677 
   17.0261   13.9358    7.0520 LP  0  0  0  0  0  0  0  0  0  0  0  0  # atno 5915 bound_to 677 
   21.0008   11.5411   -0.6129 LP  0  0  0  0  0  0  0  0  0  0  0  0  # atno 5920 bound_to 698 
   20.2922   11.6949   -2.0760 LP  0  0  0  0  0  0  0  0  0  0  0  0  # atno 5921 bound_to 698 
    9.2360    2.6266   -2.9421 LP  0  0  0  0  0  0  0  0  0  0  0  0  # atno 5950 bound_to 2569
   10.6623    3.3249   -3.3224 LP  0  0  0  0  0  0  0  0  0  0  0  0  # atno 5951 bound_to 2569
    8.1197    5.4052    0.3346 LP  0  0  0  0  0  0  0  0  0  0  0  0  # atno 5982 bound_to 2887
    7.1368    5.8170    1.5718 LP  0  0  0  0  0  0  0  0  0  0  0  0  # atno 5983 bound_to 2887
   18.6905    2.4168   -1.4555 LP  0  0  0  0  0  0  0  0  0  0  0  0  # atno 6000 bound_to 3171
   19.2613    3.0236   -0.0510 LP  0  0  0  0  0  0  0  0  0  0  0  0  # atno 6001 bound_to 3171
   14.3266   10.1381    9.1219 LP  0  0  0  0  0  0  0  0  0  0  0  0  # atno 6004 bound_to 5270
   12.6951   10.1058    9.1837 LP  0  0  0  0  0  0  0  0  0  0  0  0  # atno 6005 bound_to 5270
    9.7546   19.6732    8.5889 LP  0  0  0  0  0  0  0  0  0  0  0  0  # atno 6055 bound_to 637 
   10.2962   18.9487    7.2294 LP  0  0  0  0  0  0  0  0  0  0  0  0  # atno 6056 bound_to 637 
    1.6089   12.3482   10.7860 LP  0  0  0  0  0  0  0  0  0  0  0  0  # atno 6063 bound_to 1878
    2.0880   10.8581   10.3206 LP  0  0  0  0  0  0  0  0  0  0  0  0  # atno 6064 bound_to 1878
   -6.6137   15.4784   -1.2706 LP  0  0  0  0  0  0  0  0  0  0  0  0  # atno 6067 bound_to 957 
   -6.6365   17.1091   -1.1864 LP  0  0  0  0  0  0  0  0  0  0  0  0  # atno 6068 bound_to 957 

>  <STRIFE_LigEff_Score>  (15) 
2.944105263157895

$$$$
unknown|pharmsElabsTestPreDocking|sdf|24|dock3
     RDKit          3D

 17 18  0  0  0  0  0  0  0  0999 V2000
   14.1523    9.5324    1.1016 C   0  0  0  0  0  0  0  0  0  0  0  0
   13.6279    8.2668    1.7798 C   0  0  0  0  0  0  0  0  0  0  0  0
   13.5146    7.1627    0.8170 N   0  0  0  0  0  0  0  0  0  0  0  0
   12.3815    8.3874    2.6787 C   0  0  0  0  0  0  0  0  0  0  0  0
   11.4173    7.1794    2.8212 C   0  0  0  0  0  0  0  0  0  0  0  0
    9.9689    7.4465    2.4389 C   0  0  0  0  0  0  0  0  0  0  0  0
    9.4707    8.7683    3.0198 C   0  0  0  0  0  0  0  0  0  0  0  0
    8.0000    8.9376    2.7517 C   0  0  0  0  0  0  0  0  0  0  0  0
    7.5726    8.9037    1.5655 O   0  0  0  0  0  0  0  0  0  0  0  0
    7.1073    9.1603    3.8523 N   0  0  0  0  0  0  0  0  0  0  0  0
    5.6864    9.3186    3.7528 C   0  0  0  0  0  0  0  0  0  0  0  0
    4.9013    9.2004    2.6162 C   0  0  0  0  0  0  0  0  0  0  0  0
    3.6252    9.4525    3.0691 C   0  0  0  0  0  0  0  0  0  0  0  0
    3.6704    9.7011    4.3897 N   0  0  0  0  0  0  0  0  0  0  0  0
    4.9192    9.6226    4.8158 N   0  0  0  0  0  0  0  0  0  0  0  0
   10.2570    9.9154    2.3945 C   0  0  0  0  0  0  0  0  0  0  0  0
   11.7525    9.8143    2.6879 C   0  0  0  0  0  0  0  0  0  0  0  0
  1  2  1  0
  2  3  1  0
  2  4  1  0
  4  5  1  0
  5  6  1  0
  6  7  1  0
  7  8  1  0
  8  9  2  0
  8 10  1  0
 10 11  1  0
 11 12  1  0
 12 13  2  0
 13 14  1  0
 14 15  1  0
  7 16  1  0
 16 17  1  0
 17  4  1  0
 15 11  2  0
M  CHG  1   3   1
M  END
>  <EmbedRMS>  (16) 
0.20783527019262546

>  <Gold.Version>  (16) 
2020.3.0

>  <Gold.Id.Protein>  (16) 
unknown|1q8t_protein|pdb

>  <Gold.PLP.Fitness>  (16) 
44.4018

>  <Gold.PLP.PLP>  (16) 
-34.8909

>  <Gold.PLP.part.hbond>  (16) 
-2.9054

>  <Gold.PLP.part.metal>  (16) 
0.0000

>  <Gold.PLP.part.buried>  (16) 
-4.9044

>  <Gold.PLP.part.nonpolar>  (16) 
-26.7996

>  <Gold.PLP.part.repulsive>  (16) 
0.1694

>  <Gold.PLP.ligand.clash>  (16) 
0.0000

>  <Gold.PLP.ligand.torsion>  (16) 
1.2420

>  <Gold.PLP.Chemscore.Hbond>  (16) 
2.8640

>  <Gold.PLP.Chemscore.CHOScore>  (16) 
1.0000

>  <Gold.PLP.Chemscore.Metal>  (16) 
0.0000

>  <Gold.Chemscore.Hbonds>  (16) 
donor molecule, donor type, donor heavy atom, donor atom, acceptor molecule, acceptor atom, score
      L1  H     3    22       P1  2902  2.00
      L1  H     3    23       P1  2691  0.86
      L1  C    13    33       P1  1855  1.00

>  <Gold.PLP.Chemscore.Internal.Correction>  (16) 
0.4028

>  <Gold.PLP.Constraint>  (16) 
-0.0000

>  <Gold.Protein.RotatedTorsions>  (16) 
[  681  677  676  673 ] final  -55.22 input -179.99 | X-H torsion
[  702  698  697  694 ] final -149.06 input  179.99 | X-H torsion
[ 2577 2569 2568 2566 ] final -152.27 input   -0.13 | X-H torsion
[ 2891 2887 2886 2883 ] final   12.32 input  179.98 | X-H torsion
[ 3175 3171 3170 3167 ] final  134.93 input -179.99 | X-H torsion
[ 5278 5270 5269 5267 ] final  154.19 input    0.55 | X-H torsion
[  641  637  636  633 ] final  133.75 input  179.99 | X-H torsion
[ 1886 1878 1877 1875 ] final  133.86 input    1.60 | X-H torsion
[  965  957  956  954 ] final  -69.62 input    0.45 | X-H torsion

>  <Gold.Protein.ActiveResidues>  (16) 
 LYS47   THR48   LEU49   GLY50   THR51   GLY52   SER53   PHE54   GLY55   ARG56  
 VAL57   MET58   LEU59   TYR69   ALA70   MET71   LYS72   ILE73   LEU74   GLU91  
 LEU95   VAL104  LYS105  MET118  VAL119  MET120  GLU121  TYR122  VAL123  PRO124 
 GLY125  GLY126  GLU127  MET128  PHE129  TYR164  ASP166  LEU167  LYS168  PRO169 
 GLU170  ASN171  LEU172  LEU173  ILE174  GLN181  VAL182  THR183  ASP184  PHE185 
 GLY186  PHE187  GLY200  THR201  ASN326  PHE327  TYR330  ARG18   ARG19   ASN20  
 ALA21   ILE22   HIS23  

>  <Gold.Protein.RotatedAtoms>  (16) 
   10.9738   19.6614    8.7356 H   0  0  0  0  0  0  0  0  0  0  0  0  # atno 641  bound_to 637 
   15.6217   13.1172    7.0848 H   0  0  0  0  0  0  0  0  0  0  0  0  # atno 681  bound_to 677 
   21.1144   11.5486   -1.1754 H   0  0  0  0  0  0  0  0  0  0  0  0  # atno 702  bound_to 698 
   -6.4371   16.1802   -1.6045 H   0  0  0  0  0  0  0  0  0  0  0  0  # atno 965  bound_to 957 
    0.9881   12.1375   11.0048 H   0  0  0  0  0  0  0  0  0  0  0  0  # atno 1886 bound_to 1878
   10.9154    2.2450   -2.5743 H   0  0  0  0  0  0  0  0  0  0  0  0  # atno 2577 bound_to 2569
    8.1803    5.5790    0.2807 H   0  0  0  0  0  0  0  0  0  0  0  0  # atno 2891 bound_to 2887
   17.9226    1.9632   -0.4101 H   0  0  0  0  0  0  0  0  0  0  0  0  # atno 3175 bound_to 3171
   14.2098   10.1721    9.0489 H   0  0  0  0  0  0  0  0  0  0  0  0  # atno 5278 bound_to 5270
   16.9769   13.9534    7.0999 LP  0  0  0  0  0  0  0  0  0  0  0  0  # atno 5914 bound_to 677 
   16.7550   12.7379    6.0323 LP  0  0  0  0  0  0  0  0  0  0  0  0  # atno 5915 bound_to 677 
   19.7325   11.7913   -1.9296 LP  0  0  0  0  0  0  0  0  0  0  0  0  # atno 5920 bound_to 698 
   19.7996   11.7479   -0.2986 LP  0  0  0  0  0  0  0  0  0  0  0  0  # atno 5921 bound_to 698 
    9.3282    2.2811   -2.6954 LP  0  0  0  0  0  0  0  0  0  0  0  0  # atno 5950 bound_to 2569
   10.2492    3.4194   -3.4183 LP  0  0  0  0  0  0  0  0  0  0  0  0  # atno 5951 bound_to 2569
    7.1605    5.6418    1.5024 LP  0  0  0  0  0  0  0  0  0  0  0  0  # atno 5982 bound_to 2887
    7.9051    6.9914    0.9632 LP  0  0  0  0  0  0  0  0  0  0  0  0  # atno 5983 bound_to 2887
   18.9856    2.6453   -1.3799 LP  0  0  0  0  0  0  0  0  0  0  0  0  # atno 6000 bound_to 3171
   19.0407    2.8973    0.2326 LP  0  0  0  0  0  0  0  0  0  0  0  0  # atno 6001 bound_to 3171
   12.6408   10.0753    9.3050 LP  0  0  0  0  0  0  0  0  0  0  0  0  # atno 6004 bound_to 5270
   13.7049    9.7892   10.5101 LP  0  0  0  0  0  0  0  0  0  0  0  0  # atno 6005 bound_to 5270
    9.5307   19.4369    8.1016 LP  0  0  0  0  0  0  0  0  0  0  0  0  # atno 6055 bound_to 637 
   10.8766   18.9578    7.3106 LP  0  0  0  0  0  0  0  0  0  0  0  0  # atno 6056 bound_to 637 
    2.3026   11.5318   10.3410 LP  0  0  0  0  0  0  0  0  0  0  0  0  # atno 6063 bound_to 1878
    1.0425   10.5697   10.7324 LP  0  0  0  0  0  0  0  0  0  0  0  0  # atno 6064 bound_to 1878
   -6.9744   17.1280   -0.4434 LP  0  0  0  0  0  0  0  0  0  0  0  0  # atno 6067 bound_to 957 
   -7.0541   15.5031   -0.3023 LP  0  0  0  0  0  0  0  0  0  0  0  0  # atno 6068 bound_to 957 

>  <STRIFE_LigEff_Score>  (16) 
2.6118705882352944

$$$$
unknown|pharmsElabsTestPreDocking|sdf|25|dock3
     RDKit          3D

 18 19  0  0  0  0  0  0  0  0999 V2000
   14.4968    9.2464    1.2787 C   0  0  0  0  0  0  0  0  0  0  0  0
   13.6579    8.0311    1.6365 C   0  0  0  0  0  0  0  0  0  0  0  0
   13.9381    6.8390    0.8438 N   0  0  0  0  0  0  0  0  0  0  0  0
   12.1741    8.2904    2.0395 C   0  0  0  0  0  0  0  0  0  0  0  0
   11.4579    7.2109    2.8662 C   0  0  0  0  0  0  0  0  0  0  0  0
    9.9317    7.4235    2.8527 C   0  0  0  0  0  0  0  0  0  0  0  0
    9.5012    8.8733    2.6167 C   0  0  0  0  0  0  0  0  0  0  0  0
    8.0292    9.1139    2.7458 C   0  0  0  0  0  0  0  0  0  0  0  0
    7.5062    9.5558    1.6997 O   0  0  0  0  0  0  0  0  0  0  0  0
    7.2235    8.8795    3.9241 N   0  0  0  0  0  0  0  0  0  0  0  0
    5.8170    9.2461    4.0489 C   0  0  0  0  0  0  0  0  0  0  0  0
    4.9583    9.0690    2.9469 C   0  0  0  0  0  0  0  0  0  0  0  0
    3.5982    9.3990    3.0360 C   0  0  0  0  0  0  0  0  0  0  0  0
    3.0745    9.9194    4.2201 C   0  0  0  0  0  0  0  0  0  0  0  0
    3.9016   10.1012    5.3207 C   0  0  0  0  0  0  0  0  0  0  0  0
    5.2481    9.7591    5.2473 C   0  0  0  0  0  0  0  0  0  0  0  0
   10.4488   10.0241    2.8980 C   0  0  0  0  0  0  0  0  0  0  0  0
   11.9368    9.6763    2.6777 C   0  0  0  0  0  0  0  0  0  0  0  0
  1  2  1  0
  2  3  1  0
  2  4  1  0
  4  5  1  0
  5  6  1  0
  6  7  1  0
  7  8  1  0
  8  9  2  0
  8 10  1  0
 10 11  1  0
 11 12  2  0
 12 13  1  0
 13 14  2  0
 14 15  1  0
 15 16  2  0
  7 17  1  0
 17 18  1  0
 18  4  1  0
 16 11  1  0
M  CHG  1   3   1
M  END
>  <EmbedRMS>  (17) 
0.24964892458419108

>  <Gold.Version>  (17) 
2020.3.0

>  <Gold.Id.Protein>  (17) 
unknown|1q8t_protein|pdb

>  <Gold.PLP.Fitness>  (17) 
55.2889

>  <Gold.PLP.PLP>  (17) 
-47.3587

>  <Gold.PLP.part.hbond>  (17) 
-1.9317

>  <Gold.PLP.part.metal>  (17) 
0.0000

>  <Gold.PLP.part.buried>  (17) 
-1.3493

>  <Gold.PLP.part.nonpolar>  (17) 
-44.8180

>  <Gold.PLP.part.repulsive>  (17) 
0.0878

>  <Gold.PLP.ligand.clash>  (17) 
0.0000

>  <Gold.PLP.ligand.torsion>  (17) 
0.9934

>  <Gold.PLP.Chemscore.Hbond>  (17) 
2.9920

>  <Gold.PLP.Chemscore.CHOScore>  (17) 
0.0000

>  <Gold.PLP.Chemscore.Metal>  (17) 
0.0000

>  <Gold.Chemscore.Hbonds>  (17) 
donor molecule, donor type, donor heavy atom, donor atom, acceptor molecule, acceptor atom, score
      L1  H     3    24       P1  2902  2.00
      L1  H     3    25       P1  2691  0.99

>  <Gold.PLP.Chemscore.Internal.Correction>  (17) 
0.9410

>  <Gold.PLP.Constraint>  (17) 
-0.0000

>  <Gold.Protein.RotatedTorsions>  (17) 
[  681  677  676  673 ] final   76.59 input -179.99 | X-H torsion
[  702  698  697  694 ] final    3.26 input  179.99 | X-H torsion
[ 2577 2569 2568 2566 ] final  -88.85 input   -0.13 | X-H torsion
[ 2891 2887 2886 2883 ] final   46.55 input  179.98 | X-H torsion
[ 3175 3171 3170 3167 ] final -144.49 input -179.99 | X-H torsion
[ 5278 5270 5269 5267 ] final -118.43 input    0.55 | X-H torsion
[  641  637  636  633 ] final   74.81 input  179.99 | X-H torsion
[ 1886 1878 1877 1875 ] final  -59.76 input    1.60 | X-H torsion
[  965  957  956  954 ] final  -69.70 input    0.45 | X-H torsion

>  <Gold.Protein.ActiveResidues>  (17) 
 LYS47   THR48   LEU49   GLY50   THR51   GLY52   SER53   PHE54   GLY55   ARG56  
 VAL57   MET58   LEU59   TYR69   ALA70   MET71   LYS72   ILE73   LEU74   GLU91  
 LEU95   VAL104  LYS105  MET118  VAL119  MET120  GLU121  TYR122  VAL123  PRO124 
 GLY125  GLY126  GLU127  MET128  PHE129  TYR164  ASP166  LEU167  LYS168  PRO169 
 GLU170  ASN171  LEU172  LEU173  ILE174  GLN181  VAL182  THR183  ASP184  PHE185 
 GLY186  PHE187  GLY200  THR201  ASN326  PHE327  TYR330  ARG18   ARG19   ASN20  
 ALA21   ILE22   HIS23  

>  <Gold.Protein.RotatedAtoms>  (17) 
   10.0972   19.7346    8.7830 H   0  0  0  0  0  0  0  0  0  0  0  0  # atno 641  bound_to 637 
   16.8824   12.8814    6.0700 H   0  0  0  0  0  0  0  0  0  0  0  0  # atno 681  bound_to 677 
   19.4690   11.8308   -0.6834 H   0  0  0  0  0  0  0  0  0  0  0  0  # atno 702  bound_to 698 
   -6.4370   16.1815   -1.6046 H   0  0  0  0  0  0  0  0  0  0  0  0  # atno 965  bound_to 957 
    1.7008   10.6127   10.4306 H   0  0  0  0  0  0  0  0  0  0  0  0  # atno 1886 bound_to 1878
   10.9596    3.0188   -3.1085 H   0  0  0  0  0  0  0  0  0  0  0  0  # atno 2577 bound_to 2569
    8.3352    6.0794    0.2211 H   0  0  0  0  0  0  0  0  0  0  0  0  # atno 2891 bound_to 2887
   18.5556    2.5347    0.3738 H   0  0  0  0  0  0  0  0  0  0  0  0  # atno 3175 bound_to 3171
   14.1445    9.8754   10.2490 H   0  0  0  0  0  0  0  0  0  0  0  0  # atno 5278 bound_to 5270
   15.5777   12.9581    6.9800 LP  0  0  0  0  0  0  0  0  0  0  0  0  # atno 5914 bound_to 677 
   16.8274   13.9814    7.2203 LP  0  0  0  0  0  0  0  0  0  0  0  0  # atno 5915 bound_to 677 
   21.0344   11.5362   -0.6678 LP  0  0  0  0  0  0  0  0  0  0  0  0  # atno 5920 bound_to 698 
   20.2287   11.7062   -2.0780 LP  0  0  0  0  0  0  0  0  0  0  0  0  # atno 5921 bound_to 698 
   10.1608    1.8699   -2.3488 LP  0  0  0  0  0  0  0  0  0  0  0  0  # atno 5950 bound_to 2569
    9.3702    3.0158   -3.2024 LP  0  0  0  0  0  0  0  0  0  0  0  0  # atno 5951 bound_to 2569
    7.3650    5.2468    1.1709 LP  0  0  0  0  0  0  0  0  0  0  0  0  # atno 5982 bound_to 2887
    7.5375    6.8599    1.3575 LP  0  0  0  0  0  0  0  0  0  0  0  0  # atno 5983 bound_to 2887
   18.0269    1.9820   -1.0229 LP  0  0  0  0  0  0  0  0  0  0  0  0  # atno 6000 bound_to 3171
   19.3332    2.9592   -0.9494 LP  0  0  0  0  0  0  0  0  0  0  0  0  # atno 6001 bound_to 3171
   13.8016   10.2282    8.7342 LP  0  0  0  0  0  0  0  0  0  0  0  0  # atno 6004 bound_to 5270
   12.6128    9.9485    9.8182 LP  0  0  0  0  0  0  0  0  0  0  0  0  # atno 6005 bound_to 5270
    9.9235   19.0374    7.3622 LP  0  0  0  0  0  0  0  0  0  0  0  0  # atno 6055 bound_to 637 
   11.4070   19.2802    8.0001 LP  0  0  0  0  0  0  0  0  0  0  0  0  # atno 6056 bound_to 637 
    0.5898   11.5383   11.0971 LP  0  0  0  0  0  0  0  0  0  0  0  0  # atno 6063 bound_to 1878
    2.0051   12.1684   10.5807 LP  0  0  0  0  0  0  0  0  0  0  0  0  # atno 6064 bound_to 1878
   -6.9749   17.1274   -0.4423 LP  0  0  0  0  0  0  0  0  0  0  0  0  # atno 6067 bound_to 957 
   -7.0537   15.5023   -0.3033 LP  0  0  0  0  0  0  0  0  0  0  0  0  # atno 6068 bound_to 957 

>  <STRIFE_LigEff_Score>  (17) 
3.0716055555555553

$$$$
unknown|pharmsElabsTestPreDocking|sdf|26|dock4
     RDKit          3D

 17 18  0  0  0  0  0  0  0  0999 V2000
   14.5119    9.1866    1.3621 C   0  0  0  0  0  0  0  0  0  0  0  0
   13.6371    8.0529    1.8970 C   0  0  0  0  0  0  0  0  0  0  0  0
   13.3116    7.0931    0.8332 N   0  0  0  0  0  0  0  0  0  0  0  0
   12.4047    8.4243    2.7450 C   0  0  0  0  0  0  0  0  0  0  0  0
   11.4341    7.3096    3.2190 C   0  0  0  0  0  0  0  0  0  0  0  0
    9.9823    7.4793    2.7962 C   0  0  0  0  0  0  0  0  0  0  0  0
    9.5018    8.9138    3.0056 C   0  0  0  0  0  0  0  0  0  0  0  0
    8.0286    9.0204    2.7193 C   0  0  0  0  0  0  0  0  0  0  0  0
    7.6113    8.8996    1.5352 O   0  0  0  0  0  0  0  0  0  0  0  0
    7.1213    9.2833    3.7989 N   0  0  0  0  0  0  0  0  0  0  0  0
    5.6971    9.3909    3.6819 C   0  0  0  0  0  0  0  0  0  0  0  0
    4.9315    9.2528    2.5343 C   0  0  0  0  0  0  0  0  0  0  0  0
    3.6413    9.4552    2.9721 C   0  0  0  0  0  0  0  0  0  0  0  0
    3.6605    9.6954    4.2949 N   0  0  0  0  0  0  0  0  0  0  0  0
    4.9057    9.6589    4.7368 N   0  0  0  0  0  0  0  0  0  0  0  0
   10.2871    9.8419    2.0852 C   0  0  0  0  0  0  0  0  0  0  0  0
   11.7859    9.8076    2.3771 C   0  0  0  0  0  0  0  0  0  0  0  0
  1  2  1  0
  2  3  1  0
  2  4  1  0
  4  5  1  0
  5  6  1  0
  6  7  1  0
  7  8  1  0
  8  9  2  0
  8 10  1  0
 10 11  1  0
 11 12  1  0
 12 13  2  0
 13 14  1  0
 14 15  1  0
  7 16  1  0
 16 17  1  0
 17  4  1  0
 15 11  2  0
M  CHG  1   3   1
M  END
>  <EmbedRMS>  (18) 
0.20783527019262546

>  <Gold.Version>  (18) 
2020.3.0

>  <Gold.Id.Protein>  (18) 
unknown|1q8t_protein|pdb

>  <Gold.PLP.Fitness>  (18) 
46.5576

>  <Gold.PLP.PLP>  (18) 
-33.7837

>  <Gold.PLP.part.hbond>  (18) 
-2.6647

>  <Gold.PLP.part.metal>  (18) 
0.0000

>  <Gold.PLP.part.buried>  (18) 
-5.7712

>  <Gold.PLP.part.nonpolar>  (18) 
-25.7946

>  <Gold.PLP.part.repulsive>  (18) 
0.1672

>  <Gold.PLP.ligand.clash>  (18) 
0.0000

>  <Gold.PLP.ligand.torsion>  (18) 
0.6864

>  <Gold.PLP.Chemscore.Hbond>  (18) 
3.5840

>  <Gold.PLP.Chemscore.CHOScore>  (18) 
1.0000

>  <Gold.PLP.Chemscore.Metal>  (18) 
0.0000

>  <Gold.Chemscore.Hbonds>  (18) 
donor molecule, donor type, donor heavy atom, donor atom, acceptor molecule, acceptor atom, score
      L1  H     3    22       P1  2902  2.00
      L1  H     3    23       P1  2691  0.69
      P1  H  2887  2891       L1     9  0.90
      L1  C    13    33       P1  1855  1.00

>  <Gold.PLP.Chemscore.Internal.Correction>  (18) 
0.3947

>  <Gold.PLP.Constraint>  (18) 
-0.0000

>  <Gold.Protein.RotatedTorsions>  (18) 
[  681  677  676  673 ] final -175.08 input -179.99 | X-H torsion
[  702  698  697  694 ] final  -21.28 input  179.99 | X-H torsion
[ 2577 2569 2568 2566 ] final  -84.10 input   -0.13 | X-H torsion
[ 2891 2887 2886 2883 ] final  127.52 input  179.98 | X-H torsion
[ 3175 3171 3170 3167 ] final  113.25 input -179.99 | X-H torsion
[ 5278 5270 5269 5267 ] final  -92.95 input    0.55 | X-H torsion
[  641  637  636  633 ] final   27.54 input  179.99 | X-H torsion
[ 1886 1878 1877 1875 ] final  169.22 input    1.60 | X-H torsion
[  965  957  956  954 ] final   26.55 input    0.45 | X-H torsion

>  <Gold.Protein.ActiveResidues>  (18) 
 LYS47   THR48   LEU49   GLY50   THR51   GLY52   SER53   PHE54   GLY55   ARG56  
 VAL57   MET58   LEU59   TYR69   ALA70   MET71   LYS72   ILE73   LEU74   GLU91  
 LEU95   VAL104  LYS105  MET118  VAL119  MET120  GLU121  TYR122  VAL123  PRO124 
 GLY125  GLY126  GLU127  MET128  PHE129  TYR164  ASP166  LEU167  LYS168  PRO169 
 GLU170  ASN171  LEU172  LEU173  ILE174  GLN181  VAL182  THR183  ASP184  PHE185 
 GLY186  PHE187  GLY200  THR201  ASN326  PHE327  TYR330  ARG18   ARG19   ASN20  
 ALA21   ILE22   HIS23  

>  <Gold.Protein.RotatedAtoms>  (18) 
    9.6191   19.5124    8.2956 H   0  0  0  0  0  0  0  0  0  0  0  0  # atno 641  bound_to 637 
   16.9419   13.9302    7.0730 H   0  0  0  0  0  0  0  0  0  0  0  0  # atno 681  bound_to 677 
   19.7217   11.7806   -0.4027 H   0  0  0  0  0  0  0  0  0  0  0  0  # atno 702  bound_to 698 
   -6.8885   15.3925   -0.6292 H   0  0  0  0  0  0  0  0  0  0  0  0  # atno 965  bound_to 957 
    0.6702   11.7012   11.0706 H   0  0  0  0  0  0  0  0  0  0  0  0  # atno 1886 bound_to 1878
   10.9210    3.0696   -3.1465 H   0  0  0  0  0  0  0  0  0  0  0  0  # atno 2577 bound_to 2569
    7.9336    6.9404    0.8926 H   0  0  0  0  0  0  0  0  0  0  0  0  # atno 2891 bound_to 2887
   17.9625    1.9490   -0.7443 H   0  0  0  0  0  0  0  0  0  0  0  0  # atno 3175 bound_to 3171
   13.8042    9.8240   10.4431 H   0  0  0  0  0  0  0  0  0  0  0  0  # atno 5278 bound_to 5270
   16.7569   12.7390    6.0323 LP  0  0  0  0  0  0  0  0  0  0  0  0  # atno 5914 bound_to 677 
   15.5855   13.0966    7.1124 LP  0  0  0  0  0  0  0  0  0  0  0  0  # atno 5915 bound_to 677 
   21.1541   11.5223   -1.0500 LP  0  0  0  0  0  0  0  0  0  0  0  0  # atno 5920 bound_to 698 
   19.8431   11.7729   -1.9910 LP  0  0  0  0  0  0  0  0  0  0  0  0  # atno 5921 bound_to 698 
   10.2388    1.8741   -2.3461 LP  0  0  0  0  0  0  0  0  0  0  0  0  # atno 5950 bound_to 2569
    9.3328    2.9581   -3.1651 LP  0  0  0  0  0  0  0  0  0  0  0  0  # atno 5951 bound_to 2569
    8.1776    5.4876    0.2873 LP  0  0  0  0  0  0  0  0  0  0  0  0  # atno 5982 bound_to 2887
    7.1476    5.7129    1.5343 LP  0  0  0  0  0  0  0  0  0  0  0  0  # atno 5983 bound_to 2887
   19.2095    2.8370   -1.1827 LP  0  0  0  0  0  0  0  0  0  0  0  0  # atno 6000 bound_to 3171
   18.7749    2.7207    0.3871 LP  0  0  0  0  0  0  0  0  0  0  0  0  # atno 6001 bound_to 3171
   14.1636   10.1828    8.9335 LP  0  0  0  0  0  0  0  0  0  0  0  0  # atno 6004 bound_to 5270
   12.6089   10.0480    9.4146 LP  0  0  0  0  0  0  0  0  0  0  0  0  # atno 6005 bound_to 5270
   10.6626   18.9343    7.2411 LP  0  0  0  0  0  0  0  0  0  0  0  0  # atno 6055 bound_to 637 
   11.1713   19.6173    8.6344 LP  0  0  0  0  0  0  0  0  0  0  0  0  # atno 6056 bound_to 637 
    2.1195   12.0475   10.5096 LP  0  0  0  0  0  0  0  0  0  0  0  0  # atno 6063 bound_to 1878
    1.5603   10.5133   10.4945 LP  0  0  0  0  0  0  0  0  0  0  0  0  # atno 6064 bound_to 1878
   -6.4469   16.5627   -1.6144 LP  0  0  0  0  0  0  0  0  0  0  0  0  # atno 6067 bound_to 957 
   -7.1063   16.8979   -0.1585 LP  0  0  0  0  0  0  0  0  0  0  0  0  # atno 6068 bound_to 957 

>  <STRIFE_LigEff_Score>  (18) 
2.7386823529411766

$$$$
unknown|pharmsElabsTestPreDocking|sdf|27|dock2
     RDKit          3D

 17 18  0  0  0  0  0  0  0  0999 V2000
   14.5551    8.1378    2.8356 C   0  0  0  0  0  0  0  0  0  0  0  0
   13.2128    7.9689    2.1254 C   0  0  0  0  0  0  0  0  0  0  0  0
   13.0869    8.8519    0.9641 N   0  0  0  0  0  0  0  0  0  0  0  0
   11.9244    7.9314    2.9835 C   0  0  0  0  0  0  0  0  0  0  0  0
   10.7934    7.1002    2.3608 C   0  0  0  0  0  0  0  0  0  0  0  0
    9.3915    7.3708    2.8800 C   0  0  0  0  0  0  0  0  0  0  0  0
    9.1253    8.8390    3.0972 C   0  0  0  0  0  0  0  0  0  0  0  0
    7.6748    9.1747    3.2776 C   0  0  0  0  0  0  0  0  0  0  0  0
    7.4471    9.9098    4.2647 O   0  0  0  0  0  0  0  0  0  0  0  0
    6.5815    8.7352    2.4430 N   0  0  0  0  0  0  0  0  0  0  0  0
    5.1954    9.0157    2.7662 C   0  0  0  0  0  0  0  0  0  0  0  0
    4.6481    9.3008    4.0163 C   0  0  0  0  0  0  0  0  0  0  0  0
    3.2986    9.4778    3.8136 C   0  0  0  0  0  0  0  0  0  0  0  0
    2.9994    9.3122    2.5131 N   0  0  0  0  0  0  0  0  0  0  0  0
    4.1470    9.0297    1.8662 C   0  0  0  0  0  0  0  0  0  0  0  0
   10.1212    9.5891    3.9343 C   0  0  0  0  0  0  0  0  0  0  0  0
   11.5560    9.3612    3.4626 C   0  0  0  0  0  0  0  0  0  0  0  0
  1  2  1  0
  2  3  1  0
  2  4  1  0
  4  5  1  0
  5  6  1  0
  6  7  1  0
  7  8  1  0
  8  9  2  0
  8 10  1  0
 10 11  1  0
 11 12  1  0
 12 13  2  0
 13 14  1  0
 14 15  1  0
  7 16  1  0
 16 17  1  0
 17  4  1  0
 15 11  2  0
M  CHG  1   3   1
M  END
>  <EmbedRMS>  (19) 
0.3005329260886256

>  <Gold.Version>  (19) 
2020.3.0

>  <Gold.Id.Protein>  (19) 
unknown|1q8t_protein|pdb

>  <Gold.PLP.Fitness>  (19) 
49.2243

>  <Gold.PLP.PLP>  (19) 
-40.7070

>  <Gold.PLP.part.hbond>  (19) 
-2.3776

>  <Gold.PLP.part.metal>  (19) 
0.0000

>  <Gold.PLP.part.buried>  (19) 
-3.7790

>  <Gold.PLP.part.nonpolar>  (19) 
-34.4804

>  <Gold.PLP.part.repulsive>  (19) 
0.0997

>  <Gold.PLP.ligand.clash>  (19) 
0.0000

>  <Gold.PLP.ligand.torsion>  (19) 
0.6314

>  <Gold.PLP.Chemscore.Hbond>  (19) 
3.0506

>  <Gold.PLP.Chemscore.CHOScore>  (19) 
0.0000

>  <Gold.PLP.Chemscore.Metal>  (19) 
0.0000

>  <Gold.Chemscore.Hbonds>  (19) 
donor molecule, donor type, donor heavy atom, donor atom, acceptor molecule, acceptor atom, score
      L1  H     3    24       P1  2902  2.00
      L1  H    10    31       P1  2887  0.05
      L1  H    14    34       P1  1855  1.00

>  <Gold.PLP.Chemscore.Internal.Correction>  (19) 
0.6281

>  <Gold.PLP.Constraint>  (19) 
-0.0000

>  <Gold.Protein.RotatedTorsions>  (19) 
[  681  677  676  673 ] final   34.13 input -179.99 | X-H torsion
[  702  698  697  694 ] final    8.41 input  179.99 | X-H torsion
[ 2577 2569 2568 2566 ] final  102.26 input   -0.13 | X-H torsion
[ 2891 2887 2886 2883 ] final   41.77 input  179.98 | X-H torsion
[ 3175 3171 3170 3167 ] final  119.61 input -179.99 | X-H torsion
[ 5278 5270 5269 5267 ] final  -71.87 input    0.55 | X-H torsion
[  641  637  636  633 ] final -100.11 input  179.99 | X-H torsion
[ 1886 1878 1877 1875 ] final  120.20 input    1.60 | X-H torsion
[  965  957  956  954 ] final  -94.49 input    0.45 | X-H torsion

>  <Gold.Protein.ActiveResidues>  (19) 
 LYS47   THR48   LEU49   GLY50   THR51   GLY52   SER53   PHE54   GLY55   ARG56  
 VAL57   MET58   LEU59   TYR69   ALA70   MET71   LYS72   ILE73   LEU74   GLU91  
 LEU95   VAL104  LYS105  MET118  VAL119  MET120  GLU121  TYR122  VAL123  PRO124 
 GLY125  GLY126  GLU127  MET128  PHE129  TYR164  ASP166  LEU167  LYS168  PRO169 
 GLU170  ASN171  LEU172  LEU173  ILE174  GLN181  VAL182  THR183  ASP184  PHE185 
 GLY186  PHE187  GLY200  THR201  ASN326  PHE327  TYR330  ARG18   ARG19   ASN20  
 ALA21   ILE22   HIS23  

>  <Gold.Protein.RotatedAtoms>  (19) 
   10.7668   18.9507    7.3211 H   0  0  0  0  0  0  0  0  0  0  0  0  # atno 641  bound_to 637 
   16.3016   12.6054    6.1562 H   0  0  0  0  0  0  0  0  0  0  0  0  # atno 681  bound_to 677 
   19.4324   11.8387   -0.7547 H   0  0  0  0  0  0  0  0  0  0  0  0  # atno 702  bound_to 698 
   -6.4529   16.5631   -1.5618 H   0  0  0  0  0  0  0  0  0  0  0  0  # atno 965  bound_to 957 
    1.1639   12.2420   10.9451 H   0  0  0  0  0  0  0  0  0  0  0  0  # atno 1886 bound_to 1878
    9.4945    2.1378   -2.6041 H   0  0  0  0  0  0  0  0  0  0  0  0  # atno 2577 bound_to 2569
    8.3253    6.0057    0.2150 H   0  0  0  0  0  0  0  0  0  0  0  0  # atno 2891 bound_to 2887
   17.9403    1.9452   -0.6476 H   0  0  0  0  0  0  0  0  0  0  0  0  # atno 3175 bound_to 3171
   13.4790    9.8108   10.4826 H   0  0  0  0  0  0  0  0  0  0  0  0  # atno 5278 bound_to 5270
   15.7704   13.4791    7.3771 LP  0  0  0  0  0  0  0  0  0  0  0  0  # atno 5914 bound_to 677 
   17.2459   13.7509    6.7325 LP  0  0  0  0  0  0  0  0  0  0  0  0  # atno 5915 bound_to 677 
   20.9895   11.5427   -0.5962 LP  0  0  0  0  0  0  0  0  0  0  0  0  # atno 5920 bound_to 698 
   20.3120   11.6914   -2.0745 LP  0  0  0  0  0  0  0  0  0  0  0  0  # atno 5921 bound_to 698 
   10.0116    3.4015   -3.4232 LP  0  0  0  0  0  0  0  0  0  0  0  0  # atno 5950 bound_to 2569
   11.0620    2.4118   -2.6591 LP  0  0  0  0  0  0  0  0  0  0  0  0  # atno 5951 bound_to 2569
    7.3260    5.2872    1.2257 LP  0  0  0  0  0  0  0  0  0  0  0  0  # atno 5982 bound_to 2887
    7.5870    6.8970    1.3091 LP  0  0  0  0  0  0  0  0  0  0  0  0  # atno 5983 bound_to 2887
   19.1510    2.7846   -1.2518 LP  0  0  0  0  0  0  0  0  0  0  0  0  # atno 6000 bound_to 3171
   18.8567    2.7770    0.3544 LP  0  0  0  0  0  0  0  0  0  0  0  0  # atno 6001 bound_to 3171
   14.3724   10.1192    9.2006 LP  0  0  0  0  0  0  0  0  0  0  0  0  # atno 6004 bound_to 5270
   12.7422   10.1255    9.1060 LP  0  0  0  0  0  0  0  0  0  0  0  0  # atno 6005 bound_to 5270
   11.0815   19.6613    8.7107 LP  0  0  0  0  0  0  0  0  0  0  0  0  # atno 6055 bound_to 637 
    9.5438   19.4819    8.1912 LP  0  0  0  0  0  0  0  0  0  0  0  0  # atno 6056 bound_to 637 
    2.2878   11.3102   10.3097 LP  0  0  0  0  0  0  0  0  0  0  0  0  # atno 6063 bound_to 1878
    0.8722   10.6812   10.8265 LP  0  0  0  0  0  0  0  0  0  0  0  0  # atno 6064 bound_to 1878
   -7.1111   16.8849   -0.1482 LP  0  0  0  0  0  0  0  0  0  0  0  0  # atno 6067 bound_to 957 
   -6.9008   15.3428   -0.6425 LP  0  0  0  0  0  0  0  0  0  0  0  0  # atno 6068 bound_to 957 

>  <STRIFE_LigEff_Score>  (19) 
2.8955470588235293

$$$$
unknown|pharmsElabsTestPreDocking|sdf|28|dock1
     RDKit          3D

 19 20  0  0  0  0  0  0  0  0999 V2000
   14.0016    9.8351    1.0205 C   0  0  0  0  0  0  0  0  0  0  0  0
   13.6360    8.5110    1.6892 C   0  0  0  0  0  0  0  0  0  0  0  0
   13.9148    7.3606    0.8270 N   0  0  0  0  0  0  0  0  0  0  0  0
   12.2662    8.3987    2.4029 C   0  0  0  0  0  0  0  0  0  0  0  0
   11.2976    7.4170    1.7275 C   0  0  0  0  0  0  0  0  0  0  0  0
    9.8251    7.5767    2.0684 C   0  0  0  0  0  0  0  0  0  0  0  0
    9.3967    9.0207    2.1381 C   0  0  0  0  0  0  0  0  0  0  0  0
    7.9092    9.2165    2.1499 C   0  0  0  0  0  0  0  0  0  0  0  0
    7.2544    8.2386    2.5872 O   0  0  0  0  0  0  0  0  0  0  0  0
    7.1984   10.3847    1.7025 N   0  0  0  0  0  0  0  0  0  0  0  0
    5.7278   10.3391    1.6852 C   0  0  0  0  0  0  0  0  0  0  0  0
    5.1554   10.0997    3.0493 C   0  0  0  0  0  0  0  0  0  0  0  0
    5.9447   10.3052    4.1915 C   0  0  0  0  0  0  0  0  0  0  0  0
    5.4050   10.0971    5.4635 C   0  0  0  0  0  0  0  0  0  0  0  0
    4.0763    9.6857    5.6016 C   0  0  0  0  0  0  0  0  0  0  0  0
    3.2861    9.4781    4.4674 C   0  0  0  0  0  0  0  0  0  0  0  0
    3.8221    9.6850    3.1934 C   0  0  0  0  0  0  0  0  0  0  0  0
   10.2165    9.9219    3.0184 C   0  0  0  0  0  0  0  0  0  0  0  0
   11.7113    9.8116    2.7257 C   0  0  0  0  0  0  0  0  0  0  0  0
  1  2  1  0
  2  3  1  0
  2  4  1  0
  4  5  1  0
  5  6  1  0
  6  7  1  0
  7  8  1  0
  8  9  2  0
  8 10  1  0
 10 11  1  0
 11 12  1  0
 12 13  2  0
 13 14  1  0
 14 15  2  0
 15 16  1  0
 16 17  2  0
  7 18  1  0
 18 19  1  0
 19  4  1  0
 17 12  1  0
M  CHG  1   3   1
M  END
>  <EmbedRMS>  (20) 
0.2846631031672363

>  <Gold.Version>  (20) 
2020.3.0

>  <Gold.Id.Protein>  (20) 
unknown|1q8t_protein|pdb

>  <Gold.PLP.Fitness>  (20) 
56.8233

>  <Gold.PLP.PLP>  (20) 
-47.5649

>  <Gold.PLP.part.hbond>  (20) 
-3.0000

>  <Gold.PLP.part.metal>  (20) 
0.0000

>  <Gold.PLP.part.buried>  (20) 
2.4615

>  <Gold.PLP.part.nonpolar>  (20) 
-48.4658

>  <Gold.PLP.part.repulsive>  (20) 
0.0429

>  <Gold.PLP.ligand.clash>  (20) 
0.0000

>  <Gold.PLP.ligand.torsion>  (20) 
1.6816

>  <Gold.PLP.Chemscore.Hbond>  (20) 
4.0000

>  <Gold.PLP.Chemscore.CHOScore>  (20) 
0.0000

>  <Gold.PLP.Chemscore.Metal>  (20) 
0.0000

>  <Gold.Chemscore.Hbonds>  (20) 
donor molecule, donor type, donor heavy atom, donor atom, acceptor molecule, acceptor atom, score
      L1  H     3    24       P1  2902  2.00
      L1  H     3    26       P1  2691  1.00
      P1  H  2887  2891       L1     9  1.00

>  <Gold.PLP.Chemscore.Internal.Correction>  (20) 
0.6217

>  <Gold.PLP.Constraint>  (20) 
-0.0000

>  <Gold.Protein.RotatedTorsions>  (20) 
[  681  677  676  673 ] final   34.35 input -179.99 | X-H torsion
[  702  698  697  694 ] final   -7.91 input  179.99 | X-H torsion
[ 2577 2569 2568 2566 ] final -101.76 input   -0.13 | X-H torsion
[ 2891 2887 2886 2883 ] final  160.43 input  179.98 | X-H torsion
[ 3175 3171 3170 3167 ] final  -36.29 input -179.99 | X-H torsion
[ 5278 5270 5269 5267 ] final    9.90 input    0.55 | X-H torsion
[  641  637  636  633 ] final  -47.64 input  179.99 | X-H torsion
[ 1886 1878 1877 1875 ] final  -94.16 input    1.60 | X-H torsion
[  965  957  956  954 ] final   84.27 input    0.45 | X-H torsion

>  <Gold.Protein.ActiveResidues>  (20) 
 LYS47   THR48   LEU49   GLY50   THR51   GLY52   SER53   PHE54   GLY55   ARG56  
 VAL57   MET58   LEU59   TYR69   ALA70   MET71   LYS72   ILE73   LEU74   GLU91  
 LEU95   VAL104  LYS105  MET118  VAL119  MET120  GLU121  TYR122  VAL123  PRO124 
 GLY125  GLY126  GLU127  MET128  PHE129  TYR164  ASP166  LEU167  LYS168  PRO169 
 GLU170  ASN171  LEU172  LEU173  ILE174  GLN181  VAL182  THR183  ASP184  PHE185 
 GLY186  PHE187  GLY200  THR201  ASN326  PHE327  TYR330  ARG18   ARG19   ASN20  
 ALA21   ILE22   HIS23  

>  <Gold.Protein.RotatedAtoms>  (20) 
    9.9817   19.0279    7.3864 H   0  0  0  0  0  0  0  0  0  0  0  0  # atno 641  bound_to 637 
   16.3047   12.6060    6.1548 H   0  0  0  0  0  0  0  0  0  0  0  0  # atno 681  bound_to 677 
   19.5691   11.8103   -0.5420 H   0  0  0  0  0  0  0  0  0  0  0  0  # atno 702  bound_to 698 
   -7.1555   15.9561   -0.0308 H   0  0  0  0  0  0  0  0  0  0  0  0  # atno 965  bound_to 957 
    1.2153   10.5599   10.6356 H   0  0  0  0  0  0  0  0  0  0  0  0  # atno 1886 bound_to 1878
   11.0368    2.8687   -2.9985 H   0  0  0  0  0  0  0  0  0  0  0  0  # atno 2577 bound_to 2569
    7.5968    6.8670    1.2650 H   0  0  0  0  0  0  0  0  0  0  0  0  # atno 2891 bound_to 2887
   19.3521    2.9767   -0.7559 H   0  0  0  0  0  0  0  0  0  0  0  0  # atno 3175 bound_to 3171
   12.6376    9.9982    9.6872 H   0  0  0  0  0  0  0  0  0  0  0  0  # atno 5278 bound_to 5270
   15.7683   13.4764    7.3757 LP  0  0  0  0  0  0  0  0  0  0  0  0  # atno 5914 bound_to 677 
   17.2447   13.7530    6.7353 LP  0  0  0  0  0  0  0  0  0  0  0  0  # atno 5915 bound_to 677 
   21.1088   11.5262   -0.8352 LP  0  0  0  0  0  0  0  0  0  0  0  0  # atno 5920 bound_to 698 
   20.0489   11.7377   -2.0593 LP  0  0  0  0  0  0  0  0  0  0  0  0  # atno 5921 bound_to 698 
    9.9509    1.8853   -2.3749 LP  0  0  0  0  0  0  0  0  0  0  0  0  # atno 5950 bound_to 2569
    9.4989    3.1585   -3.2921 LP  0  0  0  0  0  0  0  0  0  0  0  0  # atno 5951 bound_to 2569
    8.3641    5.9783    0.1889 LP  0  0  0  0  0  0  0  0  0  0  0  0  # atno 5982 bound_to 2887
    7.3155    5.2995    1.2408 LP  0  0  0  0  0  0  0  0  0  0  0  0  # atno 5983 bound_to 2887
   18.3886    2.4350    0.3903 LP  0  0  0  0  0  0  0  0  0  0  0  0  # atno 6000 bound_to 3171
   18.1333    2.0411   -1.1738 LP  0  0  0  0  0  0  0  0  0  0  0  0  # atno 6001 bound_to 3171
   14.0705    9.8296   10.3617 LP  0  0  0  0  0  0  0  0  0  0  0  0  # atno 6004 bound_to 5270
   13.9294   10.2178    8.7818 LP  0  0  0  0  0  0  0  0  0  0  0  0  # atno 6005 bound_to 5270
   11.4099   19.2984    8.0360 LP  0  0  0  0  0  0  0  0  0  0  0  0  # atno 6055 bound_to 637 
   10.0421   19.7634    8.7971 LP  0  0  0  0  0  0  0  0  0  0  0  0  # atno 6056 bound_to 637 
    0.8307   12.0408   11.0766 LP  0  0  0  0  0  0  0  0  0  0  0  0  # atno 6063 bound_to 1878
    2.2753   11.7214   10.3853 LP  0  0  0  0  0  0  0  0  0  0  0  0  # atno 6064 bound_to 1878
   -6.5239   15.6685   -1.4638 LP  0  0  0  0  0  0  0  0  0  0  0  0  # atno 6067 bound_to 957 
   -6.7481   17.1986   -0.9393 LP  0  0  0  0  0  0  0  0  0  0  0  0  # atno 6068 bound_to 957 

>  <STRIFE_LigEff_Score>  (20) 
2.9907000000000004

$$$$
unknown|pharmsElabsTestPreDocking|sdf|29|dock8
     RDKit          3D

 16 17  0  0  0  0  0  0  0  0999 V2000
   14.2907    9.3530    1.4159 C   0  0  0  0  0  0  0  0  0  0  0  0
   13.3903    8.1639    1.7080 C   0  0  0  0  0  0  0  0  0  0  0  0
   13.6278    6.9960    0.8668 N   0  0  0  0  0  0  0  0  0  0  0  0
   11.9129    8.4752    2.1051 C   0  0  0  0  0  0  0  0  0  0  0  0
   11.0750    7.3328    2.7002 C   0  0  0  0  0  0  0  0  0  0  0  0
    9.5685    7.6693    2.6761 C   0  0  0  0  0  0  0  0  0  0  0  0
    9.2511    9.1652    2.6676 C   0  0  0  0  0  0  0  0  0  0  0  0
    7.7859    9.5088    2.7969 C   0  0  0  0  0  0  0  0  0  0  0  0
    7.1742    9.7049    1.7235 O   0  0  0  0  0  0  0  0  0  0  0  0
    7.0215    9.4868    4.0015 N   0  0  0  0  0  0  0  0  0  0  0  0
    5.6214    9.8348    4.0133 C   0  0  0  0  0  0  0  0  0  0  0  0
    4.5269    9.1863    3.2113 C   0  0  0  0  0  0  0  0  0  0  0  0
    3.6006    9.5977    4.3663 C   0  0  0  0  0  0  0  0  0  0  0  0
    4.8145    9.8005    5.2787 C   0  0  0  0  0  0  0  0  0  0  0  0
   10.2765   10.1668    3.1882 C   0  0  0  0  0  0  0  0  0  0  0  0
   11.7492    9.7403    2.9735 C   0  0  0  0  0  0  0  0  0  0  0  0
  1  2  1  0
  2  3  1  0
  2  4  1  0
  4  5  1  0
  5  6  1  0
  6  7  1  0
  7  8  1  0
  8  9  2  0
  8 10  1  0
 10 11  1  0
 11 12  1  0
 12 13  1  0
 13 14  1  0
  7 15  1  0
 15 16  1  0
 16  4  1  0
 14 11  1  0
M  CHG  1   3   1
M  END
>  <EmbedRMS>  (21) 
0.37649910497839056

>  <Gold.Version>  (21) 
2020.3.0

>  <Gold.Id.Protein>  (21) 
unknown|1q8t_protein|pdb

>  <Gold.PLP.Fitness>  (21) 
47.6429

>  <Gold.PLP.PLP>  (21) 
-38.9555

>  <Gold.PLP.part.hbond>  (21) 
-1.8830

>  <Gold.PLP.part.metal>  (21) 
0.0000

>  <Gold.PLP.part.buried>  (21) 
-3.1866

>  <Gold.PLP.part.nonpolar>  (21) 
-33.8746

>  <Gold.PLP.part.repulsive>  (21) 
0.0655

>  <Gold.PLP.ligand.clash>  (21) 
0.0000

>  <Gold.PLP.ligand.torsion>  (21) 
0.5936

>  <Gold.PLP.Chemscore.Hbond>  (21) 
2.9600

>  <Gold.PLP.Chemscore.CHOScore>  (21) 
0.0000

>  <Gold.PLP.Chemscore.Metal>  (21) 
0.0000

>  <Gold.Chemscore.Hbonds>  (21) 
donor molecule, donor type, donor heavy atom, donor atom, acceptor molecule, acceptor atom, score
      L1  H     3    21       P1  2902  2.00
      L1  H     3    23       P1  2691  0.96

>  <Gold.PLP.Chemscore.Internal.Correction>  (21) 
0.9947

>  <Gold.PLP.Constraint>  (21) 
-0.0000

>  <Gold.Protein.RotatedTorsions>  (21) 
[  681  677  676  673 ] final  -52.59 input -179.99 | X-H torsion
[  702  698  697  694 ] final   82.63 input  179.99 | X-H torsion
[ 2577 2569 2568 2566 ] final   -6.09 input   -0.13 | X-H torsion
[ 2891 2887 2886 2883 ] final  137.23 input  179.98 | X-H torsion
[ 3175 3171 3170 3167 ] final  -76.08 input -179.99 | X-H torsion
[ 5278 5270 5269 5267 ] final -174.16 input    0.55 | X-H torsion
[  641  637  636  633 ] final  171.48 input  179.99 | X-H torsion
[ 1886 1878 1877 1875 ] final  160.54 input    1.60 | X-H torsion
[  965  957  956  954 ] final   76.78 input    0.45 | X-H torsion

>  <Gold.Protein.ActiveResidues>  (21) 
 LYS47   THR48   LEU49   GLY50   THR51   GLY52   SER53   PHE54   GLY55   ARG56  
 VAL57   MET58   LEU59   TYR69   ALA70   MET71   LYS72   ILE73   LEU74   GLU91  
 LEU95   VAL104  LYS105  MET118  VAL119  MET120  GLU121  TYR122  VAL123  PRO124 
 GLY125  GLY126  GLU127  MET128  PHE129  TYR164  ASP166  LEU167  LYS168  PRO169 
 GLU170  ASN171  LEU172  LEU173  ILE174  GLN181  VAL182  THR183  ASP184  PHE185 
 GLY186  PHE187  GLY200  THR201  ASN326  PHE327  TYR330  ARG18   ARG19   ASN20  
 ALA21   ILE22   HIS23  

>  <Gold.Protein.RotatedAtoms>  (21) 
   11.3197   19.4351    8.3302 H   0  0  0  0  0  0  0  0  0  0  0  0  # atno 641  bound_to 637 
   15.6169   13.0868    7.0576 H   0  0  0  0  0  0  0  0  0  0  0  0  # atno 681  bound_to 677 
   19.6573   11.8192   -1.8124 H   0  0  0  0  0  0  0  0  0  0  0  0  # atno 702  bound_to 698 
   -7.1364   15.8494   -0.0748 H   0  0  0  0  0  0  0  0  0  0  0  0  # atno 965  bound_to 957 
    0.7251   11.8250   11.0674 H   0  0  0  0  0  0  0  0  0  0  0  0  # atno 1886 bound_to 1878
    9.8464    3.3069   -3.3901 H   0  0  0  0  0  0  0  0  0  0  0  0  # atno 2577 bound_to 2569
    7.8357    6.9487    1.0080 H   0  0  0  0  0  0  0  0  0  0  0  0  # atno 2891 bound_to 2887
   19.2777    3.0008   -0.1513 H   0  0  0  0  0  0  0  0  0  0  0  0  # atno 3175 bound_to 3171
   14.4151   10.0679    9.4800 H   0  0  0  0  0  0  0  0  0  0  0  0  # atno 5278 bound_to 5270
   16.9453   13.9622    7.1282 LP  0  0  0  0  0  0  0  0  0  0  0  0  # atno 5914 bound_to 677 
   16.7915   12.7611    6.0327 LP  0  0  0  0  0  0  0  0  0  0  0  0  # atno 5915 bound_to 677 
   19.9229   11.7250   -0.2447 LP  0  0  0  0  0  0  0  0  0  0  0  0  # atno 5920 bound_to 698 
   21.1420   11.5295   -1.3134 LP  0  0  0  0  0  0  0  0  0  0  0  0  # atno 5921 bound_to 698 
   11.1084    2.5660   -2.7627 LP  0  0  0  0  0  0  0  0  0  0  0  0  # atno 5950 bound_to 2569
    9.5947    2.0164   -2.4920 LP  0  0  0  0  0  0  0  0  0  0  0  0  # atno 5951 bound_to 2569
    8.2503    5.6195    0.2348 LP  0  0  0  0  0  0  0  0  0  0  0  0  # atno 5982 bound_to 2887
    7.1780    5.5723    1.4655 LP  0  0  0  0  0  0  0  0  0  0  0  0  # atno 5983 bound_to 2887
   17.9850    2.0890    0.0309 LP  0  0  0  0  0  0  0  0  0  0  0  0  # atno 6000 bound_to 3171
   18.6152    2.3617   -1.4506 LP  0  0  0  0  0  0  0  0  0  0  0  0  # atno 6001 bound_to 3171
   12.9369   10.1789    8.8975 LP  0  0  0  0  0  0  0  0  0  0  0  0  # atno 6004 bound_to 5270
   13.1928    9.7952   10.4640 LP  0  0  0  0  0  0  0  0  0  0  0  0  # atno 6005 bound_to 5270
    9.7710   19.6810    8.6059 LP  0  0  0  0  0  0  0  0  0  0  0  0  # atno 6055 bound_to 637 
   10.2719   18.9520    7.2332 LP  0  0  0  0  0  0  0  0  0  0  0  0  # atno 6056 bound_to 637 
    2.1922   11.9359   10.4585 LP  0  0  0  0  0  0  0  0  0  0  0  0  # atno 6063 bound_to 1878
    1.4298   10.4946   10.5488 LP  0  0  0  0  0  0  0  0  0  0  0  0  # atno 6064 bound_to 1878
   -6.4933   15.7683   -1.5290 LP  0  0  0  0  0  0  0  0  0  0  0  0  # atno 6067 bound_to 957 
   -6.7987   17.2111   -0.8277 LP  0  0  0  0  0  0  0  0  0  0  0  0  # atno 6068 bound_to 957 

>  <STRIFE_LigEff_Score>  (21) 
2.97768125

$$$$
unknown|pharmsElabsTestPreDocking|sdf|2|dock4
     RDKit          3D

 18 19  0  0  0  0  0  0  0  0999 V2000
   13.9067    9.3299    1.4884 C   0  0  0  0  0  0  0  0  0  0  0  0
   13.1099    8.1158    1.9628 C   0  0  0  0  0  0  0  0  0  0  0  0
   12.9763    7.0993    0.9171 N   0  0  0  0  0  0  0  0  0  0  0  0
   11.7852    8.3561    2.7291 C   0  0  0  0  0  0  0  0  0  0  0  0
   10.7570    7.2286    2.5544 C   0  0  0  0  0  0  0  0  0  0  0  0
    9.3110    7.5735    2.8761 C   0  0  0  0  0  0  0  0  0  0  0  0
    8.9139    8.9436    2.3853 C   0  0  0  0  0  0  0  0  0  0  0  0
    7.4313    9.1953    2.3924 C   0  0  0  0  0  0  0  0  0  0  0  0
    6.9891    9.7161    1.3412 O   0  0  0  0  0  0  0  0  0  0  0  0
    6.5239    8.9262    3.4815 N   0  0  0  0  0  0  0  0  0  0  0  0
    5.0891    9.0616    3.3281 C   0  0  0  0  0  0  0  0  0  0  0  0
    4.4449    8.8686    2.1579 N   0  0  0  0  0  0  0  0  0  0  0  0
    3.1588    9.1358    2.4868 C   0  0  0  0  0  0  0  0  0  0  0  0
    3.0195    9.4906    3.7791 N   0  0  0  0  0  0  0  0  0  0  0  0
    4.2326    9.4491    4.3001 N   0  0  0  0  0  0  0  0  0  0  0  0
    4.5269    9.8847    5.6611 C   0  0  0  0  0  0  0  0  0  0  0  0
    9.8078   10.0839    2.7858 C   0  0  0  0  0  0  0  0  0  0  0  0
   11.2781    9.8018    2.4841 C   0  0  0  0  0  0  0  0  0  0  0  0
  1  2  1  0
  2  3  1  0
  2  4  1  0
  4  5  1  0
  5  6  1  0
  6  7  1  0
  7  8  1  0
  8  9  2  0
  8 10  1  0
 10 11  1  0
 11 12  2  0
 12 13  1  0
 13 14  2  0
 14 15  1  0
 15 16  1  0
  7 17  1  0
 17 18  1  0
 18  4  1  0
 15 11  1  0
M  CHG  1   3   1
M  END
>  <EmbedRMS>  (22) 
0.293000697254303

>  <Gold.Version>  (22) 
2020.3.0

>  <Gold.Id.Protein>  (22) 
unknown|1q8t_protein|pdb

>  <Gold.PLP.Fitness>  (22) 
50.4818

>  <Gold.PLP.PLP>  (22) 
-40.1168

>  <Gold.PLP.part.hbond>  (22) 
-2.5260

>  <Gold.PLP.part.metal>  (22) 
0.0000

>  <Gold.PLP.part.buried>  (22) 
-3.6563

>  <Gold.PLP.part.nonpolar>  (22) 
-34.8955

>  <Gold.PLP.part.repulsive>  (22) 
0.2233

>  <Gold.PLP.ligand.clash>  (22) 
0.0000

>  <Gold.PLP.ligand.torsion>  (22) 
1.8449

>  <Gold.PLP.Chemscore.Hbond>  (22) 
3.4880

>  <Gold.PLP.Chemscore.CHOScore>  (22) 
0.9940

>  <Gold.PLP.Chemscore.Metal>  (22) 
0.0000

>  <Gold.Chemscore.Hbonds>  (22) 
donor molecule, donor type, donor heavy atom, donor atom, acceptor molecule, acceptor atom, score
      L1  H     3    23       P1  2691  0.51
      L1  H     3    25       P1  2902  2.00
      P1  H  1888  1903       L1    14  0.98
      L1  C    13    33       P1  1855  0.99

>  <Gold.PLP.Chemscore.Internal.Correction>  (22) 
0.6088

>  <Gold.PLP.Constraint>  (22) 
-0.0000

>  <Gold.Protein.RotatedTorsions>  (22) 
[  681  677  676  673 ] final -121.62 input -179.99 | X-H torsion
[  702  698  697  694 ] final -116.18 input  179.99 | X-H torsion
[ 2577 2569 2568 2566 ] final  -87.04 input   -0.13 | X-H torsion
[ 2891 2887 2886 2883 ] final   48.88 input  179.98 | X-H torsion
[ 3175 3171 3170 3167 ] final  -50.77 input -179.99 | X-H torsion
[ 5278 5270 5269 5267 ] final   18.21 input    0.55 | X-H torsion
[  641  637  636  633 ] final  -21.45 input  179.99 | X-H torsion
[ 1886 1878 1877 1875 ] final  -17.11 input    1.60 | X-H torsion
[  965  957  956  954 ] final  169.26 input    0.45 | X-H torsion

>  <Gold.Protein.ActiveResidues>  (22) 
 LYS47   THR48   LEU49   GLY50   THR51   GLY52   SER53   PHE54   GLY55   ARG56  
 VAL57   MET58   LEU59   TYR69   ALA70   MET71   LYS72   ILE73   LEU74   GLU91  
 LEU95   VAL104  LYS105  MET118  VAL119  MET120  GLU121  TYR122  VAL123  PRO124 
 GLY125  GLY126  GLU127  MET128  PHE129  TYR164  ASP166  LEU167  LYS168  PRO169 
 GLU170  ASN171  LEU172  LEU173  ILE174  GLN181  VAL182  THR183  ASP184  PHE185 
 GLY186  PHE187  GLY200  THR201  ASN326  PHE327  TYR330  ARG18   ARG19   ASN20  
 ALA21   ILE22   HIS23  

>  <Gold.Protein.RotatedAtoms>  (22) 
    9.7008   19.1732    7.6403 H   0  0  0  0  0  0  0  0  0  0  0  0  # atno 641  bound_to 637 
   16.2194   13.8222    7.4134 H   0  0  0  0  0  0  0  0  0  0  0  0  # atno 681  bound_to 677 
   20.9932   11.5606   -0.6830 H   0  0  0  0  0  0  0  0  0  0  0  0  # atno 702  bound_to 698 
   -6.9584   17.0772   -0.4403 H   0  0  0  0  0  0  0  0  0  0  0  0  # atno 965  bound_to 957 
    2.1555   11.0623   10.3067 H   0  0  0  0  0  0  0  0  0  0  0  0  # atno 1886 bound_to 1878
   10.9456    3.0384   -3.1231 H   0  0  0  0  0  0  0  0  0  0  0  0  # atno 2577 bound_to 2569
    8.3385    6.1154    0.2259 H   0  0  0  0  0  0  0  0  0  0  0  0  # atno 2891 bound_to 2887
   19.3646    3.0151   -0.5337 H   0  0  0  0  0  0  0  0  0  0  0  0  # atno 3175 bound_to 3171
   12.6358   10.0293    9.5611 H   0  0  0  0  0  0  0  0  0  0  0  0  # atno 5278 bound_to 5270
   17.2731   13.3489    6.3171 LP  0  0  0  0  0  0  0  0  0  0  0  0  # atno 5914 bound_to 677 
   15.8297   12.6004    6.4692 LP  0  0  0  0  0  0  0  0  0  0  0  0  # atno 5915 bound_to 677 
   20.2378   11.7046   -2.0780 LP  0  0  0  0  0  0  0  0  0  0  0  0  # atno 5920 bound_to 698 
   19.4219   11.8220   -0.6682 LP  0  0  0  0  0  0  0  0  0  0  0  0  # atno 5921 bound_to 698 
   10.1904    1.8709   -2.3474 LP  0  0  0  0  0  0  0  0  0  0  0  0  # atno 5950 bound_to 2569
    9.3553    2.9941   -3.1885 LP  0  0  0  0  0  0  0  0  0  0  0  0  # atno 5951 bound_to 2569
    7.3851    5.2291    1.1434 LP  0  0  0  0  0  0  0  0  0  0  0  0  # atno 5982 bound_to 2887
    7.5139    6.8397    1.3800 LP  0  0  0  0  0  0  0  0  0  0  0  0  # atno 5983 bound_to 2887
   18.2165    2.2961    0.3032 LP  0  0  0  0  0  0  0  0  0  0  0  0  # atno 6000 bound_to 3171
   18.2922    2.1396   -1.3205 LP  0  0  0  0  0  0  0  0  0  0  0  0  # atno 6001 bound_to 3171
   13.9531    9.8117   10.4294 LP  0  0  0  0  0  0  0  0  0  0  0  0  # atno 6004 bound_to 5270
   14.0487   10.2030    8.8469 LP  0  0  0  0  0  0  0  0  0  0  0  0  # atno 6005 bound_to 5270
   11.2917   19.1170    7.6678 LP  0  0  0  0  0  0  0  0  0  0  0  0  # atno 6055 bound_to 637 
   10.4562   19.7918    8.8979 LP  0  0  0  0  0  0  0  0  0  0  0  0  # atno 6056 bound_to 637 
    0.7036   10.8818   10.9350 LP  0  0  0  0  0  0  0  0  0  0  0  0  # atno 6063 bound_to 1878
    1.4125   12.3516   10.8732 LP  0  0  0  0  0  0  0  0  0  0  0  0  # atno 6064 bound_to 1878
   -7.0480   15.4924   -0.3161 LP  0  0  0  0  0  0  0  0  0  0  0  0  # atno 6067 bound_to 957 
   -6.4316   16.1939   -1.6557 LP  0  0  0  0  0  0  0  0  0  0  0  0  # atno 6068 bound_to 957 

>  <STRIFE_LigEff_Score>  (22) 
2.8045444444444443

$$$$
unknown|pharmsElabsTestPreDocking|sdf|30|dock7
     RDKit          3D

 17 17  0  0  0  0  0  0  0  0999 V2000
    3.6040    8.9565    1.8692 C   0  0  0  0  0  0  0  0  0  0  0  0
    4.8805    9.3418    1.9393 C   0  0  0  0  0  0  0  0  0  0  0  0
    5.6922    9.4345    3.1775 C   0  0  0  0  0  0  0  0  0  0  0  0
    5.1307    9.9090    4.3158 C   0  0  0  0  0  0  0  0  0  0  0  0
    5.8763   10.1089    5.6000 C   0  0  0  0  0  0  0  0  0  0  0  0
    7.1137    9.1468    3.1613 N   0  0  0  0  0  0  0  0  0  0  0  0
    8.1255    9.2245    2.1295 C   0  0  0  0  0  0  0  0  0  0  0  0
    7.7682    9.6925    1.0178 O   0  0  0  0  0  0  0  0  0  0  0  0
    9.5934    8.9029    2.2011 C   0  0  0  0  0  0  0  0  0  0  0  0
    9.9008    7.4549    2.5435 C   0  0  0  0  0  0  0  0  0  0  0  0
   11.3562    7.0798    2.3544 C   0  0  0  0  0  0  0  0  0  0  0  0
   12.4114    8.1507    2.6489 C   0  0  0  0  0  0  0  0  0  0  0  0
   13.7724    7.8544    1.9719 C   0  0  0  0  0  0  0  0  0  0  0  0
   14.7581    9.0081    1.7861 C   0  0  0  0  0  0  0  0  0  0  0  0
   13.6337    7.0431    0.7615 N   0  0  0  0  0  0  0  0  0  0  0  0
   12.0012    9.6221    2.3932 C   0  0  0  0  0  0  0  0  0  0  0  0
   10.5434    9.9853    2.6417 C   0  0  0  0  0  0  0  0  0  0  0  0
  1  2  2  0
  2  3  1  0
  3  4  2  0
  4  5  1  0
  3  6  1  0
  6  7  1  0
  7  8  2  0
  7  9  1  0
  9 10  1  0
 10 11  1  0
 11 12  1  0
 12 13  1  0
 13 14  1  0
 13 15  1  0
 12 16  1  0
 16 17  1  0
 17  9  1  0
M  CHG  1  15   1
M  END
>  <EmbedRMS>  (23) 
0.29216731409503444

>  <Gold.Version>  (23) 
2020.3.0

>  <Gold.Id.Protein>  (23) 
unknown|1q8t_protein|pdb

>  <Gold.PLP.Fitness>  (23) 
45.6966

>  <Gold.PLP.PLP>  (23) 
-39.1306

>  <Gold.PLP.part.hbond>  (23) 
-1.9835

>  <Gold.PLP.part.metal>  (23) 
0.0000

>  <Gold.PLP.part.buried>  (23) 
-1.8368

>  <Gold.PLP.part.nonpolar>  (23) 
-35.7971

>  <Gold.PLP.part.repulsive>  (23) 
0.0643

>  <Gold.PLP.ligand.clash>  (23) 
0.0000

>  <Gold.PLP.ligand.torsion>  (23) 
1.6675

>  <Gold.PLP.Chemscore.Hbond>  (23) 
3.0000

>  <Gold.PLP.Chemscore.CHOScore>  (23) 
0.0000

>  <Gold.PLP.Chemscore.Metal>  (23) 
0.0000

>  <Gold.Chemscore.Hbonds>  (23) 
donor molecule, donor type, donor heavy atom, donor atom, acceptor molecule, acceptor atom, score
      L1  H    15    36       P1  2902  2.00
      L1  H    15    37       P1  2691  1.00

>  <Gold.PLP.Chemscore.Internal.Correction>  (23) 
0.9011

>  <Gold.PLP.Constraint>  (23) 
-0.0000

>  <Gold.Protein.RotatedTorsions>  (23) 
[  681  677  676  673 ] final -111.27 input -179.99 | X-H torsion
[  702  698  697  694 ] final  129.22 input  179.99 | X-H torsion
[ 2577 2569 2568 2566 ] final  147.09 input   -0.13 | X-H torsion
[ 2891 2887 2886 2883 ] final -135.54 input  179.98 | X-H torsion
[ 3175 3171 3170 3167 ] final -173.24 input -179.99 | X-H torsion
[ 5278 5270 5269 5267 ] final  144.11 input    0.55 | X-H torsion
[  641  637  636  633 ] final  161.88 input  179.99 | X-H torsion
[ 1886 1878 1877 1875 ] final   45.95 input    1.60 | X-H torsion
[  965  957  956  954 ] final  -76.24 input    0.45 | X-H torsion

>  <Gold.Protein.ActiveResidues>  (23) 
 LYS47   THR48   LEU49   GLY50   THR51   GLY52   SER53   PHE54   GLY55   ARG56  
 VAL57   MET58   LEU59   TYR69   ALA70   MET71   LYS72   ILE73   LEU74   GLU91  
 LEU95   VAL104  LYS105  MET118  VAL119  MET120  GLU121  TYR122  VAL123  PRO124 
 GLY125  GLY126  GLU127  MET128  PHE129  TYR164  ASP166  LEU167  LYS168  PRO169 
 GLU170  ASN171  LEU172  LEU173  ILE174  GLN181  VAL182  THR183  ASP184  PHE185 
 GLY186  PHE187  GLY200  THR201  ASN326  PHE327  TYR330  ARG18   ARG19   ASN20  
 ALA21   ILE22   HIS23  

>  <Gold.Protein.RotatedAtoms>  (23) 
   11.2620   19.5005    8.4521 H   0  0  0  0  0  0  0  0  0  0  0  0  # atno 641  bound_to 637 
   16.0807   13.7395    7.4174 H   0  0  0  0  0  0  0  0  0  0  0  0  # atno 681  bound_to 677 
   20.3232   11.7053   -2.0267 H   0  0  0  0  0  0  0  0  0  0  0  0  # atno 702  bound_to 698 
   -6.4345   16.2835   -1.6080 H   0  0  0  0  0  0  0  0  0  0  0  0  # atno 965  bound_to 957 
    2.1065   11.9804   10.4850 H   0  0  0  0  0  0  0  0  0  0  0  0  # atno 1886 bound_to 1878
   10.0994    1.8999   -2.3945 H   0  0  0  0  0  0  0  0  0  0  0  0  # atno 2577 bound_to 2569
    7.1646    6.0808    1.5773 H   0  0  0  0  0  0  0  0  0  0  0  0  # atno 2891 bound_to 2887
   18.2219    2.2706    0.2447 H   0  0  0  0  0  0  0  0  0  0  0  0  # atno 3175 bound_to 3171
   14.0971   10.1973    8.9419 H   0  0  0  0  0  0  0  0  0  0  0  0  # atno 5278 bound_to 5270
   17.2995   13.4761    6.4268 LP  0  0  0  0  0  0  0  0  0  0  0  0  # atno 5914 bound_to 677 
   15.9494   12.5602    6.3553 LP  0  0  0  0  0  0  0  0  0  0  0  0  # atno 5915 bound_to 677 
   19.3825   11.8305   -0.7474 LP  0  0  0  0  0  0  0  0  0  0  0  0  # atno 5920 bound_to 698 
   20.9819   11.5439   -0.5853 LP  0  0  0  0  0  0  0  0  0  0  0  0  # atno 5921 bound_to 698 
    9.4065    3.0630   -3.2326 LP  0  0  0  0  0  0  0  0  0  0  0  0  # atno 5950 bound_to 2569
   11.0302    3.0008   -3.0704 LP  0  0  0  0  0  0  0  0  0  0  0  0  # atno 5951 bound_to 2569
    8.1730    6.8591    0.6212 LP  0  0  0  0  0  0  0  0  0  0  0  0  # atno 5982 bound_to 2887
    7.9615    5.2461    0.4798 LP  0  0  0  0  0  0  0  0  0  0  0  0  # atno 5983 bound_to 2887
   18.3217    2.1588   -1.3406 LP  0  0  0  0  0  0  0  0  0  0  0  0  # atno 6000 bound_to 3171
   19.3896    3.0603   -0.4959 LP  0  0  0  0  0  0  0  0  0  0  0  0  # atno 6001 bound_to 3171
   12.5999   10.0365    9.4607 LP  0  0  0  0  0  0  0  0  0  0  0  0  # atno 6004 bound_to 5270
   13.8643    9.8015   10.4670 LP  0  0  0  0  0  0  0  0  0  0  0  0  # atno 6005 bound_to 5270
    9.6755   19.6281    8.4919 LP  0  0  0  0  0  0  0  0  0  0  0  0  # atno 6055 bound_to 637 
   10.4283   18.9359    7.2188 LP  0  0  0  0  0  0  0  0  0  0  0  0  # atno 6056 bound_to 637 
    1.5113   10.5038   10.5144 LP  0  0  0  0  0  0  0  0  0  0  0  0  # atno 6063 bound_to 1878
    0.6565   11.7631   11.1061 LP  0  0  0  0  0  0  0  0  0  0  0  0  # atno 6064 bound_to 1878
   -7.0148   17.0775   -0.3558 LP  0  0  0  0  0  0  0  0  0  0  0  0  # atno 6067 bound_to 957 
   -7.0165   15.4448   -0.3862 LP  0  0  0  0  0  0  0  0  0  0  0  0  # atno 6068 bound_to 957 

>  <STRIFE_LigEff_Score>  (23) 
2.688035294117647

$$$$
unknown|pharmsElabsTestPreDocking|sdf|31|dock7
     RDKit          3D

 16 16  0  0  0  0  0  0  0  0999 V2000
    3.5982    8.3448    2.6012 C   0  0  0  0  0  0  0  0  0  0  0  0
    4.0704    9.7926    2.7321 C   0  0  0  0  0  0  0  0  0  0  0  0
    4.9202    9.8778    4.0109 C   0  0  0  0  0  0  0  0  0  0  0  0
    4.1735    9.6270    5.2987 C   0  0  0  0  0  0  0  0  0  0  0  0
    6.2781    9.3525    3.9905 N   0  0  0  0  0  0  0  0  0  0  0  0
    7.2987    9.5307    3.0090 C   0  0  0  0  0  0  0  0  0  0  0  0
    7.0195   10.0589    1.9002 O   0  0  0  0  0  0  0  0  0  0  0  0
    8.6422    8.8734    3.2206 C   0  0  0  0  0  0  0  0  0  0  0  0
    8.9356    7.9016    2.0785 C   0  0  0  0  0  0  0  0  0  0  0  0
   10.2084    7.1040    2.3278 C   0  0  0  0  0  0  0  0  0  0  0  0
   11.4213    7.9216    2.8465 C   0  0  0  0  0  0  0  0  0  0  0  0
   12.7439    7.9137    2.0537 C   0  0  0  0  0  0  0  0  0  0  0  0
   14.0554    7.9764    2.8367 C   0  0  0  0  0  0  0  0  0  0  0  0
   12.7405    8.8905    0.9559 N   0  0  0  0  0  0  0  0  0  0  0  0
   11.1201    9.2790    3.5536 C   0  0  0  0  0  0  0  0  0  0  0  0
    9.7540    9.9136    3.2887 C   0  0  0  0  0  0  0  0  0  0  0  0
  1  2  1  0
  2  3  1  0
  3  4  1  0
  3  5  1  0
  5  6  1  0
  6  7  2  0
  6  8  1  0
  8  9  1  0
  9 10  1  0
 10 11  1  0
 11 12  1  0
 12 13  1  0
 12 14  1  0
 11 15  1  0
 15 16  1  0
 16  8  1  0
M  CHG  1  14   1
M  END
>  <EmbedRMS>  (24) 
0.29993262092162043

>  <Gold.Version>  (24) 
2020.3.0

>  <Gold.Id.Protein>  (24) 
unknown|1q8t_protein|pdb

>  <Gold.PLP.Fitness>  (24) 
43.2975

>  <Gold.PLP.PLP>  (24) 
-37.7979

>  <Gold.PLP.part.hbond>  (24) 
-1.0000

>  <Gold.PLP.part.metal>  (24) 
0.0000

>  <Gold.PLP.part.buried>  (24) 
-0.5901

>  <Gold.PLP.part.nonpolar>  (24) 
-35.8797

>  <Gold.PLP.part.repulsive>  (24) 
0.0000

>  <Gold.PLP.ligand.clash>  (24) 
0.0000

>  <Gold.PLP.ligand.torsion>  (24) 
0.6664

>  <Gold.PLP.Chemscore.Hbond>  (24) 
2.0000

>  <Gold.PLP.Chemscore.CHOScore>  (24) 
0.0000

>  <Gold.PLP.Chemscore.Metal>  (24) 
0.0000

>  <Gold.Chemscore.Hbonds>  (24) 
donor molecule, donor type, donor heavy atom, donor atom, acceptor molecule, acceptor atom, score
      L1  H    14    38       P1  2902  2.00

>  <Gold.PLP.Chemscore.Internal.Correction>  (24) 
0.8324

>  <Gold.PLP.Constraint>  (24) 
-0.0000

>  <Gold.Protein.RotatedTorsions>  (24) 
[  681  677  676  673 ] final  -31.75 input -179.99 | X-H torsion
[  702  698  697  694 ] final  120.41 input  179.99 | X-H torsion
[ 2577 2569 2568 2566 ] final  143.22 input   -0.13 | X-H torsion
[ 2891 2887 2886 2883 ] final   94.20 input  179.98 | X-H torsion
[ 3175 3171 3170 3167 ] final -172.25 input -179.99 | X-H torsion
[ 5278 5270 5269 5267 ] final -144.08 input    0.55 | X-H torsion
[  641  637  636  633 ] final  143.34 input  179.99 | X-H torsion
[ 1886 1878 1877 1875 ] final    4.41 input    1.60 | X-H torsion
[  965  957  956  954 ] final  -81.09 input    0.45 | X-H torsion

>  <Gold.Protein.ActiveResidues>  (24) 
 LYS47   THR48   LEU49   GLY50   THR51   GLY52   SER53   PHE54   GLY55   ARG56  
 VAL57   MET58   LEU59   TYR69   ALA70   MET71   LYS72   ILE73   LEU74   GLU91  
 LEU95   VAL104  LYS105  MET118  VAL119  MET120  GLU121  TYR122  VAL123  PRO124 
 GLY125  GLY126  GLU127  MET128  PHE129  TYR164  ASP166  LEU167  LYS168  PRO169 
 GLU170  ASN171  LEU172  LEU173  ILE174  GLN181  VAL182  THR183  ASP184  PHE185 
 GLY186  PHE187  GLY200  THR201  ASN326  PHE327  TYR330  ARG18   ARG19   ASN20  
 ALA21   ILE22   HIS23  

>  <Gold.Protein.RotatedAtoms>  (24) 
   11.0896   19.6133    8.6540 H   0  0  0  0  0  0  0  0  0  0  0  0  # atno 641  bound_to 637 
   15.6402   12.8647    6.8229 H   0  0  0  0  0  0  0  0  0  0  0  0  # atno 681  bound_to 677 
   20.1877   11.7294   -2.0298 H   0  0  0  0  0  0  0  0  0  0  0  0  # atno 702  bound_to 698 
   -6.4357   16.3592   -1.6037 H   0  0  0  0  0  0  0  0  0  0  0  0  # atno 965  bound_to 957 
    2.2477   11.3833   10.3209 H   0  0  0  0  0  0  0  0  0  0  0  0  # atno 1886 bound_to 1878
   10.0394    1.9039   -2.4017 H   0  0  0  0  0  0  0  0  0  0  0  0  # atno 2577 bound_to 2569
    8.2135    6.7285    0.5176 H   0  0  0  0  0  0  0  0  0  0  0  0  # atno 2891 bound_to 2887
   18.2321    2.2792    0.2526 H   0  0  0  0  0  0  0  0  0  0  0  0  # atno 3175 bound_to 3171
   14.3663    9.9566    9.9289 H   0  0  0  0  0  0  0  0  0  0  0  0  # atno 5278 bound_to 5270
   16.6637   13.9792    7.3195 LP  0  0  0  0  0  0  0  0  0  0  0  0  # atno 5914 bound_to 677 
   17.0487   12.9779    6.0883 LP  0  0  0  0  0  0  0  0  0  0  0  0  # atno 5915 bound_to 677 
   19.4506   11.8160   -0.6204 LP  0  0  0  0  0  0  0  0  0  0  0  0  # atno 5920 bound_to 698 
   21.0564   11.5331   -0.7091 LP  0  0  0  0  0  0  0  0  0  0  0  0  # atno 5921 bound_to 698 
    9.4448    3.1062   -3.2597 LP  0  0  0  0  0  0  0  0  0  0  0  0  # atno 5950 bound_to 2569
   11.0551    2.9535   -3.0357 LP  0  0  0  0  0  0  0  0  0  0  0  0  # atno 5951 bound_to 2569
    7.8527    5.1789    0.5897 LP  0  0  0  0  0  0  0  0  0  0  0  0  # atno 5982 bound_to 2887
    7.1779    6.2447    1.6266 LP  0  0  0  0  0  0  0  0  0  0  0  0  # atno 5983 bound_to 2887
   18.3098    2.1510   -1.3327 LP  0  0  0  0  0  0  0  0  0  0  0  0  # atno 6000 bound_to 3171
   19.3908    3.0591   -0.5121 LP  0  0  0  0  0  0  0  0  0  0  0  0  # atno 6001 bound_to 3171
   13.3840   10.2309    8.7056 LP  0  0  0  0  0  0  0  0  0  0  0  0  # atno 6004 bound_to 5270
   12.7971    9.8603   10.1836 LP  0  0  0  0  0  0  0  0  0  0  0  0  # atno 6005 bound_to 5270
    9.5557   19.5065    8.2406 LP  0  0  0  0  0  0  0  0  0  0  0  0  # atno 6055 bound_to 637 
   10.7295   18.9388    7.2574 LP  0  0  0  0  0  0  0  0  0  0  0  0  # atno 6056 bound_to 637 
    0.9218   10.6420   10.7979 LP  0  0  0  0  0  0  0  0  0  0  0  0  # atno 6063 bound_to 1878
    1.0974   12.2534   10.9954 LP  0  0  0  0  0  0  0  0  0  0  0  0  # atno 6064 bound_to 1878
   -7.0427   17.0335   -0.2953 LP  0  0  0  0  0  0  0  0  0  0  0  0  # atno 6067 bound_to 957 
   -6.9872   15.4090   -0.4513 LP  0  0  0  0  0  0  0  0  0  0  0  0  # atno 6068 bound_to 957 

>  <STRIFE_LigEff_Score>  (24) 
2.70609375

$$$$
unknown|pharmsElabsTestPreDocking|sdf|32|dock5
     RDKit          3D

 17 18  0  0  0  0  0  0  0  0999 V2000
   14.6656    8.0133    2.8155 C   0  0  0  0  0  0  0  0  0  0  0  0
   13.3170    7.9375    2.1013 C   0  0  0  0  0  0  0  0  0  0  0  0
   13.2559    8.8271    0.9398 N   0  0  0  0  0  0  0  0  0  0  0  0
   12.0265    7.9888    2.9555 C   0  0  0  0  0  0  0  0  0  0  0  0
   10.9028    7.0843    2.4290 C   0  0  0  0  0  0  0  0  0  0  0  0
    9.4977    7.4025    2.9111 C   0  0  0  0  0  0  0  0  0  0  0  0
    9.2211    8.8840    2.9594 C   0  0  0  0  0  0  0  0  0  0  0  0
    7.7679    9.2279    3.0976 C   0  0  0  0  0  0  0  0  0  0  0  0
    7.5381   10.1065    3.9590 O   0  0  0  0  0  0  0  0  0  0  0  0
    6.6743    8.6507    2.3520 N   0  0  0  0  0  0  0  0  0  0  0  0
    5.2872    8.9633    2.6392 C   0  0  0  0  0  0  0  0  0  0  0  0
    4.6874    9.1307    3.8865 C   0  0  0  0  0  0  0  0  0  0  0  0
    3.3601    9.3991    3.6417 C   0  0  0  0  0  0  0  0  0  0  0  0
    3.1237    9.3998    2.3179 N   0  0  0  0  0  0  0  0  0  0  0  0
    4.2902    9.1347    1.6980 C   0  0  0  0  0  0  0  0  0  0  0  0
   10.2097    9.7312    3.7079 C   0  0  0  0  0  0  0  0  0  0  0  0
   11.6472    9.4611    3.2681 C   0  0  0  0  0  0  0  0  0  0  0  0
  1  2  1  0
  2  3  1  0
  2  4  1  0
  4  5  1  0
  5  6  1  0
  6  7  1  0
  7  8  1  0
  8  9  2  0
  8 10  1  0
 10 11  1  0
 11 12  1  0
 12 13  2  0
 13 14  1  0
 14 15  1  0
  7 16  1  0
 16 17  1  0
 17  4  1  0
 15 11  2  0
M  CHG  1   3   1
M  END
>  <EmbedRMS>  (25) 
0.3005329260886256

>  <Gold.Version>  (25) 
2020.3.0

>  <Gold.Id.Protein>  (25) 
unknown|1q8t_protein|pdb

>  <Gold.PLP.Fitness>  (25) 
48.7060

>  <Gold.PLP.PLP>  (25) 
-40.4162

>  <Gold.PLP.part.hbond>  (25) 
-2.8493

>  <Gold.PLP.part.metal>  (25) 
0.0000

>  <Gold.PLP.part.buried>  (25) 
-4.1729

>  <Gold.PLP.part.nonpolar>  (25) 
-33.5381

>  <Gold.PLP.part.repulsive>  (25) 
0.0723

>  <Gold.PLP.ligand.clash>  (25) 
0.0000

>  <Gold.PLP.ligand.torsion>  (25) 
1.0603

>  <Gold.PLP.Chemscore.Hbond>  (25) 
3.2633

>  <Gold.PLP.Chemscore.CHOScore>  (25) 
0.0000

>  <Gold.PLP.Chemscore.Metal>  (25) 
0.0000

>  <Gold.Chemscore.Hbonds>  (25) 
donor molecule, donor type, donor heavy atom, donor atom, acceptor molecule, acceptor atom, score
      L1  H     3    24       P1  2902  2.00
      L1  H    10    31       P1  2887  0.26
      L1  H    14    34       P1  1855  1.00

>  <Gold.PLP.Chemscore.Internal.Correction>  (25) 
0.6207

>  <Gold.PLP.Constraint>  (25) 
-0.0000

>  <Gold.Protein.RotatedTorsions>  (25) 
[  681  677  676  673 ] final -110.19 input -179.99 | X-H torsion
[  702  698  697  694 ] final   89.88 input  179.99 | X-H torsion
[ 2577 2569 2568 2566 ] final  -43.63 input   -0.13 | X-H torsion
[ 2891 2887 2886 2883 ] final  -82.10 input  179.98 | X-H torsion
[ 3175 3171 3170 3167 ] final -128.53 input -179.99 | X-H torsion
[ 5278 5270 5269 5267 ] final -160.90 input    0.55 | X-H torsion
[  641  637  636  633 ] final  -42.06 input  179.99 | X-H torsion
[ 1886 1878 1877 1875 ] final   24.68 input    1.60 | X-H torsion
[  965  957  956  954 ] final  126.98 input    0.45 | X-H torsion

>  <Gold.Protein.ActiveResidues>  (25) 
 LYS47   THR48   LEU49   GLY50   THR51   GLY52   SER53   PHE54   GLY55   ARG56  
 VAL57   MET58   LEU59   TYR69   ALA70   MET71   LYS72   ILE73   LEU74   GLU91  
 LEU95   VAL104  LYS105  MET118  VAL119  MET120  GLU121  TYR122  VAL123  PRO124 
 GLY125  GLY126  GLU127  MET128  PHE129  TYR164  ASP166  LEU167  LYS168  PRO169 
 GLU170  ASN171  LEU172  LEU173  ILE174  GLN181  VAL182  THR183  ASP184  PHE185 
 GLY186  PHE187  GLY200  THR201  ASN326  PHE327  TYR330  ARG18   ARG19   ASN20  
 ALA21   ILE22   HIS23  

>  <Gold.Protein.RotatedAtoms>  (25) 
    9.9112   19.0541    7.4301 H   0  0  0  0  0  0  0  0  0  0  0  0  # atno 641  bound_to 637 
   16.0668   13.7300    7.4166 H   0  0  0  0  0  0  0  0  0  0  0  0  # atno 681  bound_to 677 
   19.7463   11.8048   -1.8810 H   0  0  0  0  0  0  0  0  0  0  0  0  # atno 702  bound_to 698 
   -7.1460   16.6081   -0.0379 H   0  0  0  0  0  0  0  0  0  0  0  0  # atno 965  bound_to 957 
    2.2306   11.6921   10.3811 H   0  0  0  0  0  0  0  0  0  0  0  0  # atno 1886 bound_to 1878
   10.4208    3.3515   -3.3789 H   0  0  0  0  0  0  0  0  0  0  0  0  # atno 2577 bound_to 2569
    7.3073    5.3632    1.2401 H   0  0  0  0  0  0  0  0  0  0  0  0  # atno 2891 bound_to 2887
   18.7561    2.6801    0.3505 H   0  0  0  0  0  0  0  0  0  0  0  0  # atno 3175 bound_to 3171
   14.4237   10.0185    9.6807 H   0  0  0  0  0  0  0  0  0  0  0  0  # atno 5278 bound_to 5270
   17.3006   13.4890    6.4389 LP  0  0  0  0  0  0  0  0  0  0  0  0  # atno 5914 bound_to 677 
   15.9628   12.5574    6.3441 LP  0  0  0  0  0  0  0  0  0  0  0  0  # atno 5915 bound_to 677 
   19.8148   11.7451   -0.2907 LP  0  0  0  0  0  0  0  0  0  0  0  0  # atno 5920 bound_to 698 
   21.1565   11.5247   -1.1952 LP  0  0  0  0  0  0  0  0  0  0  0  0  # atno 5921 bound_to 698 
   10.8335    2.1124   -2.4680 LP  0  0  0  0  0  0  0  0  0  0  0  0  # atno 5950 bound_to 2569
    9.2648    2.4230   -2.7986 LP  0  0  0  0  0  0  0  0  0  0  0  0  # atno 5951 bound_to 2569
    7.6281    6.9230    1.2677 LP  0  0  0  0  0  0  0  0  0  0  0  0  # atno 5982 bound_to 2887
    8.3562    5.9375    0.1882 LP  0  0  0  0  0  0  0  0  0  0  0  0  # atno 5983 bound_to 2887
   17.9245    1.9372   -0.7862 LP  0  0  0  0  0  0  0  0  0  0  0  0  # atno 6000 bound_to 3171
   19.2247    2.8510   -1.1617 LP  0  0  0  0  0  0  0  0  0  0  0  0  # atno 6001 bound_to 3171
   13.1208   10.2087    8.7847 LP  0  0  0  0  0  0  0  0  0  0  0  0  # atno 6004 bound_to 5270
   12.9999    9.8175   10.3656 LP  0  0  0  0  0  0  0  0  0  0  0  0  # atno 6005 bound_to 5270
   11.4007   19.2573    7.9545 LP  0  0  0  0  0  0  0  0  0  0  0  0  # atno 6055 bound_to 637 
   10.1256   19.7768    8.8325 LP  0  0  0  0  0  0  0  0  0  0  0  0  # atno 6056 bound_to 637 
    1.1938   10.5154   10.6564 LP  0  0  0  0  0  0  0  0  0  0  0  0  # atno 6063 bound_to 1878
    0.8434   12.0549   11.0735 LP  0  0  0  0  0  0  0  0  0  0  0  0  # atno 6064 bound_to 1878
   -6.7751   15.3347   -0.9189 LP  0  0  0  0  0  0  0  0  0  0  0  0  # atno 6067 bound_to 957 
   -6.5068   16.8458   -1.4767 LP  0  0  0  0  0  0  0  0  0  0  0  0  # atno 6068 bound_to 957 

>  <STRIFE_LigEff_Score>  (25) 
2.865058823529412

$$$$
unknown|pharmsElabsTestPreDocking|sdf|33|dock8
     RDKit          3D

 17 17  0  0  0  0  0  0  0  0999 V2000
   14.3071    7.2875    3.6433 C   0  0  0  0  0  0  0  0  0  0  0  0
   13.4082    7.8704    2.5424 C   0  0  0  0  0  0  0  0  0  0  0  0
   13.5310    7.0737    1.3165 N   0  0  0  0  0  0  0  0  0  0  0  0
   11.9115    8.1318    2.9348 C   0  0  0  0  0  0  0  0  0  0  0  0
   10.8579    7.4090    2.0749 C   0  0  0  0  0  0  0  0  0  0  0  0
    9.5166    8.1104    1.9848 C   0  0  0  0  0  0  0  0  0  0  0  0
    9.0869    8.7211    3.3134 C   0  0  0  0  0  0  0  0  0  0  0  0
    7.7000    9.2926    3.1715 C   0  0  0  0  0  0  0  0  0  0  0  0
    7.4477   10.1000    2.2334 O   0  0  0  0  0  0  0  0  0  0  0  0
    6.6877    8.9322    4.1208 N   0  0  0  0  0  0  0  0  0  0  0  0
    5.2903    9.3927    4.0687 C   0  0  0  0  0  0  0  0  0  0  0  0
    4.6484    8.8097    2.7929 C   0  0  0  0  0  0  0  0  0  0  0  0
    5.2574   10.9345    3.9837 C   0  0  0  0  0  0  0  0  0  0  0  0
    4.5674    8.8986    5.2616 N   0  0  0  0  0  0  0  0  0  0  0  0
    3.2889    9.4874    5.3281 N   0  0  0  0  0  0  0  0  0  0  0  0
   10.0601    9.8228    3.7476 C   0  0  0  0  0  0  0  0  0  0  0  0
   11.5532    9.4597    3.6343 C   0  0  0  0  0  0  0  0  0  0  0  0
  1  2  1  0
  2  3  1  0
  2  4  1  0
  4  5  1  0
  5  6  1  0
  6  7  1  0
  7  8  1  0
  8  9  2  0
  8 10  1  0
 10 11  1  0
 11 12  1  0
 11 13  1  0
 11 14  1  0
 14 15  1  0
  7 16  1  0
 16 17  1  0
 17  4  1  0
M  CHG  1   3   1
M  END
>  <EmbedRMS>  (26) 
0.16937543786419249

>  <Gold.Version>  (26) 
2020.3.0

>  <Gold.Id.Protein>  (26) 
unknown|1q8t_protein|pdb

>  <Gold.PLP.Fitness>  (26) 
41.4584

>  <Gold.PLP.PLP>  (26) 
-31.6019

>  <Gold.PLP.part.hbond>  (26) 
-4.0000

>  <Gold.PLP.part.metal>  (26) 
0.0000

>  <Gold.PLP.part.buried>  (26) 
-3.8553

>  <Gold.PLP.part.nonpolar>  (26) 
-24.3097

>  <Gold.PLP.part.repulsive>  (26) 
0.0422

>  <Gold.PLP.ligand.clash>  (26) 
0.0000

>  <Gold.PLP.ligand.torsion>  (26) 
1.3524

>  <Gold.PLP.Chemscore.Hbond>  (26) 
3.9760

>  <Gold.PLP.Chemscore.CHOScore>  (26) 
0.0000

>  <Gold.PLP.Chemscore.Metal>  (26) 
0.0000

>  <Gold.Chemscore.Hbonds>  (26) 
donor molecule, donor type, donor heavy atom, donor atom, acceptor molecule, acceptor atom, score
      L1  H     3    22       P1  2691  0.98
      L1  H     3    24       P1  2902  2.00
      L1  H    15    40       P1  1891  1.00

>  <Gold.PLP.Chemscore.Internal.Correction>  (26) 
0.6332

>  <Gold.PLP.Constraint>  (26) 
-0.0000

>  <Gold.Protein.RotatedTorsions>  (26) 
[  681  677  676  673 ] final -102.61 input -179.99 | X-H torsion
[  702  698  697  694 ] final -129.37 input  179.99 | X-H torsion
[ 2577 2569 2568 2566 ] final  172.32 input   -0.13 | X-H torsion
[ 2891 2887 2886 2883 ] final  -58.12 input  179.98 | X-H torsion
[ 3175 3171 3170 3167 ] final -121.32 input -179.99 | X-H torsion
[ 5278 5270 5269 5267 ] final   34.83 input    0.55 | X-H torsion
[  641  637  636  633 ] final -125.74 input  179.99 | X-H torsion
[ 1886 1878 1877 1875 ] final  -61.19 input    1.60 | X-H torsion
[  965  957  956  954 ] final -167.56 input    0.45 | X-H torsion

>  <Gold.Protein.ActiveResidues>  (26) 
 LYS47   THR48   LEU49   GLY50   THR51   GLY52   SER53   PHE54   GLY55   ARG56  
 VAL57   MET58   LEU59   TYR69   ALA70   MET71   LYS72   ILE73   LEU74   GLU91  
 LEU95   VAL104  LYS105  MET118  VAL119  MET120  GLU121  TYR122  VAL123  PRO124 
 GLY125  GLY126  GLU127  MET128  PHE129  TYR164  ASP166  LEU167  LYS168  PRO169 
 GLU170  ASN171  LEU172  LEU173  ILE174  GLN181  VAL182  THR183  ASP184  PHE185 
 GLY186  PHE187  GLY200  THR201  ASN326  PHE327  TYR330  ARG18   ARG19   ASN20  
 ALA21   ILE22   HIS23  

>  <Gold.Protein.RotatedAtoms>  (26) 
   11.1022   19.0323    7.5177 H   0  0  0  0  0  0  0  0  0  0  0  0  # atno 641  bound_to 637 
   15.9732   13.6586    7.4038 H   0  0  0  0  0  0  0  0  0  0  0  0  # atno 681  bound_to 677 
   21.0753   11.5497   -0.8715 H   0  0  0  0  0  0  0  0  0  0  0  0  # atno 702  bound_to 698 
   -6.8131   17.1633   -0.7578 H   0  0  0  0  0  0  0  0  0  0  0  0  # atno 965  bound_to 957 
    1.6814   10.6043   10.4377 H   0  0  0  0  0  0  0  0  0  0  0  0  # atno 1886 bound_to 1878
   10.4864    1.9555   -2.4048 H   0  0  0  0  0  0  0  0  0  0  0  0  # atno 2577 bound_to 2569
    7.5077    5.2040    0.9699 H   0  0  0  0  0  0  0  0  0  0  0  0  # atno 2891 bound_to 2887
   18.8448    2.7415    0.3178 H   0  0  0  0  0  0  0  0  0  0  0  0  # atno 3175 bound_to 3171
   12.6882   10.0906    9.3149 H   0  0  0  0  0  0  0  0  0  0  0  0  # atno 5278 bound_to 5270
   17.3000   13.5773    6.5269 LP  0  0  0  0  0  0  0  0  0  0  0  0  # atno 5914 bound_to 677 
   16.0619   12.5442    6.2696 LP  0  0  0  0  0  0  0  0  0  0  0  0  # atno 5915 bound_to 677 
   20.0257   11.7417   -2.0542 LP  0  0  0  0  0  0  0  0  0  0  0  0  # atno 5920 bound_to 698 
   19.5476   11.7964   -0.4937 LP  0  0  0  0  0  0  0  0  0  0  0  0  # atno 5921 bound_to 698 
    9.2497    2.7450   -3.0233 LP  0  0  0  0  0  0  0  0  0  0  0  0  # atno 5950 bound_to 2569
   10.7796    3.2603   -3.2689 LP  0  0  0  0  0  0  0  0  0  0  0  0  # atno 5951 bound_to 2569
    7.3908    6.7047    1.4902 LP  0  0  0  0  0  0  0  0  0  0  0  0  # atno 5982 bound_to 2887
    8.3826    6.3233    0.2501 LP  0  0  0  0  0  0  0  0  0  0  0  0  # atno 5983 bound_to 2887
   17.8958    1.9310   -0.6712 LP  0  0  0  0  0  0  0  0  0  0  0  0  # atno 6000 bound_to 3171
   19.1600    2.7926   -1.2422 LP  0  0  0  0  0  0  0  0  0  0  0  0  # atno 6001 bound_to 3171
   13.6944    9.7886   10.5120 LP  0  0  0  0  0  0  0  0  0  0  0  0  # atno 6004 bound_to 5270
   14.2524   10.1616    9.0233 LP  0  0  0  0  0  0  0  0  0  0  0  0  # atno 6005 bound_to 5270
   10.7116   19.7661    8.8756 LP  0  0  0  0  0  0  0  0  0  0  0  0  # atno 6055 bound_to 637 
    9.5604   19.2910    7.8193 LP  0  0  0  0  0  0  0  0  0  0  0  0  # atno 6056 bound_to 637 
    0.5942   11.5613   11.0992 LP  0  0  0  0  0  0  0  0  0  0  0  0  # atno 6063 bound_to 1878
    2.0212   12.1542   10.5712 LP  0  0  0  0  0  0  0  0  0  0  0  0  # atno 6064 bound_to 1878
   -7.1545   15.7655   -0.0763 LP  0  0  0  0  0  0  0  0  0  0  0  0  # atno 6067 bound_to 957 
   -6.4781   15.8301   -1.5612 LP  0  0  0  0  0  0  0  0  0  0  0  0  # atno 6068 bound_to 957 

>  <STRIFE_LigEff_Score>  (26) 
2.438729411764706

$$$$
unknown|pharmsElabsTestPreDocking|sdf|3|dock8
     RDKit          3D

 19 20  0  0  0  0  0  0  0  0999 V2000
    3.0121    9.8001    4.4478 C   0  0  0  0  0  0  0  0  0  0  0  0
    4.4878    9.6050    4.3422 C   0  0  0  0  0  0  0  0  0  0  0  0
    5.3328   10.1324    5.3173 C   0  0  0  0  0  0  0  0  0  0  0  0
    6.7051    9.9428    5.2092 C   0  0  0  0  0  0  0  0  0  0  0  0
    7.2416    9.2222    4.1215 C   0  0  0  0  0  0  0  0  0  0  0  0
    8.6510    8.9784    3.9437 N   0  0  0  0  0  0  0  0  0  0  0  0
    9.3843    9.0041    2.7099 C   0  0  0  0  0  0  0  0  0  0  0  0
    8.8266    9.3027    1.6198 O   0  0  0  0  0  0  0  0  0  0  0  0
   10.8592    8.6998    2.7178 C   0  0  0  0  0  0  0  0  0  0  0  0
   11.1006    7.3810    1.9916 C   0  0  0  0  0  0  0  0  0  0  0  0
   12.5507    6.9438    2.0488 C   0  0  0  0  0  0  0  0  0  0  0  0
   13.5769    8.0802    1.8838 C   0  0  0  0  0  0  0  0  0  0  0  0
   14.9611    7.6653    1.2731 C   0  0  0  0  0  0  0  0  0  0  0  0
   16.0396    7.2229    2.2734 C   0  0  0  0  0  0  0  0  0  0  0  0
   14.8218    6.6670    0.2070 N   0  0  0  0  0  0  0  0  0  0  0  0
   13.0919    9.5322    1.6919 C   0  0  0  0  0  0  0  0  0  0  0  0
   11.6243    9.8430    2.0413 C   0  0  0  0  0  0  0  0  0  0  0  0
    6.3484    8.7121    3.1666 C   0  0  0  0  0  0  0  0  0  0  0  0
    5.0113    8.9119    3.2966 N   0  0  0  0  0  0  0  0  0  0  0  0
  1  2  1  0
  2  3  2  0
  3  4  1  0
  4  5  2  0
  5  6  1  0
  6  7  1  0
  7  8  2  0
  7  9  1  0
  9 10  1  0
 10 11  1  0
 11 12  1  0
 12 13  1  0
 13 14  1  0
 13 15  1  0
 12 16  1  0
 16 17  1  0
  5 18  1  0
 18 19  2  0
 19  2  1  0
 17  9  1  0
M  CHG  1  15   1
M  END
>  <EmbedRMS>  (27) 
0.1605149994458257

>  <Gold.Version>  (27) 
2020.3.0

>  <Gold.Id.Protein>  (27) 
unknown|1q8t_protein|pdb

>  <Gold.PLP.Fitness>  (27) 
46.9498

>  <Gold.PLP.PLP>  (27) 
-38.9502

>  <Gold.PLP.part.hbond>  (27) 
-1.9976

>  <Gold.PLP.part.metal>  (27) 
0.0000

>  <Gold.PLP.part.buried>  (27) 
2.0463

>  <Gold.PLP.part.nonpolar>  (27) 
-38.3701

>  <Gold.PLP.part.repulsive>  (27) 
0.1278

>  <Gold.PLP.ligand.clash>  (27) 
0.0000

>  <Gold.PLP.ligand.torsion>  (27) 
1.4446

>  <Gold.PLP.Chemscore.Hbond>  (27) 
3.0000

>  <Gold.PLP.Chemscore.CHOScore>  (27) 
0.4426

>  <Gold.PLP.Chemscore.Metal>  (27) 
0.0000

>  <Gold.Chemscore.Hbonds>  (27) 
donor molecule, donor type, donor heavy atom, donor atom, acceptor molecule, acceptor atom, score
      L1  H    15    36       P1  2691  1.00
      L1  H    15    37       P1  2902  2.00
      L1  C    18    43       P1  2887  0.44

>  <Gold.PLP.Chemscore.Internal.Correction>  (27) 
0.5609

>  <Gold.PLP.Constraint>  (27) 
-0.0000

>  <Gold.Protein.RotatedTorsions>  (27) 
[  681  677  676  673 ] final  -76.65 input -179.99 | X-H torsion
[  702  698  697  694 ] final   -9.68 input  179.99 | X-H torsion
[ 2577 2569 2568 2566 ] final -122.78 input   -0.13 | X-H torsion
[ 2891 2887 2886 2883 ] final  -18.99 input  179.98 | X-H torsion
[ 3175 3171 3170 3167 ] final  168.35 input -179.99 | X-H torsion
[ 5278 5270 5269 5267 ] final  164.60 input    0.55 | X-H torsion
[  641  637  636  633 ] final  159.78 input  179.99 | X-H torsion
[ 1886 1878 1877 1875 ] final  123.95 input    1.60 | X-H torsion
[  965  957  956  954 ] final   49.94 input    0.45 | X-H torsion

>  <Gold.Protein.ActiveResidues>  (27) 
 LYS47   THR48   LEU49   GLY50   THR51   GLY52   SER53   PHE54   GLY55   ARG56  
 VAL57   MET58   LEU59   TYR69   ALA70   MET71   LYS72   ILE73   LEU74   GLU91  
 LEU95   VAL104  LYS105  MET118  VAL119  MET120  GLU121  TYR122  VAL123  PRO124 
 GLY125  GLY126  GLU127  MET128  PHE129  TYR164  ASP166  LEU167  LYS168  PRO169 
 GLU170  ASN171  LEU172  LEU173  ILE174  GLN181  VAL182  THR183  ASP184  PHE185 
 GLY186  PHE187  GLY200  THR201  ASN326  PHE327  TYR330  ARG18   ARG19   ASN20  
 ALA21   ILE22   HIS23  

>  <Gold.Protein.RotatedAtoms>  (27) 
   11.2464   19.5143    8.4773 H   0  0  0  0  0  0  0  0  0  0  0  0  # atno 641  bound_to 637 
   15.7222   13.3717    7.2748 H   0  0  0  0  0  0  0  0  0  0  0  0  # atno 681  bound_to 677 
   19.5874   11.8067   -0.5216 H   0  0  0  0  0  0  0  0  0  0  0  0  # atno 702  bound_to 698 
   -7.0252   15.5374   -0.3258 H   0  0  0  0  0  0  0  0  0  0  0  0  # atno 965  bound_to 957 
    1.1137   12.2177   10.9631 H   0  0  0  0  0  0  0  0  0  0  0  0  # atno 1886 bound_to 1878
   11.0685    2.6027   -2.8115 H   0  0  0  0  0  0  0  0  0  0  0  0  # atno 2577 bound_to 2569
    7.9050    5.2649    0.5242 H   0  0  0  0  0  0  0  0  0  0  0  0  # atno 2891 bound_to 2887
   18.0586    2.1254    0.0595 H   0  0  0  0  0  0  0  0  0  0  0  0  # atno 3175 bound_to 3171
   14.3042   10.1413    9.1778 H   0  0  0  0  0  0  0  0  0  0  0  0  # atno 5278 bound_to 5270
   17.1864   13.8297    6.8475 LP  0  0  0  0  0  0  0  0  0  0  0  0  # atno 5914 bound_to 677 
   16.4397   12.5938    6.0847 LP  0  0  0  0  0  0  0  0  0  0  0  0  # atno 5915 bound_to 677 
   21.1176   11.5252   -0.8629 LP  0  0  0  0  0  0  0  0  0  0  0  0  # atno 5920 bound_to 698 
   20.0208   11.7426   -2.0530 LP  0  0  0  0  0  0  0  0  0  0  0  0  # atno 5921 bound_to 698 
    9.6382    1.9913   -2.4714 LP  0  0  0  0  0  0  0  0  0  0  0  0  # atno 5950 bound_to 2569
    9.7781    3.3325   -3.3925 LP  0  0  0  0  0  0  0  0  0  0  0  0  # atno 5951 bound_to 2569
    7.1548    6.1351    1.6271 LP  0  0  0  0  0  0  0  0  0  0  0  0  # atno 5982 bound_to 2887
    8.2004    6.8288    0.5822 LP  0  0  0  0  0  0  0  0  0  0  0  0  # atno 5983 bound_to 2887
   18.5564    2.3195   -1.4405 LP  0  0  0  0  0  0  0  0  0  0  0  0  # atno 6000 bound_to 3171
   19.3268    3.0524   -0.2011 LP  0  0  0  0  0  0  0  0  0  0  0  0  # atno 6001 bound_to 3171
   12.7119   10.1133    9.1540 LP  0  0  0  0  0  0  0  0  0  0  0  0  # atno 6004 bound_to 5270
   13.5345    9.7836   10.5255 LP  0  0  0  0  0  0  0  0  0  0  0  0  # atno 6005 bound_to 5270
    9.6575   19.6155    8.4654 LP  0  0  0  0  0  0  0  0  0  0  0  0  # atno 6055 bound_to 637 
   10.4626   18.9340    7.2188 LP  0  0  0  0  0  0  0  0  0  0  0  0  # atno 6056 bound_to 637 
    2.2967   11.3709   10.3161 LP  0  0  0  0  0  0  0  0  0  0  0  0  # atno 6063 bound_to 1878
    0.9162   10.6461   10.8011 LP  0  0  0  0  0  0  0  0  0  0  0  0  # atno 6064 bound_to 1878
   -6.4320   16.1830   -1.6549 LP  0  0  0  0  0  0  0  0  0  0  0  0  # atno 6067 bound_to 957 
   -6.9771   17.1250   -0.4375 LP  0  0  0  0  0  0  0  0  0  0  0  0  # atno 6068 bound_to 957 

>  <STRIFE_LigEff_Score>  (27) 
2.471042105263158

$$$$
unknown|pharmsElabsTestPreDocking|sdf|4|dock9
     RDKit          3D

 16 16  0  0  0  0  0  0  0  0999 V2000
   13.7644    7.5843    3.7866 C   0  0  0  0  0  0  0  0  0  0  0  0
   12.9234    8.0534    2.5898 C   0  0  0  0  0  0  0  0  0  0  0  0
   13.2568    7.2638    1.3988 N   0  0  0  0  0  0  0  0  0  0  0  0
   11.3748    8.1508    2.8254 C   0  0  0  0  0  0  0  0  0  0  0  0
   10.4905    7.4864    1.7535 C   0  0  0  0  0  0  0  0  0  0  0  0
    9.1109    8.0967    1.5937 C   0  0  0  0  0  0  0  0  0  0  0  0
    8.4841    8.4817    2.9285 C   0  0  0  0  0  0  0  0  0  0  0  0
    7.0755    8.9684    2.6972 C   0  0  0  0  0  0  0  0  0  0  0  0
    6.7356    9.3929    1.5570 O   0  0  0  0  0  0  0  0  0  0  0  0
    6.1418    8.9684    3.7854 N   0  0  0  0  0  0  0  0  0  0  0  0
    4.7369    9.3959    3.6847 C   0  0  0  0  0  0  0  0  0  0  0  0
    3.9162    8.3575    2.8990 C   0  0  0  0  0  0  0  0  0  0  0  0
    4.1536    9.5096    5.1039 C   0  0  0  0  0  0  0  0  0  0  0  0
    4.6468   10.7734    3.0049 C   0  0  0  0  0  0  0  0  0  0  0  0
    9.3046    9.5758    3.6207 C   0  0  0  0  0  0  0  0  0  0  0  0
   10.8267    9.3370    3.6461 C   0  0  0  0  0  0  0  0  0  0  0  0
  1  2  1  0
  2  3  1  0
  2  4  1  0
  4  5  1  0
  5  6  1  0
  6  7  1  0
  7  8  1  0
  8  9  2  0
  8 10  1  0
 10 11  1  0
 11 12  1  0
 11 13  1  0
 11 14  1  0
  7 15  1  0
 15 16  1  0
 16  4  1  0
M  CHG  1   3   1
M  END
>  <EmbedRMS>  (28) 
0.17423024192686873

>  <Gold.Version>  (28) 
2020.3.0

>  <Gold.Id.Protein>  (28) 
unknown|1q8t_protein|pdb

>  <Gold.PLP.Fitness>  (28) 
40.8692

>  <Gold.PLP.PLP>  (28) 
-34.5772

>  <Gold.PLP.part.hbond>  (28) 
-2.0000

>  <Gold.PLP.part.metal>  (28) 
0.0000

>  <Gold.PLP.part.buried>  (28) 
-1.8118

>  <Gold.PLP.part.nonpolar>  (28) 
-31.0346

>  <Gold.PLP.part.repulsive>  (28) 
0.0266

>  <Gold.PLP.ligand.clash>  (28) 
0.0000

>  <Gold.PLP.ligand.torsion>  (28) 
1.6359

>  <Gold.PLP.Chemscore.Hbond>  (28) 
3.0000

>  <Gold.PLP.Chemscore.CHOScore>  (28) 
0.0000

>  <Gold.PLP.Chemscore.Metal>  (28) 
0.0000

>  <Gold.Chemscore.Hbonds>  (28) 
donor molecule, donor type, donor heavy atom, donor atom, acceptor molecule, acceptor atom, score
      L1  H     3    21       P1  2902  2.00
      L1  H     3    22       P1  2691  1.00

>  <Gold.PLP.Chemscore.Internal.Correction>  (28) 
0.5638

>  <Gold.PLP.Constraint>  (28) 
-0.0000

>  <Gold.Protein.RotatedTorsions>  (28) 
[  681  677  676  673 ] final  -42.58 input -179.99 | X-H torsion
[  702  698  697  694 ] final   93.92 input  179.99 | X-H torsion
[ 2577 2569 2568 2566 ] final  171.02 input   -0.13 | X-H torsion
[ 2891 2887 2886 2883 ] final -131.66 input  179.98 | X-H torsion
[ 3175 3171 3170 3167 ] final  -12.74 input -179.99 | X-H torsion
[ 5278 5270 5269 5267 ] final  108.08 input    0.55 | X-H torsion
[  641  637  636  633 ] final  -68.68 input  179.99 | X-H torsion
[ 1886 1878 1877 1875 ] final  -34.36 input    1.60 | X-H torsion
[  965  957  956  954 ] final  -20.13 input    0.45 | X-H torsion

>  <Gold.Protein.ActiveResidues>  (28) 
 LYS47   THR48   LEU49   GLY50   THR51   GLY52   SER53   PHE54   GLY55   ARG56  
 VAL57   MET58   LEU59   TYR69   ALA70   MET71   LYS72   ILE73   LEU74   GLU91  
 LEU95   VAL104  LYS105  MET118  VAL119  MET120  GLU121  TYR122  VAL123  PRO124 
 GLY125  GLY126  GLU127  MET128  PHE129  TYR164  ASP166  LEU167  LYS168  PRO169 
 GLU170  ASN171  LEU172  LEU173  ILE174  GLN181  VAL182  THR183  ASP184  PHE185 
 GLY186  PHE187  GLY200  THR201  ASN326  PHE327  TYR330  ARG18   ARG19   ASN20  
 ALA21   ILE22   HIS23  

>  <Gold.Protein.RotatedAtoms>  (28) 
   10.2834   18.9576    7.2819 H   0  0  0  0  0  0  0  0  0  0  0  0  # atno 641  bound_to 637 
   15.6147   12.9751    6.9483 H   0  0  0  0  0  0  0  0  0  0  0  0  # atno 681  bound_to 677 
   19.7993   11.7960   -1.9141 H   0  0  0  0  0  0  0  0  0  0  0  0  # atno 702  bound_to 698 
   -6.5994   15.5339   -1.2615 H   0  0  0  0  0  0  0  0  0  0  0  0  # atno 965  bound_to 957 
    2.0077   10.8397   10.3339 H   0  0  0  0  0  0  0  0  0  0  0  0  # atno 1886 bound_to 1878
   10.4672    1.9493   -2.4018 H   0  0  0  0  0  0  0  0  0  0  0  0  # atno 2577 bound_to 2569
    7.1581    6.0208    1.5705 H   0  0  0  0  0  0  0  0  0  0  0  0  # atno 2891 bound_to 2887
   19.2372    2.8494   -1.0786 H   0  0  0  0  0  0  0  0  0  0  0  0  # atno 3175 bound_to 3171
   13.5807   10.2403    8.7457 H   0  0  0  0  0  0  0  0  0  0  0  0  # atno 5278 bound_to 5270
   16.8162   13.9822    7.2280 LP  0  0  0  0  0  0  0  0  0  0  0  0  # atno 5914 bound_to 677 
   16.9230   12.8586    6.0479 LP  0  0  0  0  0  0  0  0  0  0  0  0  # atno 5915 bound_to 677 
   19.7574   11.7559   -0.3223 LP  0  0  0  0  0  0  0  0  0  0  0  0  # atno 5920 bound_to 698 
   21.1581   11.5231   -1.1288 LP  0  0  0  0  0  0  0  0  0  0  0  0  # atno 5921 bound_to 698 
    9.2535    2.7624   -3.0351 LP  0  0  0  0  0  0  0  0  0  0  0  0  # atno 5950 bound_to 2569
   10.7959    3.2494   -3.2602 LP  0  0  0  0  0  0  0  0  0  0  0  0  # atno 5951 bound_to 2569
    8.1401    6.8899    0.6667 LP  0  0  0  0  0  0  0  0  0  0  0  0  # atno 5982 bound_to 2887
    8.0012    5.2784    0.4415 LP  0  0  0  0  0  0  0  0  0  0  0  0  # atno 5983 bound_to 2887
   18.6963    2.6652    0.4077 LP  0  0  0  0  0  0  0  0  0  0  0  0  # atno 6000 bound_to 3171
   17.9465    1.9449   -0.8515 LP  0  0  0  0  0  0  0  0  0  0  0  0  # atno 6001 bound_to 3171
   12.6887    9.8994   10.0204 LP  0  0  0  0  0  0  0  0  0  0  0  0  # atno 6004 bound_to 5270
   14.3190    9.8934   10.1137 LP  0  0  0  0  0  0  0  0  0  0  0  0  # atno 6005 bound_to 5270
   11.3649   19.4556    8.3390 LP  0  0  0  0  0  0  0  0  0  0  0  0  # atno 6055 bound_to 637 
    9.7693   19.6802    8.6042 LP  0  0  0  0  0  0  0  0  0  0  0  0  # atno 6056 bound_to 637 
    0.6018   11.1307   11.0224 LP  0  0  0  0  0  0  0  0  0  0  0  0  # atno 6063 bound_to 1878
    1.6700   12.3370   10.7572 LP  0  0  0  0  0  0  0  0  0  0  0  0  # atno 6064 bound_to 1878
   -6.6475   17.1223   -1.1618 LP  0  0  0  0  0  0  0  0  0  0  0  0  # atno 6067 bound_to 957 
   -7.2101   16.1894    0.0548 LP  0  0  0  0  0  0  0  0  0  0  0  0  # atno 6068 bound_to 957 

>  <STRIFE_LigEff_Score>  (28) 
2.554325

$$$$
unknown|pharmsElabsTestPreDocking|sdf|5|dock6
     RDKit          3D

 17 17  0  0  0  0  0  0  0  0999 V2000
    3.3035    8.6237    2.3445 C   0  0  0  0  0  0  0  0  0  0  0  0
    4.6201    8.8328    2.2706 C   0  0  0  0  0  0  0  0  0  0  0  0
    5.5138    9.1502    3.4113 C   0  0  0  0  0  0  0  0  0  0  0  0
    5.0214    9.8083    4.4886 C   0  0  0  0  0  0  0  0  0  0  0  0
    5.8496   10.2383    5.6608 C   0  0  0  0  0  0  0  0  0  0  0  0
    6.9376    8.8826    3.3408 N   0  0  0  0  0  0  0  0  0  0  0  0
    7.9703    9.2703    2.4041 C   0  0  0  0  0  0  0  0  0  0  0  0
    7.6329   10.0524    1.4784 O   0  0  0  0  0  0  0  0  0  0  0  0
    9.4390    8.9439    2.4081 C   0  0  0  0  0  0  0  0  0  0  0  0
    9.7553    7.4868    2.7002 C   0  0  0  0  0  0  0  0  0  0  0  0
   11.2008    7.1137    2.4429 C   0  0  0  0  0  0  0  0  0  0  0  0
   12.2703    8.1745    2.7223 C   0  0  0  0  0  0  0  0  0  0  0  0
   13.6021    7.8930    1.9835 C   0  0  0  0  0  0  0  0  0  0  0  0
   14.5437    9.0661    1.7107 C   0  0  0  0  0  0  0  0  0  0  0  0
   13.4234    7.0401    0.8075 N   0  0  0  0  0  0  0  0  0  0  0  0
   11.8547    9.6529    2.5216 C   0  0  0  0  0  0  0  0  0  0  0  0
   10.4092   10.0125    2.8379 C   0  0  0  0  0  0  0  0  0  0  0  0
  1  2  2  0
  2  3  1  0
  3  4  2  0
  4  5  1  0
  3  6  1  0
  6  7  1  0
  7  8  2  0
  7  9  1  0
  9 10  1  0
 10 11  1  0
 11 12  1  0
 12 13  1  0
 13 14  1  0
 13 15  1  0
 12 16  1  0
 16 17  1  0
 17  9  1  0
M  CHG  1  15   1
M  END
>  <EmbedRMS>  (29) 
0.29216731409503444

>  <Gold.Version>  (29) 
2020.3.0

>  <Gold.Id.Protein>  (29) 
unknown|1q8t_protein|pdb

>  <Gold.PLP.Fitness>  (29) 
44.6563

>  <Gold.PLP.PLP>  (29) 
-39.1167

>  <Gold.PLP.part.hbond>  (29) 
-1.6832

>  <Gold.PLP.part.metal>  (29) 
0.0000

>  <Gold.PLP.part.buried>  (29) 
-2.4395

>  <Gold.PLP.part.nonpolar>  (29) 
-35.5748

>  <Gold.PLP.part.repulsive>  (29) 
0.0568

>  <Gold.PLP.ligand.clash>  (29) 
0.0000

>  <Gold.PLP.ligand.torsion>  (29) 
2.0418

>  <Gold.PLP.Chemscore.Hbond>  (29) 
2.8960

>  <Gold.PLP.Chemscore.CHOScore>  (29) 
0.0000

>  <Gold.PLP.Chemscore.Metal>  (29) 
0.0000

>  <Gold.Chemscore.Hbonds>  (29) 
donor molecule, donor type, donor heavy atom, donor atom, acceptor molecule, acceptor atom, score
      L1  H    15    37       P1  2902  2.00
      L1  H    15    38       P1  2691  0.90

>  <Gold.PLP.Chemscore.Internal.Correction>  (29) 
0.9351

>  <Gold.PLP.Constraint>  (29) 
-0.0000

>  <Gold.Protein.RotatedTorsions>  (29) 
[  681  677  676  673 ] final -144.51 input -179.99 | X-H torsion
[  702  698  697  694 ] final  -23.94 input  179.99 | X-H torsion
[ 2577 2569 2568 2566 ] final  -76.69 input   -0.13 | X-H torsion
[ 2891 2887 2886 2883 ] final -160.13 input  179.98 | X-H torsion
[ 3175 3171 3170 3167 ] final -137.42 input -179.99 | X-H torsion
[ 5278 5270 5269 5267 ] final -172.13 input    0.55 | X-H torsion
[  641  637  636  633 ] final  -77.32 input  179.99 | X-H torsion
[ 1886 1878 1877 1875 ] final  -35.20 input    1.60 | X-H torsion
[  965  957  956  954 ] final   15.21 input    0.45 | X-H torsion

>  <Gold.Protein.ActiveResidues>  (29) 
 LYS47   THR48   LEU49   GLY50   THR51   GLY52   SER53   PHE54   GLY55   ARG56  
 VAL57   MET58   LEU59   TYR69   ALA70   MET71   LYS72   ILE73   LEU74   GLU91  
 LEU95   VAL104  LYS105  MET118  VAL119  MET120  GLU121  TYR122  VAL123  PRO124 
 GLY125  GLY126  GLU127  MET128  PHE129  TYR164  ASP166  LEU167  LYS168  PRO169 
 GLU170  ASN171  LEU172  LEU173  ILE174  GLN181  VAL182  THR183  ASP184  PHE185 
 GLY186  PHE187  GLY200  THR201  ASN326  PHE327  TYR330  ARG18   ARG19   ASN20  
 ALA21   ILE22   HIS23  

>  <Gold.Protein.RotatedAtoms>  (29) 
   10.4170   18.9436    7.2689 H   0  0  0  0  0  0  0  0  0  0  0  0  # atno 641  bound_to 637 
   16.5442   13.9387    7.3278 H   0  0  0  0  0  0  0  0  0  0  0  0  # atno 681  bound_to 677 
   19.7556   11.7741   -0.3795 H   0  0  0  0  0  0  0  0  0  0  0  0  # atno 702  bound_to 698 
   -6.8158   15.3735   -0.7893 H   0  0  0  0  0  0  0  0  0  0  0  0  # atno 965  bound_to 957 
    1.9990   10.8299   10.3361 H   0  0  0  0  0  0  0  0  0  0  0  0  # atno 1886 bound_to 1878
   10.8508    3.1426   -3.2023 H   0  0  0  0  0  0  0  0  0  0  0  0  # atno 2577 bound_to 2569
    7.2658    6.4475    1.5480 H   0  0  0  0  0  0  0  0  0  0  0  0  # atno 2891 bound_to 2887
   18.6445    2.6003    0.3720 H   0  0  0  0  0  0  0  0  0  0  0  0  # atno 3175 bound_to 3171
   14.4196   10.0604    9.5106 H   0  0  0  0  0  0  0  0  0  0  0  0  # atno 5278 bound_to 5270
   17.1209   13.0637    6.1286 LP  0  0  0  0  0  0  0  0  0  0  0  0  # atno 5914 bound_to 677 
   15.6401   12.7630    6.7479 LP  0  0  0  0  0  0  0  0  0  0  0  0  # atno 5915 bound_to 677 
   21.1571   11.5226   -1.0937 LP  0  0  0  0  0  0  0  0  0  0  0  0  # atno 5920 bound_to 698 
   19.8044   11.7794   -1.9717 LP  0  0  0  0  0  0  0  0  0  0  0  0  # atno 5921 bound_to 698 
   10.3593    1.8913   -2.3491 LP  0  0  0  0  0  0  0  0  0  0  0  0  # atno 5950 bound_to 2569
    9.2862    2.8641   -3.1033 LP  0  0  0  0  0  0  0  0  0  0  0  0  # atno 5951 bound_to 2569
    8.3314    6.5866    0.3725 LP  0  0  0  0  0  0  0  0  0  0  0  0  # atno 5982 bound_to 2887
    7.6966    5.1326    0.7594 LP  0  0  0  0  0  0  0  0  0  0  0  0  # atno 5983 bound_to 2887
   17.9752    1.9570   -0.9218 LP  0  0  0  0  0  0  0  0  0  0  0  0  # atno 6000 bound_to 3171
   19.2914    2.9152   -1.0486 LP  0  0  0  0  0  0  0  0  0  0  0  0  # atno 6001 bound_to 3171
   12.9633   10.1841    8.8776 LP  0  0  0  0  0  0  0  0  0  0  0  0  # atno 6004 bound_to 5270
   13.1617    9.7979   10.4518 LP  0  0  0  0  0  0  0  0  0  0  0  0  # atno 6005 bound_to 5270
   11.3109   19.5177    8.4548 LP  0  0  0  0  0  0  0  0  0  0  0  0  # atno 6055 bound_to 637 
    9.6827   19.6329    8.5021 LP  0  0  0  0  0  0  0  0  0  0  0  0  # atno 6056 bound_to 637 
    0.5987   11.1438   11.0260 LP  0  0  0  0  0  0  0  0  0  0  0  0  # atno 6063 bound_to 1878
    1.6823   12.3342   10.7513 LP  0  0  0  0  0  0  0  0  0  0  0  0  # atno 6064 bound_to 1878
   -6.4767   16.7331   -1.5453 LP  0  0  0  0  0  0  0  0  0  0  0  0  # atno 6067 bound_to 957 
   -7.1530   16.7475   -0.0590 LP  0  0  0  0  0  0  0  0  0  0  0  0  # atno 6068 bound_to 957 

>  <STRIFE_LigEff_Score>  (29) 
2.626841176470588

$$$$
unknown|pharmsElabsTestPreDocking|sdf|6|dock2
     RDKit          3D

 18 19  0  0  0  0  0  0  0  0999 V2000
   14.8301    7.6704    3.4613 C   0  0  0  0  0  0  0  0  0  0  0  0
   13.8938    8.1166    2.3283 C   0  0  0  0  0  0  0  0  0  0  0  0
   14.0088    7.1999    1.1884 N   0  0  0  0  0  0  0  0  0  0  0  0
   12.4004    8.3849    2.7274 C   0  0  0  0  0  0  0  0  0  0  0  0
   11.3732    7.3669    2.1984 C   0  0  0  0  0  0  0  0  0  0  0  0
    9.9757    7.9179    1.9956 C   0  0  0  0  0  0  0  0  0  0  0  0
    9.5569    8.8730    3.1080 C   0  0  0  0  0  0  0  0  0  0  0  0
    8.1245    9.2851    2.8910 C   0  0  0  0  0  0  0  0  0  0  0  0
    7.8303    9.9626    1.8697 O   0  0  0  0  0  0  0  0  0  0  0  0
    7.1305    8.9263    3.8627 N   0  0  0  0  0  0  0  0  0  0  0  0
    5.7189    9.2157    3.8114 C   0  0  0  0  0  0  0  0  0  0  0  0
    5.0682    9.5792    5.0003 C   0  0  0  0  0  0  0  0  0  0  0  0
    3.7062    9.8740    4.9988 C   0  0  0  0  0  0  0  0  0  0  0  0
    2.9939    9.8047    3.8035 C   0  0  0  0  0  0  0  0  0  0  0  0
    3.6260    9.4528    2.6567 N   0  0  0  0  0  0  0  0  0  0  0  0
    4.9501    9.1602    2.6274 C   0  0  0  0  0  0  0  0  0  0  0  0
   10.4537   10.1162    3.1256 C   0  0  0  0  0  0  0  0  0  0  0  0
   11.9646    9.8359    3.0191 C   0  0  0  0  0  0  0  0  0  0  0  0
  1  2  1  0
  2  3  1  0
  2  4  1  0
  4  5  1  0
  5  6  1  0
  6  7  1  0
  7  8  1  0
  8  9  2  0
  8 10  1  0
 10 11  1  0
 11 12  2  0
 12 13  1  0
 13 14  2  0
 14 15  1  0
 15 16  2  0
  7 17  1  0
 17 18  1  0
 18  4  1  0
 16 11  1  0
M  CHG  1   3   1
M  END
>  <EmbedRMS>  (30) 
0.16496192233382964

>  <Gold.Version>  (30) 
2020.3.0

>  <Gold.Id.Protein>  (30) 
unknown|1q8t_protein|pdb

>  <Gold.PLP.Fitness>  (30) 
52.0315

>  <Gold.PLP.PLP>  (30) 
-42.6723

>  <Gold.PLP.part.hbond>  (30) 
-2.0000

>  <Gold.PLP.part.metal>  (30) 
0.0000

>  <Gold.PLP.part.buried>  (30) 
-3.1077

>  <Gold.PLP.part.nonpolar>  (30) 
-37.7843

>  <Gold.PLP.part.repulsive>  (30) 
0.1335

>  <Gold.PLP.ligand.clash>  (30) 
0.0000

>  <Gold.PLP.ligand.torsion>  (30) 
1.5459

>  <Gold.PLP.Chemscore.Hbond>  (30) 
3.0000

>  <Gold.PLP.Chemscore.CHOScore>  (30) 
0.9642

>  <Gold.PLP.Chemscore.Metal>  (30) 
0.0000

>  <Gold.Chemscore.Hbonds>  (30) 
donor molecule, donor type, donor heavy atom, donor atom, acceptor molecule, acceptor atom, score
      L1  H     3    24       P1  2902  2.00
      L1  H     3    25       P1  2691  1.00
      L1  C    14    35       P1  1855  0.96

>  <Gold.PLP.Chemscore.Internal.Correction>  (30) 
0.5585

>  <Gold.PLP.Constraint>  (30) 
-0.0000

>  <Gold.Protein.RotatedTorsions>  (30) 
[  681  677  676  673 ] final   53.90 input -179.99 | X-H torsion
[  702  698  697  694 ] final -113.32 input  179.99 | X-H torsion
[ 2577 2569 2568 2566 ] final  141.13 input   -0.13 | X-H torsion
[ 2891 2887 2886 2883 ] final  -69.82 input  179.98 | X-H torsion
[ 3175 3171 3170 3167 ] final -156.52 input -179.99 | X-H torsion
[ 5278 5270 5269 5267 ] final  161.91 input    0.55 | X-H torsion
[  641  637  636  633 ] final  -51.47 input  179.99 | X-H torsion
[ 1886 1878 1877 1875 ] final  -49.76 input    1.60 | X-H torsion
[  965  957  956  954 ] final   69.19 input    0.45 | X-H torsion

>  <Gold.Protein.ActiveResidues>  (30) 
 LYS47   THR48   LEU49   GLY50   THR51   GLY52   SER53   PHE54   GLY55   ARG56  
 VAL57   MET58   LEU59   TYR69   ALA70   MET71   LYS72   ILE73   LEU74   GLU91  
 LEU95   VAL104  LYS105  MET118  VAL119  MET120  GLU121  TYR122  VAL123  PRO124 
 GLY125  GLY126  GLU127  MET128  PHE129  TYR164  ASP166  LEU167  LYS168  PRO169 
 GLU170  ASN171  LEU172  LEU173  ILE174  GLN181  VAL182  THR183  ASP184  PHE185 
 GLY186  PHE187  GLY200  THR201  ASN326  PHE327  TYR330  ARG18   ARG19   ASN20  
 ALA21   ILE22   HIS23  

>  <Gold.Protein.RotatedAtoms>  (30) 
   10.0329   19.0115    7.3600 H   0  0  0  0  0  0  0  0  0  0  0  0  # atno 641  bound_to 637 
   16.5831   12.6952    6.0708 H   0  0  0  0  0  0  0  0  0  0  0  0  # atno 681  bound_to 677 
   20.9699   11.5640   -0.6450 H   0  0  0  0  0  0  0  0  0  0  0  0  # atno 702  bound_to 698 
   -7.1114   15.7486   -0.1319 H   0  0  0  0  0  0  0  0  0  0  0  0  # atno 965  bound_to 957 
    1.8314   10.6850   10.3853 H   0  0  0  0  0  0  0  0  0  0  0  0  # atno 1886 bound_to 1878
   10.0072    1.9074   -2.4065 H   0  0  0  0  0  0  0  0  0  0  0  0  # atno 2577 bound_to 2569
    7.4024    5.2642    1.1063 H   0  0  0  0  0  0  0  0  0  0  0  0  # atno 2891 bound_to 2887
   18.4082    2.4219    0.3458 H   0  0  0  0  0  0  0  0  0  0  0  0  # atno 3175 bound_to 3171
   14.2821   10.1496    9.1429 H   0  0  0  0  0  0  0  0  0  0  0  0  # atno 5278 bound_to 5270
   15.6253   13.2337    7.2236 LP  0  0  0  0  0  0  0  0  0  0  0  0  # atno 5914 bound_to 677 
   17.0947   13.9017    6.9757 LP  0  0  0  0  0  0  0  0  0  0  0  0  # atno 5915 bound_to 677 
   20.2840   11.6964   -2.0765 LP  0  0  0  0  0  0  0  0  0  0  0  0  # atno 5920 bound_to 698 
   19.4002   11.8267   -0.7096 LP  0  0  0  0  0  0  0  0  0  0  0  0  # atno 5921 bound_to 698 
    9.4668    3.1286   -3.2737 LP  0  0  0  0  0  0  0  0  0  0  0  0  # atno 5950 bound_to 2569
   11.0669    2.9273   -3.0167 LP  0  0  0  0  0  0  0  0  0  0  0  0  # atno 5951 bound_to 2569
    7.5010    6.8279    1.3921 LP  0  0  0  0  0  0  0  0  0  0  0  0  # atno 5982 bound_to 2887
    8.3833    6.1367    0.2046 LP  0  0  0  0  0  0  0  0  0  0  0  0  # atno 5983 bound_to 2887
   18.1356    2.0424   -1.1764 LP  0  0  0  0  0  0  0  0  0  0  0  0  # atno 6000 bound_to 3171
   19.3796    3.0175   -0.7665 LP  0  0  0  0  0  0  0  0  0  0  0  0  # atno 6001 bound_to 3171
   12.6908   10.1038    9.1918 LP  0  0  0  0  0  0  0  0  0  0  0  0  # atno 6004 bound_to 5270
   13.5788    9.7844   10.5244 LP  0  0  0  0  0  0  0  0  0  0  0  0  # atno 6005 bound_to 5270
   11.4111   19.3270    8.0922 LP  0  0  0  0  0  0  0  0  0  0  0  0  # atno 6055 bound_to 637 
    9.9870   19.7520    8.7687 LP  0  0  0  0  0  0  0  0  0  0  0  0  # atno 6056 bound_to 637 
    0.5743   11.3761   11.0763 LP  0  0  0  0  0  0  0  0  0  0  0  0  # atno 6063 bound_to 1878
    1.8831   12.2544   10.6491 LP  0  0  0  0  0  0  0  0  0  0  0  0  # atno 6064 bound_to 1878
   -6.4679   15.8783   -1.5825 LP  0  0  0  0  0  0  0  0  0  0  0  0  # atno 6067 bound_to 957 
   -6.8504   17.2073   -0.7142 LP  0  0  0  0  0  0  0  0  0  0  0  0  # atno 6068 bound_to 957 

>  <STRIFE_LigEff_Score>  (30) 
2.8906388888888888

$$$$
unknown|pharmsElabsTestPreDocking|sdf|7|dock3
     RDKit          3D

 17 17  0  0  0  0  0  0  0  0999 V2000
    5.7238   10.0904    5.5753 C   0  0  0  0  0  0  0  0  0  0  0  0
    4.8391    9.9218    4.3774 C   0  0  0  0  0  0  0  0  0  0  0  0
    5.1817    9.2274    3.2739 C   0  0  0  0  0  0  0  0  0  0  0  0
    4.1375    9.0311    2.2406 C   0  0  0  0  0  0  0  0  0  0  0  0
    2.9359    9.4887    2.3770 N   0  0  0  0  0  0  0  0  0  0  0  0
    6.4966    8.6286    3.1272 N   0  0  0  0  0  0  0  0  0  0  0  0
    7.5242    9.2615    2.3388 C   0  0  0  0  0  0  0  0  0  0  0  0
    7.2075   10.1848    1.5511 O   0  0  0  0  0  0  0  0  0  0  0  0
    8.9896    8.9335    2.3641 C   0  0  0  0  0  0  0  0  0  0  0  0
    9.2906    7.5113    2.7654 C   0  0  0  0  0  0  0  0  0  0  0  0
   10.7264    7.1078    2.4739 C   0  0  0  0  0  0  0  0  0  0  0  0
   11.8062    8.1558    2.7781 C   0  0  0  0  0  0  0  0  0  0  0  0
   13.1479    7.8954    2.0489 C   0  0  0  0  0  0  0  0  0  0  0  0
   14.0627    9.0849    1.7612 C   0  0  0  0  0  0  0  0  0  0  0  0
   12.9924    7.0232    0.8831 N   0  0  0  0  0  0  0  0  0  0  0  0
   11.3914    9.6435    2.6265 C   0  0  0  0  0  0  0  0  0  0  0  0
    9.9258    9.9884    2.8862 C   0  0  0  0  0  0  0  0  0  0  0  0
  1  2  1  0
  2  3  2  0
  3  4  1  0
  4  5  2  0
  3  6  1  0
  6  7  1  0
  7  8  2  0
  7  9  1  0
  9 10  1  0
 10 11  1  0
 11 12  1  0
 12 13  1  0
 13 14  1  0
 13 15  1  0
 12 16  1  0
 16 17  1  0
 17  9  1  0
M  CHG  1  15   1
M  END
>  <EmbedRMS>  (31) 
0.3022183700925627

>  <Gold.Version>  (31) 
2020.3.0

>  <Gold.Id.Protein>  (31) 
unknown|1q8t_protein|pdb

>  <Gold.PLP.Fitness>  (31) 
43.6738

>  <Gold.PLP.PLP>  (31) 
-37.9004

>  <Gold.PLP.part.hbond>  (31) 
-2.2666

>  <Gold.PLP.part.metal>  (31) 
0.0000

>  <Gold.PLP.part.buried>  (31) 
-2.7481

>  <Gold.PLP.part.nonpolar>  (31) 
-33.2050

>  <Gold.PLP.part.repulsive>  (31) 
0.0541

>  <Gold.PLP.ligand.clash>  (31) 
0.0000

>  <Gold.PLP.ligand.torsion>  (31) 
2.1953

>  <Gold.PLP.Chemscore.Hbond>  (31) 
2.9920

>  <Gold.PLP.Chemscore.CHOScore>  (31) 
0.0000

>  <Gold.PLP.Chemscore.Metal>  (31) 
0.0000

>  <Gold.Chemscore.Hbonds>  (31) 
donor molecule, donor type, donor heavy atom, donor atom, acceptor molecule, acceptor atom, score
      L1  H     5    23       P1  1855  0.48
      L1  H    15    36       P1  2691  0.51
      L1  H    15    37       P1  2902  2.00

>  <Gold.PLP.Chemscore.Internal.Correction>  (31) 
1.1880

>  <Gold.PLP.Constraint>  (31) 
-0.0000

>  <Gold.Protein.RotatedTorsions>  (31) 
[  681  677  676  673 ] final    3.40 input -179.99 | X-H torsion
[  702  698  697  694 ] final  -55.22 input  179.99 | X-H torsion
[ 2577 2569 2568 2566 ] final  -45.82 input   -0.13 | X-H torsion
[ 2891 2887 2886 2883 ] final -175.84 input  179.98 | X-H torsion
[ 3175 3171 3170 3167 ] final -121.61 input -179.99 | X-H torsion
[ 5278 5270 5269 5267 ] final    0.73 input    0.55 | X-H torsion
[  641  637  636  633 ] final  -14.48 input  179.99 | X-H torsion
[ 1886 1878 1877 1875 ] final   34.16 input    1.60 | X-H torsion
[  965  957  956  954 ] final  -34.95 input    0.45 | X-H torsion

>  <Gold.Protein.ActiveResidues>  (31) 
 LYS47   THR48   LEU49   GLY50   THR51   GLY52   SER53   PHE54   GLY55   ARG56  
 VAL57   MET58   LEU59   TYR69   ALA70   MET71   LYS72   ILE73   LEU74   GLU91  
 LEU95   VAL104  LYS105  MET118  VAL119  MET120  GLU121  TYR122  VAL123  PRO124 
 GLY125  GLY126  GLU127  MET128  PHE129  TYR164  ASP166  LEU167  LYS168  PRO169 
 GLU170  ASN171  LEU172  LEU173  ILE174  GLN181  VAL182  THR183  ASP184  PHE185 
 GLY186  PHE187  GLY200  THR201  ASN326  PHE327  TYR330  ARG18   ARG19   ASN20  
 ALA21   ILE22   HIS23  

>  <Gold.Protein.RotatedAtoms>  (31) 
    9.6508   19.2194    7.7253 H   0  0  0  0  0  0  0  0  0  0  0  0  # atno 641  bound_to 637 
   15.9064   12.6231    6.4185 H   0  0  0  0  0  0  0  0  0  0  0  0  # atno 681  bound_to 677 
   20.2104   11.6908   -0.2391 H   0  0  0  0  0  0  0  0  0  0  0  0  # atno 702  bound_to 698 
   -6.5274   15.6891   -1.4164 H   0  0  0  0  0  0  0  0  0  0  0  0  # atno 965  bound_to 957 
    2.1880   11.8276   10.4230 H   0  0  0  0  0  0  0  0  0  0  0  0  # atno 1886 bound_to 1878
   10.4536    3.3444   -3.3716 H   0  0  0  0  0  0  0  0  0  0  0  0  # atno 2577 bound_to 2569
    7.3781    6.6492    1.4662 H   0  0  0  0  0  0  0  0  0  0  0  0  # atno 2891 bound_to 2887
   18.8412    2.7391    0.3194 H   0  0  0  0  0  0  0  0  0  0  0  0  # atno 3175 bound_to 3171
   12.6613    9.9646    9.8244 H   0  0  0  0  0  0  0  0  0  0  0  0  # atno 5278 bound_to 5270
   16.1429   13.8002    7.4647 LP  0  0  0  0  0  0  0  0  0  0  0  0  # atno 5914 bound_to 677 
   17.2893   13.4112    6.3688 LP  0  0  0  0  0  0  0  0  0  0  0  0  # atno 5915 bound_to 677 
   21.0453   11.5520   -1.5886 LP  0  0  0  0  0  0  0  0  0  0  0  0  # atno 5920 bound_to 698 
   19.4379   11.8376   -1.6244 LP  0  0  0  0  0  0  0  0  0  0  0  0  # atno 5921 bound_to 698 
   10.8072    2.0912   -2.4552 LP  0  0  0  0  0  0  0  0  0  0  0  0  # atno 5950 bound_to 2569
    9.2566    2.4516   -2.8190 LP  0  0  0  0  0  0  0  0  0  0  0  0  # atno 5951 bound_to 2569
    8.3794    6.3587    0.2623 LP  0  0  0  0  0  0  0  0  0  0  0  0  # atno 5982 bound_to 2887
    7.5304    5.1483    0.9557 LP  0  0  0  0  0  0  0  0  0  0  0  0  # atno 5983 bound_to 2887
   17.8967    1.9310   -0.6759 LP  0  0  0  0  0  0  0  0  0  0  0  0  # atno 6000 bound_to 3171
   19.1628    2.7950   -1.2392 LP  0  0  0  0  0  0  0  0  0  0  0  0  # atno 6001 bound_to 3171
   14.1868    9.8537   10.2688 LP  0  0  0  0  0  0  0  0  0  0  0  0  # atno 6004 bound_to 5270
   13.7882   10.2291    8.7303 LP  0  0  0  0  0  0  0  0  0  0  0  0  # atno 6005 bound_to 5270
   11.2299   19.0758    7.5804 LP  0  0  0  0  0  0  0  0  0  0  0  0  # atno 6055 bound_to 637 
   10.5706   19.7843    8.8957 LP  0  0  0  0  0  0  0  0  0  0  0  0  # atno 6056 bound_to 637 
    1.3338   10.4944   10.5911 LP  0  0  0  0  0  0  0  0  0  0  0  0  # atno 6063 bound_to 1878
    0.7482   11.9333   11.0947 LP  0  0  0  0  0  0  0  0  0  0  0  0  # atno 6064 bound_to 1878
   -6.7428   17.1964   -0.9508 LP  0  0  0  0  0  0  0  0  0  0  0  0  # atno 6067 bound_to 957 
   -7.1906   15.9519    0.0070 LP  0  0  0  0  0  0  0  0  0  0  0  0  # atno 6068 bound_to 957 

>  <STRIFE_LigEff_Score>  (31) 
2.5690470588235295

$$$$
unknown|pharmsElabsTestPreDocking|sdf|8|dock4
     RDKit          3D

 18 19  0  0  0  0  0  0  0  0999 V2000
   14.7454    7.2836    3.5202 C   0  0  0  0  0  0  0  0  0  0  0  0
   13.8713    7.8914    2.4128 C   0  0  0  0  0  0  0  0  0  0  0  0
   13.9776    7.0892    1.1889 N   0  0  0  0  0  0  0  0  0  0  0  0
   12.3810    8.1984    2.7951 C   0  0  0  0  0  0  0  0  0  0  0  0
   11.3394    7.1778    2.3003 C   0  0  0  0  0  0  0  0  0  0  0  0
    9.9518    7.7431    2.0709 C   0  0  0  0  0  0  0  0  0  0  0  0
    9.5444    8.7459    3.1450 C   0  0  0  0  0  0  0  0  0  0  0  0
    8.1196    9.1725    2.9065 C   0  0  0  0  0  0  0  0  0  0  0  0
    7.8347    9.7893    1.8449 O   0  0  0  0  0  0  0  0  0  0  0  0
    7.1228    8.8968    3.9022 N   0  0  0  0  0  0  0  0  0  0  0  0
    5.7172    9.2111    3.8368 C   0  0  0  0  0  0  0  0  0  0  0  0
    5.0824    9.6769    4.9983 C   0  0  0  0  0  0  0  0  0  0  0  0
    3.7268    9.9993    4.9819 C   0  0  0  0  0  0  0  0  0  0  0  0
    3.0049    9.8549    3.7993 C   0  0  0  0  0  0  0  0  0  0  0  0
    3.6215    9.4041    2.6789 N   0  0  0  0  0  0  0  0  0  0  0  0
    4.9390    9.0824    2.6647 C   0  0  0  0  0  0  0  0  0  0  0  0
   10.4611    9.9744    3.1198 C   0  0  0  0  0  0  0  0  0  0  0  0
   11.9676    9.6662    3.0304 C   0  0  0  0  0  0  0  0  0  0  0  0
  1  2  1  0
  2  3  1  0
  2  4  1  0
  4  5  1  0
  5  6  1  0
  6  7  1  0
  7  8  1  0
  8  9  2  0
  8 10  1  0
 10 11  1  0
 11 12  2  0
 12 13  1  0
 13 14  2  0
 14 15  1  0
 15 16  2  0
  7 17  1  0
 17 18  1  0
 18  4  1  0
 16 11  1  0
M  CHG  1   3   1
M  END
>  <EmbedRMS>  (32) 
0.16496192233382964

>  <Gold.Version>  (32) 
2020.3.0

>  <Gold.Id.Protein>  (32) 
unknown|1q8t_protein|pdb

>  <Gold.PLP.Fitness>  (32) 
52.6356

>  <Gold.PLP.PLP>  (32) 
-43.1773

>  <Gold.PLP.part.hbond>  (32) 
-2.0000

>  <Gold.PLP.part.metal>  (32) 
0.0000

>  <Gold.PLP.part.buried>  (32) 
-2.3931

>  <Gold.PLP.part.nonpolar>  (32) 
-38.7872

>  <Gold.PLP.part.repulsive>  (32) 
0.1414

>  <Gold.PLP.ligand.clash>  (32) 
0.0000

>  <Gold.PLP.ligand.torsion>  (32) 
1.5185

>  <Gold.PLP.Chemscore.Hbond>  (32) 
3.0000

>  <Gold.PLP.Chemscore.CHOScore>  (32) 
0.9776

>  <Gold.PLP.Chemscore.Metal>  (32) 
0.0000

>  <Gold.Chemscore.Hbonds>  (32) 
donor molecule, donor type, donor heavy atom, donor atom, acceptor molecule, acceptor atom, score
      L1  H     3    24       P1  2902  2.00
      L1  H     3    25       P1  2691  1.00
      L1  C    14    35       P1  1855  0.98

>  <Gold.PLP.Chemscore.Internal.Correction>  (32) 
0.5624

>  <Gold.PLP.Constraint>  (32) 
-0.0000

>  <Gold.Protein.RotatedTorsions>  (32) 
[  681  677  676  673 ] final  173.37 input -179.99 | X-H torsion
[  702  698  697  694 ] final  141.77 input  179.99 | X-H torsion
[ 2577 2569 2568 2566 ] final  156.22 input   -0.13 | X-H torsion
[ 2891 2887 2886 2883 ] final  174.95 input  179.98 | X-H torsion
[ 3175 3171 3170 3167 ] final  -52.15 input -179.99 | X-H torsion
[ 5278 5270 5269 5267 ] final   66.88 input    0.55 | X-H torsion
[  641  637  636  633 ] final  -50.28 input  179.99 | X-H torsion
[ 1886 1878 1877 1875 ] final  -92.97 input    1.60 | X-H torsion
[  965  957  956  954 ] final    0.47 input    0.45 | X-H torsion

>  <Gold.Protein.ActiveResidues>  (32) 
 LYS47   THR48   LEU49   GLY50   THR51   GLY52   SER53   PHE54   GLY55   ARG56  
 VAL57   MET58   LEU59   TYR69   ALA70   MET71   LYS72   ILE73   LEU74   GLU91  
 LEU95   VAL104  LYS105  MET118  VAL119  MET120  GLU121  TYR122  VAL123  PRO124 
 GLY125  GLY126  GLU127  MET128  PHE129  TYR164  ASP166  LEU167  LYS168  PRO169 
 GLU170  ASN171  LEU172  LEU173  ILE174  GLN181  VAL182  THR183  ASP184  PHE185 
 GLY186  PHE187  GLY200  THR201  ASN326  PHE327  TYR330  ARG18   ARG19   ASN20  
 ALA21   ILE22   HIS23  

>  <Gold.Protein.RotatedAtoms>  (32) 
   10.0168   19.0164    7.3678 H   0  0  0  0  0  0  0  0  0  0  0  0  # atno 641  bound_to 637 
   17.0602   13.8777    6.9476 H   0  0  0  0  0  0  0  0  0  0  0  0  # atno 681  bound_to 677 
   20.5118   11.6711   -1.9861 H   0  0  0  0  0  0  0  0  0  0  0  0  # atno 702  bound_to 698 
   -6.7211   15.4009   -0.9967 H   0  0  0  0  0  0  0  0  0  0  0  0  # atno 965  bound_to 957 
    1.2318   10.5565   10.6277 H   0  0  0  0  0  0  0  0  0  0  0  0  # atno 1886 bound_to 1878
   10.2416    1.9038   -2.3868 H   0  0  0  0  0  0  0  0  0  0  0  0  # atno 2577 bound_to 2569
    7.4574    6.7479    1.3980 H   0  0  0  0  0  0  0  0  0  0  0  0  # atno 2891 bound_to 2887
   19.3634    3.0170   -0.5122 H   0  0  0  0  0  0  0  0  0  0  0  0  # atno 3175 bound_to 3171
   12.9790   10.1893    8.9270 H   0  0  0  0  0  0  0  0  0  0  0  0  # atno 5278 bound_to 5270
   16.5898   12.6506    6.0480 LP  0  0  0  0  0  0  0  0  0  0  0  0  # atno 5914 bound_to 677 
   15.6280   13.2403    7.2286 LP  0  0  0  0  0  0  0  0  0  0  0  0  # atno 5915 bound_to 677 
   19.3203   11.8453   -0.9433 LP  0  0  0  0  0  0  0  0  0  0  0  0  # atno 5920 bound_to 698 
   20.8457   11.5651   -0.4321 LP  0  0  0  0  0  0  0  0  0  0  0  0  # atno 5921 bound_to 698 
    9.3305    2.9542   -3.1626 LP  0  0  0  0  0  0  0  0  0  0  0  0  # atno 5950 bound_to 2569
   10.9564    3.1055   -3.1485 LP  0  0  0  0  0  0  0  0  0  0  0  0  # atno 5951 bound_to 2569
    8.3861    6.2137    0.2197 LP  0  0  0  0  0  0  0  0  0  0  0  0  # atno 5982 bound_to 2887
    7.4402    5.1895    1.0700 LP  0  0  0  0  0  0  0  0  0  0  0  0  # atno 5983 bound_to 2887
   18.2013    2.2834    0.2921 LP  0  0  0  0  0  0  0  0  0  0  0  0  # atno 6000 bound_to 3171
   18.3087    2.1503   -1.3319 LP  0  0  0  0  0  0  0  0  0  0  0  0  # atno 6001 bound_to 3171
   13.1767    9.7966   10.4578 LP  0  0  0  0  0  0  0  0  0  0  0  0  # atno 6004 bound_to 5270
   14.4640   10.0498    9.4855 LP  0  0  0  0  0  0  0  0  0  0  0  0  # atno 6005 bound_to 5270
   11.4112   19.3181    8.0748 LP  0  0  0  0  0  0  0  0  0  0  0  0  # atno 6055 bound_to 637 
   10.0038   19.7558    8.7779 LP  0  0  0  0  0  0  0  0  0  0  0  0  # atno 6056 bound_to 637 
    0.8181   12.0261   11.0797 LP  0  0  0  0  0  0  0  0  0  0  0  0  # atno 6063 bound_to 1878
    2.2705   11.7397   10.3905 LP  0  0  0  0  0  0  0  0  0  0  0  0  # atno 6064 bound_to 1878
   -6.5353   16.9266   -1.4125 LP  0  0  0  0  0  0  0  0  0  0  0  0  # atno 6067 bound_to 957 
   -7.1941   16.5252    0.0267 LP  0  0  0  0  0  0  0  0  0  0  0  0  # atno 6068 bound_to 957 

>  <STRIFE_LigEff_Score>  (32) 
2.9242

$$$$
unknown|pharmsElabsTestPreDocking|sdf|9|dock2
     RDKit          3D

 17 17  0  0  0  0  0  0  0  0999 V2000
    5.7555   10.1000    5.6061 C   0  0  0  0  0  0  0  0  0  0  0  0
    5.0250    9.7858    4.5286 C   0  0  0  0  0  0  0  0  0  0  0  0
    3.5221    9.9585    4.6399 C   0  0  0  0  0  0  0  0  0  0  0  0
    5.6525    9.2958    3.2472 C   0  0  0  0  0  0  0  0  0  0  0  0
    4.8561    9.2264    2.1553 C   0  0  0  0  0  0  0  0  0  0  0  0
    7.0799    8.9576    3.1855 N   0  0  0  0  0  0  0  0  0  0  0  0
    8.0113    9.4207    2.1793 C   0  0  0  0  0  0  0  0  0  0  0  0
    7.6103   10.0813    1.1979 O   0  0  0  0  0  0  0  0  0  0  0  0
    9.4894    9.1690    2.1600 C   0  0  0  0  0  0  0  0  0  0  0  0
    9.8504    7.7353    1.8018 C   0  0  0  0  0  0  0  0  0  0  0  0
   11.3223    7.3962    1.9994 C   0  0  0  0  0  0  0  0  0  0  0  0
   12.2575    8.6123    1.8713 C   0  0  0  0  0  0  0  0  0  0  0  0
   13.7411    8.1278    1.9791 C   0  0  0  0  0  0  0  0  0  0  0  0
   14.0348    7.6032    3.3963 C   0  0  0  0  0  0  0  0  0  0  0  0
   14.0629    7.0807    0.9999 N   0  0  0  0  0  0  0  0  0  0  0  0
   11.8831    9.6553    2.9565 C   0  0  0  0  0  0  0  0  0  0  0  0
   10.3826   10.0127    3.0463 C   0  0  0  0  0  0  0  0  0  0  0  0
  1  2  2  0
  2  3  1  0
  2  4  1  0
  4  5  2  0
  4  6  1  0
  6  7  1  0
  7  8  2  0
  7  9  1  0
  9 10  1  0
 10 11  1  0
 11 12  1  0
 12 13  1  0
 13 14  1  0
 13 15  1  0
 12 16  1  0
 16 17  1  0
 17  9  1  0
M  CHG  1  15   1
M  END
>  <EmbedRMS>  (33) 
0.18263911859618057

>  <Gold.Version>  (33) 
2020.3.0

>  <Gold.Id.Protein>  (33) 
unknown|1q8t_protein|pdb

>  <Gold.PLP.Fitness>  (33) 
50.0981

>  <Gold.PLP.PLP>  (33) 
-42.1349

>  <Gold.PLP.part.hbond>  (33) 
-2.0000

>  <Gold.PLP.part.metal>  (33) 
0.0000

>  <Gold.PLP.part.buried>  (33) 
-1.7147

>  <Gold.PLP.part.nonpolar>  (33) 
-38.1366

>  <Gold.PLP.part.repulsive>  (33) 
0.0662

>  <Gold.PLP.ligand.clash>  (33) 
0.0000

>  <Gold.PLP.ligand.torsion>  (33) 
0.9053

>  <Gold.PLP.Chemscore.Hbond>  (33) 
2.9840

>  <Gold.PLP.Chemscore.CHOScore>  (33) 
0.0000

>  <Gold.PLP.Chemscore.Metal>  (33) 
0.0000

>  <Gold.Chemscore.Hbonds>  (33) 
donor molecule, donor type, donor heavy atom, donor atom, acceptor molecule, acceptor atom, score
      L1  H    15    36       P1  2902  1.98
      L1  H    15    38       P1  2691  1.00

>  <Gold.PLP.Chemscore.Internal.Correction>  (33) 
0.8217

>  <Gold.PLP.Constraint>  (33) 
-0.0000

>  <Gold.Protein.RotatedTorsions>  (33) 
[  681  677  676  673 ] final -108.62 input -179.99 | X-H torsion
[  702  698  697  694 ] final  136.85 input  179.99 | X-H torsion
[ 2577 2569 2568 2566 ] final  147.30 input   -0.13 | X-H torsion
[ 2891 2887 2886 2883 ] final   30.81 input  179.98 | X-H torsion
[ 3175 3171 3170 3167 ] final -119.43 input -179.99 | X-H torsion
[ 5278 5270 5269 5267 ] final  -15.15 input    0.55 | X-H torsion
[  641  637  636  633 ] final -163.46 input  179.99 | X-H torsion
[ 1886 1878 1877 1875 ] final  102.30 input    1.60 | X-H torsion
[  965  957  956  954 ] final  157.96 input    0.45 | X-H torsion

>  <Gold.Protein.ActiveResidues>  (33) 
 LYS47   THR48   LEU49   GLY50   THR51   GLY52   SER53   PHE54   GLY55   ARG56  
 VAL57   MET58   LEU59   TYR69   ALA70   MET71   LYS72   ILE73   LEU74   GLU91  
 LEU95   VAL104  LYS105  MET118  VAL119  MET120  GLU121  TYR122  VAL123  PRO124 
 GLY125  GLY126  GLU127  MET128  PHE129  TYR164  ASP166  LEU167  LYS168  PRO169 
 GLU170  ASN171  LEU172  LEU173  ILE174  GLN181  VAL182  THR183  ASP184  PHE185 
 GLY186  PHE187  GLY200  THR201  ASN326  PHE327  TYR330  ARG18   ARG19   ASN20  
 ALA21   ILE22   HIS23  

>  <Gold.Protein.RotatedAtoms>  (33) 
   11.3559   19.2576    7.9866 H   0  0  0  0  0  0  0  0  0  0  0  0  # atno 641  bound_to 637 
   16.0469   13.7158    7.4149 H   0  0  0  0  0  0  0  0  0  0  0  0  # atno 681  bound_to 677 
   20.4390   11.6844   -2.0070 H   0  0  0  0  0  0  0  0  0  0  0  0  # atno 702  bound_to 698 
   -7.0217   16.9862   -0.3032 H   0  0  0  0  0  0  0  0  0  0  0  0  # atno 965  bound_to 957 
    1.4155   12.3086   10.8456 H   0  0  0  0  0  0  0  0  0  0  0  0  # atno 1886 bound_to 1878
   10.1026    1.8998   -2.3942 H   0  0  0  0  0  0  0  0  0  0  0  0  # atno 2577 bound_to 2569
    8.2875    5.8388    0.2187 H   0  0  0  0  0  0  0  0  0  0  0  0  # atno 2891 bound_to 2887
   18.8675    2.7570    0.3070 H   0  0  0  0  0  0  0  0  0  0  0  0  # atno 3175 bound_to 3171
   12.7543    9.9106   10.0473 H   0  0  0  0  0  0  0  0  0  0  0  0  # atno 5278 bound_to 5270
   17.3017   13.5076    6.4567 LP  0  0  0  0  0  0  0  0  0  0  0  0  # atno 5914 bound_to 677 
   15.9827   12.5536    6.3280 LP  0  0  0  0  0  0  0  0  0  0  0  0  # atno 5915 bound_to 677 
   19.3396   11.8404   -0.8648 LP  0  0  0  0  0  0  0  0  0  0  0  0  # atno 5920 bound_to 698 
   20.9030   11.5560   -0.4886 LP  0  0  0  0  0  0  0  0  0  0  0  0  # atno 5921 bound_to 698 
    9.4045    3.0607   -3.2311 LP  0  0  0  0  0  0  0  0  0  0  0  0  # atno 5950 bound_to 2569
   11.0288    3.0033   -3.0722 LP  0  0  0  0  0  0  0  0  0  0  0  0  # atno 5951 bound_to 2569
    7.2482    5.3998    1.3428 LP  0  0  0  0  0  0  0  0  0  0  0  0  # atno 5982 bound_to 2887
    7.7045    6.9601    1.1880 LP  0  0  0  0  0  0  0  0  0  0  0  0  # atno 5983 bound_to 2887
   17.8902    1.9308   -0.6407 LP  0  0  0  0  0  0  0  0  0  0  0  0  # atno 6000 bound_to 3171
   19.1417    2.7765   -1.2614 LP  0  0  0  0  0  0  0  0  0  0  0  0  # atno 6001 bound_to 3171
   14.3469    9.9045   10.0698 LP  0  0  0  0  0  0  0  0  0  0  0  0  # atno 6004 bound_to 5270
   13.5303   10.2351    8.6948 LP  0  0  0  0  0  0  0  0  0  0  0  0  # atno 6005 bound_to 5270
   10.1042   19.7738    8.8243 LP  0  0  0  0  0  0  0  0  0  0  0  0  # atno 6055 bound_to 637 
    9.9005   19.0460    7.3767 LP  0  0  0  0  0  0  0  0  0  0  0  0  # atno 6056 bound_to 637 
    2.1963   11.0316   10.3025 LP  0  0  0  0  0  0  0  0  0  0  0  0  # atno 6063 bound_to 1878
    0.6989   10.8898   10.9384 LP  0  0  0  0  0  0  0  0  0  0  0  0  # atno 6064 bound_to 1878
   -6.9813   15.4027   -0.4644 LP  0  0  0  0  0  0  0  0  0  0  0  0  # atno 6067 bound_to 957 
   -6.4316   16.3795   -1.6519 LP  0  0  0  0  0  0  0  0  0  0  0  0  # atno 6068 bound_to 957 

>  <STRIFE_LigEff_Score>  (33) 
2.9469470588235294

$$$$
unknown|pharmsElabsTestPreDocking|sdf|34|dock8
     RDKit          3D

 17 17  0  0  0  0  0  0  0  0999 V2000
    5.8496   10.0998    5.5989 C   0  0  0  0  0  0  0  0  0  0  0  0
    4.9467    9.9350    4.4142 C   0  0  0  0  0  0  0  0  0  0  0  0
    5.2690    9.2366    3.3070 C   0  0  0  0  0  0  0  0  0  0  0  0
    4.2088    9.0452    2.2892 C   0  0  0  0  0  0  0  0  0  0  0  0
    2.9980    9.4633    2.4657 N   0  0  0  0  0  0  0  0  0  0  0  0
    6.5777    8.6289    3.1426 N   0  0  0  0  0  0  0  0  0  0  0  0
    7.6035    9.2619    2.3519 C   0  0  0  0  0  0  0  0  0  0  0  0
    7.2873   10.1960    1.5766 O   0  0  0  0  0  0  0  0  0  0  0  0
    9.0663    8.9222    2.3609 C   0  0  0  0  0  0  0  0  0  0  0  0
    9.3653    7.5209    2.8313 C   0  0  0  0  0  0  0  0  0  0  0  0
   10.7906    7.0890    2.5288 C   0  0  0  0  0  0  0  0  0  0  0  0
   11.8856    8.1418    2.7509 C   0  0  0  0  0  0  0  0  0  0  0  0
   13.2076    7.8300    2.0060 C   0  0  0  0  0  0  0  0  0  0  0  0
   14.1736    8.9802    1.7258 C   0  0  0  0  0  0  0  0  0  0  0  0
   13.0021    6.9819    0.8301 N   0  0  0  0  0  0  0  0  0  0  0  0
   11.4793    9.6229    2.5289 C   0  0  0  0  0  0  0  0  0  0  0  0
   10.0230    9.9949    2.8035 C   0  0  0  0  0  0  0  0  0  0  0  0
  1  2  1  0
  2  3  2  0
  3  4  1  0
  4  5  2  0
  3  6  1  0
  6  7  1  0
  7  8  2  0
  7  9  1  0
  9 10  1  0
 10 11  1  0
 11 12  1  0
 12 13  1  0
 13 14  1  0
 13 15  1  0
 12 16  1  0
 16 17  1  0
 17  9  1  0
M  CHG  1  15   1
M  END
>  <EmbedRMS>  (34) 
0.3022183700925627

>  <Gold.Version>  (34) 
2020.3.0

>  <Gold.Id.Protein>  (34) 
unknown|1q8t_protein|pdb

>  <Gold.PLP.Fitness>  (34) 
43.6011

>  <Gold.PLP.PLP>  (34) 
-37.6633

>  <Gold.PLP.part.hbond>  (34) 
-2.0251

>  <Gold.PLP.part.metal>  (34) 
0.0000

>  <Gold.PLP.part.buried>  (34) 
-2.8872

>  <Gold.PLP.part.nonpolar>  (34) 
-32.7742

>  <Gold.PLP.part.repulsive>  (34) 
0.0575

>  <Gold.PLP.ligand.clash>  (34) 
0.0000

>  <Gold.PLP.ligand.torsion>  (34) 
1.9910

>  <Gold.PLP.Chemscore.Hbond>  (34) 
2.9920

>  <Gold.PLP.Chemscore.CHOScore>  (34) 
0.0000

>  <Gold.PLP.Chemscore.Metal>  (34) 
0.0000

>  <Gold.Chemscore.Hbonds>  (34) 
donor molecule, donor type, donor heavy atom, donor atom, acceptor molecule, acceptor atom, score
      L1  H     5    23       P1  1855  0.54
      L1  H    15    35       P1  2902  1.98
      L1  H    15    37       P1  2691  0.46

>  <Gold.PLP.Chemscore.Internal.Correction>  (34) 
0.9439

>  <Gold.PLP.Constraint>  (34) 
-0.0000

>  <Gold.Protein.RotatedTorsions>  (34) 
[  681  677  676  673 ] final   80.01 input -179.99 | X-H torsion
[  702  698  697  694 ] final  137.69 input  179.99 | X-H torsion
[ 2577 2569 2568 2566 ] final -132.50 input   -0.13 | X-H torsion
[ 2891 2887 2886 2883 ] final -103.14 input  179.98 | X-H torsion
[ 3175 3171 3170 3167 ] final   -8.52 input -179.99 | X-H torsion
[ 5278 5270 5269 5267 ] final -125.53 input    0.55 | X-H torsion
[  641  637  636  633 ] final -136.01 input  179.99 | X-H torsion
[ 1886 1878 1877 1875 ] final -134.35 input    1.60 | X-H torsion
[  965  957  956  954 ] final  -14.57 input    0.45 | X-H torsion

>  <Gold.Protein.ActiveResidues>  (34) 
 LYS47   THR48   LEU49   GLY50   THR51   GLY52   SER53   PHE54   GLY55   ARG56  
 VAL57   MET58   LEU59   TYR69   ALA70   MET71   LYS72   ILE73   LEU74   GLU91  
 LEU95   VAL104  LYS105  MET118  VAL119  MET120  GLU121  TYR122  VAL123  PRO124 
 GLY125  GLY126  GLU127  MET128  PHE129  TYR164  ASP166  LEU167  LYS168  PRO169 
 GLU170  ASN171  LEU172  LEU173  ILE174  GLN181  VAL182  THR183  ASP184  PHE185 
 GLY186  PHE187  GLY200  THR201  ASN326  PHE327  TYR330  ARG18   ARG19   ASN20  
 ALA21   ILE22   HIS23  

>  <Gold.Protein.RotatedAtoms>  (34) 
   11.2046   19.0838    7.6297 H   0  0  0  0  0  0  0  0  0  0  0  0  # atno 641  bound_to 637 
   16.9225   12.9156    6.0791 H   0  0  0  0  0  0  0  0  0  0  0  0  # atno 681  bound_to 677 
   20.4516   11.6821   -2.0038 H   0  0  0  0  0  0  0  0  0  0  0  0  # atno 702  bound_to 698 
   -6.6302   15.4878   -1.1946 H   0  0  0  0  0  0  0  0  0  0  0  0  # atno 965  bound_to 957 
    0.7552   10.8777   10.8926 H   0  0  0  0  0  0  0  0  0  0  0  0  # atno 1886 bound_to 1878
   11.0428    2.4791   -2.7276 H   0  0  0  0  0  0  0  0  0  0  0  0  # atno 2577 bound_to 2569
    7.1933    5.6040    1.4299 H   0  0  0  0  0  0  0  0  0  0  0  0  # atno 2891 bound_to 2887
   19.2054    2.8193   -1.1279 H   0  0  0  0  0  0  0  0  0  0  0  0  # atno 3175 bound_to 3171
   14.2205    9.8955   10.1705 H   0  0  0  0  0  0  0  0  0  0  0  0  # atno 5278 bound_to 5270
   15.5821   12.9196    6.9391 LP  0  0  0  0  0  0  0  0  0  0  0  0  # atno 5914 bound_to 677 
   16.7807   13.9838    7.2516 LP  0  0  0  0  0  0  0  0  0  0  0  0  # atno 5915 bound_to 677 
   19.3359   11.8413   -0.8782 LP  0  0  0  0  0  0  0  0  0  0  0  0  # atno 5920 bound_to 698 
   20.8935   11.5575   -0.4785 LP  0  0  0  0  0  0  0  0  0  0  0  0  # atno 5921 bound_to 698 
    9.5157    2.0710   -2.5357 LP  0  0  0  0  0  0  0  0  0  0  0  0  # atno 5950 bound_to 2569
    9.9276    3.3830   -3.4165 LP  0  0  0  0  0  0  0  0  0  0  0  0  # atno 5951 bound_to 2569
    7.8565    6.9927    1.0198 LP  0  0  0  0  0  0  0  0  0  0  0  0  # atno 5982 bound_to 2887
    8.2478    5.6144    0.2364 LP  0  0  0  0  0  0  0  0  0  0  0  0  # atno 5983 bound_to 2887
   18.7519    2.7046    0.3942 LP  0  0  0  0  0  0  0  0  0  0  0  0  # atno 6000 bound_to 3171
   17.9245    1.9372   -0.7861 LP  0  0  0  0  0  0  0  0  0  0  0  0  # atno 6001 bound_to 3171
   13.6878   10.2335    8.7080 LP  0  0  0  0  0  0  0  0  0  0  0  0  # atno 6004 bound_to 5270
   12.6467    9.9220    9.9269 LP  0  0  0  0  0  0  0  0  0  0  0  0  # atno 6005 bound_to 5270
   10.5454   19.7865    8.8973 LP  0  0  0  0  0  0  0  0  0  0  0  0  # atno 6055 bound_to 637 
    9.6187   19.2164    7.6796 LP  0  0  0  0  0  0  0  0  0  0  0  0  # atno 6056 bound_to 637 
    1.3710   12.3461   10.8905 LP  0  0  0  0  0  0  0  0  0  0  0  0  # atno 6063 bound_to 1878
    2.2193   11.0815   10.3009 LP  0  0  0  0  0  0  0  0  0  0  0  0  # atno 6064 bound_to 1878
   -6.6144   17.0794   -1.2355 LP  0  0  0  0  0  0  0  0  0  0  0  0  # atno 6067 bound_to 957 
   -7.2107   16.2808    0.0581 LP  0  0  0  0  0  0  0  0  0  0  0  0  # atno 6068 bound_to 957 

>  <STRIFE_LigEff_Score>  (34) 
2.5647705882352945

$$$$
unknown|pharmsElabsTestPreDocking|sdf|35|dock4
     RDKit          3D

 16 16  0  0  0  0  0  0  0  0999 V2000
    4.9968    9.0972    3.3148 C   0  0  0  0  0  0  0  0  0  0  0  0
    5.1669    9.5068    4.7677 C   0  0  0  0  0  0  0  0  0  0  0  0
    3.8737    9.8824    5.4736 C   0  0  0  0  0  0  0  0  0  0  0  0
    6.3461   10.3962    5.1810 C   0  0  0  0  0  0  0  0  0  0  0  0
    7.6644    9.8273    4.9345 N   0  0  0  0  0  0  0  0  0  0  0  0
    8.0949    9.5244    3.6012 C   0  0  0  0  0  0  0  0  0  0  0  0
    7.5409   10.0797    2.6103 O   0  0  0  0  0  0  0  0  0  0  0  0
    9.2407    8.5746    3.3878 C   0  0  0  0  0  0  0  0  0  0  0  0
    9.5448    8.4254    1.8976 C   0  0  0  0  0  0  0  0  0  0  0  0
   10.6074    7.3645    1.6477 C   0  0  0  0  0  0  0  0  0  0  0  0
   11.8384    7.4125    2.5924 C   0  0  0  0  0  0  0  0  0  0  0  0
   13.2526    7.5561    1.9967 C   0  0  0  0  0  0  0  0  0  0  0  0
   14.4496    7.3383    2.9221 C   0  0  0  0  0  0  0  0  0  0  0  0
   13.4063    8.7943    1.2207 N   0  0  0  0  0  0  0  0  0  0  0  0
   11.6633    8.1299    3.9657 C   0  0  0  0  0  0  0  0  0  0  0  0
   10.4845    9.0903    4.1010 C   0  0  0  0  0  0  0  0  0  0  0  0
  1  2  1  0
  2  3  1  0
  2  4  1  0
  4  5  1  0
  5  6  1  0
  6  7  2  0
  6  8  1  0
  8  9  1  0
  9 10  1  0
 10 11  1  0
 11 12  1  0
 12 13  1  0
 12 14  1  0
 11 15  1  0
 15 16  1  0
 16  8  1  0
M  CHG  1  14   1
M  END
>  <EmbedRMS>  (35) 
0.28373172213554615

>  <Gold.Version>  (35) 
2020.3.0

>  <Gold.Id.Protein>  (35) 
unknown|1q8t_protein|pdb

>  <Gold.PLP.Fitness>  (35) 
46.2327

>  <Gold.PLP.PLP>  (35) 
-40.3597

>  <Gold.PLP.part.hbond>  (35) 
-1.0000

>  <Gold.PLP.part.metal>  (35) 
0.0000

>  <Gold.PLP.part.buried>  (35) 
-3.2737

>  <Gold.PLP.part.nonpolar>  (35) 
-36.2544

>  <Gold.PLP.part.repulsive>  (35) 
0.0008

>  <Gold.PLP.ligand.clash>  (35) 
0.0000

>  <Gold.PLP.ligand.torsion>  (35) 
0.3378

>  <Gold.PLP.Chemscore.Hbond>  (35) 
2.0000

>  <Gold.PLP.Chemscore.CHOScore>  (35) 
0.0000

>  <Gold.PLP.Chemscore.Metal>  (35) 
0.0000

>  <Gold.Chemscore.Hbonds>  (35) 
donor molecule, donor type, donor heavy atom, donor atom, acceptor molecule, acceptor atom, score
      L1  H    14    39       P1  2902  2.00

>  <Gold.PLP.Chemscore.Internal.Correction>  (35) 
0.5487

>  <Gold.PLP.Constraint>  (35) 
-0.0000

>  <Gold.Protein.RotatedTorsions>  (35) 
[  681  677  676  673 ] final  -14.96 input -179.99 | X-H torsion
[  702  698  697  694 ] final  -64.72 input  179.99 | X-H torsion
[ 2577 2569 2568 2566 ] final  -12.48 input   -0.13 | X-H torsion
[ 2891 2887 2886 2883 ] final   30.18 input  179.98 | X-H torsion
[ 3175 3171 3170 3167 ] final   22.02 input -179.99 | X-H torsion
[ 5278 5270 5269 5267 ] final  114.46 input    0.55 | X-H torsion
[  641  637  636  633 ] final  -40.74 input  179.99 | X-H torsion
[ 1886 1878 1877 1875 ] final -130.49 input    1.60 | X-H torsion
[  965  957  956  954 ] final  -55.04 input    0.45 | X-H torsion

>  <Gold.Protein.ActiveResidues>  (35) 
 LYS47   THR48   LEU49   GLY50   THR51   GLY52   SER53   PHE54   GLY55   ARG56  
 VAL57   MET58   LEU59   TYR69   ALA70   MET71   LYS72   ILE73   LEU74   GLU91  
 LEU95   VAL104  LYS105  MET118  VAL119  MET120  GLU121  TYR122  VAL123  PRO124 
 GLY125  GLY126  GLU127  MET128  PHE129  TYR164  ASP166  LEU167  LYS168  PRO169 
 GLU170  ASN171  LEU172  LEU173  ILE174  GLN181  VAL182  THR183  ASP184  PHE185 
 GLY186  PHE187  GLY200  THR201  ASN326  PHE327  TYR330  ARG18   ARG19   ASN20  
 ALA21   ILE22   HIS23  

>  <Gold.Protein.RotatedAtoms>  (35) 
    9.8952   19.0608    7.4414 H   0  0  0  0  0  0  0  0  0  0  0  0  # atno 641  bound_to 637 
   15.7350   12.7234    6.6242 H   0  0  0  0  0  0  0  0  0  0  0  0  # atno 681  bound_to 677 
   20.3563   11.6651   -0.2482 H   0  0  0  0  0  0  0  0  0  0  0  0  # atno 702  bound_to 698 
   -6.4600   15.9588   -1.5589 H   0  0  0  0  0  0  0  0  0  0  0  0  # atno 965  bound_to 957 
    0.7881   10.8323   10.8704 H   0  0  0  0  0  0  0  0  0  0  0  0  # atno 1886 bound_to 1878
    9.9408    3.3363   -3.4035 H   0  0  0  0  0  0  0  0  0  0  0  0  # atno 2577 bound_to 2569
    8.2847    5.8294    0.2197 H   0  0  0  0  0  0  0  0  0  0  0  0  # atno 2891 bound_to 2887
   18.8969    2.5589   -1.3720 H   0  0  0  0  0  0  0  0  0  0  0  0  # atno 3175 bound_to 3171
   13.6797   10.2386    8.7568 H   0  0  0  0  0  0  0  0  0  0  0  0  # atno 5278 bound_to 5270
   16.4134   13.9244    7.4202 LP  0  0  0  0  0  0  0  0  0  0  0  0  # atno 5914 bound_to 677 
   17.1992   13.1813    6.1967 LP  0  0  0  0  0  0  0  0  0  0  0  0  # atno 5915 bound_to 677 
   20.9609   11.5695   -1.7188 LP  0  0  0  0  0  0  0  0  0  0  0  0  # atno 5920 bound_to 698 
   19.3688   11.8472   -1.4847 LP  0  0  0  0  0  0  0  0  0  0  0  0  # atno 5921 bound_to 698 
   11.0876    2.4806   -2.7050 LP  0  0  0  0  0  0  0  0  0  0  0  0  # atno 5950 bound_to 2569
    9.5160    2.0708   -2.5356 LP  0  0  0  0  0  0  0  0  0  0  0  0  # atno 5951 bound_to 2569
    7.2442    5.4071    1.3491 LP  0  0  0  0  0  0  0  0  0  0  0  0  # atno 5982 bound_to 2887
    7.7114    6.9627    1.1807 LP  0  0  0  0  0  0  0  0  0  0  0  0  # atno 5983 bound_to 2887
   19.1168    2.9439    0.1574 LP  0  0  0  0  0  0  0  0  0  0  0  0  # atno 6000 bound_to 3171
   17.8841    1.9719   -0.2925 LP  0  0  0  0  0  0  0  0  0  0  0  0  # atno 6001 bound_to 3171
   12.6467    9.9220    9.9270 LP  0  0  0  0  0  0  0  0  0  0  0  0  # atno 6004 bound_to 5270
   14.2567    9.8726   10.1954 LP  0  0  0  0  0  0  0  0  0  0  0  0  # atno 6005 bound_to 5270
   11.3972   19.2477    7.9354 LP  0  0  0  0  0  0  0  0  0  0  0  0  # atno 6055 bound_to 637 
   10.1459   19.7794    8.8398 LP  0  0  0  0  0  0  0  0  0  0  0  0  # atno 6056 bound_to 637 
    1.3131   12.3349   10.9141 LP  0  0  0  0  0  0  0  0  0  0  0  0  # atno 6063 bound_to 1878
    2.2426   11.1406   10.3007 LP  0  0  0  0  0  0  0  0  0  0  0  0  # atno 6064 bound_to 1878
   -6.8791   17.1981   -0.6514 LP  0  0  0  0  0  0  0  0  0  0  0  0  # atno 6067 bound_to 957 
   -7.1254   15.6662   -0.1423 LP  0  0  0  0  0  0  0  0  0  0  0  0  # atno 6068 bound_to 957 

>  <STRIFE_LigEff_Score>  (35) 
2.88954375

$$$$
unknown|pharmsElabsTestPreDocking|sdf|36|dock7
     RDKit          3D

 13 13  0  0  0  0  0  0  0  0999 V2000
   14.7131    7.9514    3.3020 C   0  0  0  0  0  0  0  0  0  0  0  0
   13.6376    8.1878    2.2309 C   0  0  0  0  0  0  0  0  0  0  0  0
   13.8025    7.2306    1.1311 N   0  0  0  0  0  0  0  0  0  0  0  0
   12.1546    8.2604    2.7402 C   0  0  0  0  0  0  0  0  0  0  0  0
   11.1371    7.4000    1.9679 C   0  0  0  0  0  0  0  0  0  0  0  0
    9.7111    7.9192    1.9889 C   0  0  0  0  0  0  0  0  0  0  0  0
    9.3131    8.4884    3.3465 C   0  0  0  0  0  0  0  0  0  0  0  0
    7.8544    8.8756    3.3185 C   0  0  0  0  0  0  0  0  0  0  0  0
    7.1464    8.6163    2.3041 O   0  0  0  0  0  0  0  0  0  0  0  0
    7.2757    9.5590    4.4334 N   0  0  0  0  0  0  0  0  0  0  0  0
    5.9158    9.9105    4.4419 N   0  0  0  0  0  0  0  0  0  0  0  0
   10.1704    9.7111    3.6943 C   0  0  0  0  0  0  0  0  0  0  0  0
   11.6848    9.5392    3.4648 C   0  0  0  0  0  0  0  0  0  0  0  0
  1  2  1  0
  2  3  1  0
  2  4  1  0
  4  5  1  0
  5  6  1  0
  6  7  1  0
  7  8  1  0
  8  9  2  0
  8 10  1  0
 10 11  1  0
  7 12  1  0
 12 13  1  0
 13  4  1  0
M  CHG  2   3   1  11   1
M  END
>  <EmbedRMS>  (36) 
0.19250121644012902

>  <Gold.Version>  (36) 
2020.3.0

>  <Gold.Id.Protein>  (36) 
unknown|1q8t_protein|pdb

>  <Gold.PLP.Fitness>  (36) 
32.4334

>  <Gold.PLP.PLP>  (36) 
-21.8436

>  <Gold.PLP.part.hbond>  (36) 
-3.0000

>  <Gold.PLP.part.metal>  (36) 
0.0000

>  <Gold.PLP.part.buried>  (36) 
-3.4848

>  <Gold.PLP.part.nonpolar>  (36) 
-14.7137

>  <Gold.PLP.part.repulsive>  (36) 
0.0432

>  <Gold.PLP.ligand.clash>  (36) 
0.0000

>  <Gold.PLP.ligand.torsion>  (36) 
0.9843

>  <Gold.PLP.Chemscore.Hbond>  (36) 
4.0000

>  <Gold.PLP.Chemscore.CHOScore>  (36) 
0.0000

>  <Gold.PLP.Chemscore.Metal>  (36) 
0.0000

>  <Gold.Chemscore.Hbonds>  (36) 
donor molecule, donor type, donor heavy atom, donor atom, acceptor molecule, acceptor atom, score
      L1  H     3    19       P1  2902  2.00
      L1  H     3    20       P1  2691  1.00
      P1  H  2887  2891       L1     9  1.00

>  <Gold.PLP.Chemscore.Internal.Correction>  (36) 
0.5584

>  <Gold.PLP.Constraint>  (36) 
-0.0000

>  <Gold.Protein.RotatedTorsions>  (36) 
[  681  677  676  673 ] final  -53.62 input -179.99 | X-H torsion
[  702  698  697  694 ] final -147.91 input  179.99 | X-H torsion
[ 2577 2569 2568 2566 ] final  -15.31 input   -0.13 | X-H torsion
[ 2891 2887 2886 2883 ] final  155.48 input  179.98 | X-H torsion
[ 3175 3171 3170 3167 ] final   -3.88 input -179.99 | X-H torsion
[ 5278 5270 5269 5267 ] final -107.37 input    0.55 | X-H torsion
[  641  637  636  633 ] final  -71.02 input  179.99 | X-H torsion
[ 1886 1878 1877 1875 ] final  -93.65 input    1.60 | X-H torsion
[  965  957  956  954 ] final  164.33 input    0.45 | X-H torsion

>  <Gold.Protein.ActiveResidues>  (36) 
 LYS47   THR48   LEU49   GLY50   THR51   GLY52   SER53   PHE54   GLY55   ARG56  
 VAL57   MET58   LEU59   TYR69   ALA70   MET71   LYS72   ILE73   LEU74   GLU91  
 LEU95   VAL104  LYS105  MET118  VAL119  MET120  GLU121  TYR122  VAL123  PRO124 
 GLY125  GLY126  GLU127  MET128  PHE129  TYR164  ASP166  LEU167  LYS168  PRO169 
 GLU170  ASN171  LEU172  LEU173  ILE174  GLN181  VAL182  THR183  ASP184  PHE185 
 GLY186  PHE187  GLY200  THR201  ASN326  PHE327  TYR330  ARG18   ARG19   ASN20  
 ALA21   ILE22   HIS23  

>  <Gold.Protein.RotatedAtoms>  (36) 
   10.3194   18.9529    7.2766 H   0  0  0  0  0  0  0  0  0  0  0  0  # atno 641  bound_to 637 
   15.6186   13.0987    7.0684 H   0  0  0  0  0  0  0  0  0  0  0  0  # atno 681  bound_to 677 
   21.1150   11.5482   -1.1575 H   0  0  0  0  0  0  0  0  0  0  0  0  # atno 702  bound_to 698 
   -6.9869   17.0411   -0.3784 H   0  0  0  0  0  0  0  0  0  0  0  0  # atno 965  bound_to 957 
    1.2223   10.5584   10.6322 H   0  0  0  0  0  0  0  0  0  0  0  0  # atno 1886 bound_to 1878
    9.9838    3.3466   -3.4075 H   0  0  0  0  0  0  0  0  0  0  0  0  # atno 2577 bound_to 2569
    7.6470    6.8961    1.2139 H   0  0  0  0  0  0  0  0  0  0  0  0  # atno 2891 bound_to 2887
   19.1668    2.7842   -1.1782 H   0  0  0  0  0  0  0  0  0  0  0  0  # atno 3175 bound_to 3171
   14.0080    9.8487   10.3513 H   0  0  0  0  0  0  0  0  0  0  0  0  # atno 5278 bound_to 5270
   16.9579   13.9589    7.1171 LP  0  0  0  0  0  0  0  0  0  0  0  0  # atno 5914 bound_to 677 
   16.7772   12.7518    6.0323 LP  0  0  0  0  0  0  0  0  0  0  0  0  # atno 5915 bound_to 677 
   19.7483   11.7887   -1.9396 LP  0  0  0  0  0  0  0  0  0  0  0  0  # atno 5920 bound_to 698 
   19.7832   11.7510   -0.3074 LP  0  0  0  0  0  0  0  0  0  0  0  0  # atno 5921 bound_to 698 
   11.0747    2.4433   -2.6800 LP  0  0  0  0  0  0  0  0  0  0  0  0  # atno 5950 bound_to 2569
    9.4836    2.0973   -2.5564 LP  0  0  0  0  0  0  0  0  0  0  0  0  # atno 5951 bound_to 2569
    8.3476    5.8986    0.1889 LP  0  0  0  0  0  0  0  0  0  0  0  0  # atno 5982 bound_to 2887
    7.2792    5.3486    1.2946 LP  0  0  0  0  0  0  0  0  0  0  0  0  # atno 5983 bound_to 2887
   18.8121    2.7465    0.3737 LP  0  0  0  0  0  0  0  0  0  0  0  0  # atno 6000 bound_to 3171
   17.9047    1.9322   -0.7126 LP  0  0  0  0  0  0  0  0  0  0  0  0  # atno 6001 bound_to 3171
   13.9697   10.2134    8.8013 LP  0  0  0  0  0  0  0  0  0  0  0  0  # atno 6004 bound_to 5270
   12.5883    9.9913    9.6434 LP  0  0  0  0  0  0  0  0  0  0  0  0  # atno 6005 bound_to 5270
   11.3522   19.4728    8.3712 LP  0  0  0  0  0  0  0  0  0  0  0  0  # atno 6055 bound_to 637 
    9.7441   19.6680    8.5776 LP  0  0  0  0  0  0  0  0  0  0  0  0  # atno 6056 bound_to 637 
    0.8253   12.0345   11.0780 LP  0  0  0  0  0  0  0  0  0  0  0  0  # atno 6063 bound_to 1878
    2.2733   11.7293   10.3875 LP  0  0  0  0  0  0  0  0  0  0  0  0  # atno 6064 bound_to 1878
   -7.0198   15.4493   -0.3789 LP  0  0  0  0  0  0  0  0  0  0  0  0  # atno 6067 bound_to 957 
   -6.4297   16.2750   -1.6581 LP  0  0  0  0  0  0  0  0  0  0  0  0  # atno 6068 bound_to 957 

>  <STRIFE_LigEff_Score>  (36) 
2.494876923076923

$$$$
unknown|pharmsElabsTestPreDocking|sdf|37|dock6
     RDKit          3D

 18 19  0  0  0  0  0  0  0  0999 V2000
   13.9407    9.2980    1.5881 C   0  0  0  0  0  0  0  0  0  0  0  0
   13.1275    8.0822    2.0293 C   0  0  0  0  0  0  0  0  0  0  0  0
   12.9938    7.0893    0.9613 N   0  0  0  0  0  0  0  0  0  0  0  0
   11.7983    8.3196    2.7883 C   0  0  0  0  0  0  0  0  0  0  0  0
   10.7610    7.2061    2.5807 C   0  0  0  0  0  0  0  0  0  0  0  0
    9.3155    7.5587    2.8958 C   0  0  0  0  0  0  0  0  0  0  0  0
    8.9370    8.9422    2.4292 C   0  0  0  0  0  0  0  0  0  0  0  0
    7.4578    9.2085    2.4287 C   0  0  0  0  0  0  0  0  0  0  0  0
    7.0332    9.7778    1.3952 O   0  0  0  0  0  0  0  0  0  0  0  0
    6.5354    8.9024    3.4945 N   0  0  0  0  0  0  0  0  0  0  0  0
    5.1050    9.0605    3.3286 C   0  0  0  0  0  0  0  0  0  0  0  0
    4.4098    8.8828    2.1479 C   0  0  0  0  0  0  0  0  0  0  0  0
    3.0970    9.1836    2.4736 C   0  0  0  0  0  0  0  0  0  0  0  0
    3.0199    9.5410    3.7712 N   0  0  0  0  0  0  0  0  0  0  0  0
    4.2386    9.4737    4.2843 N   0  0  0  0  0  0  0  0  0  0  0  0
    4.5378    9.9067    5.6455 C   0  0  0  0  0  0  0  0  0  0  0  0
    9.8373   10.0653    2.8623 C   0  0  0  0  0  0  0  0  0  0  0  0
   11.3076    9.7752    2.5690 C   0  0  0  0  0  0  0  0  0  0  0  0
  1  2  1  0
  2  3  1  0
  2  4  1  0
  4  5  1  0
  5  6  1  0
  6  7  1  0
  7  8  1  0
  8  9  2  0
  8 10  1  0
 10 11  1  0
 11 12  2  0
 12 13  1  0
 13 14  2  0
 14 15  1  0
 15 16  1  0
  7 17  1  0
 17 18  1  0
 18  4  1  0
 15 11  1  0
M  CHG  1   3   1
M  END
>  <EmbedRMS>  (37) 
0.2930144483433324

>  <Gold.Version>  (37) 
2020.3.0

>  <Gold.Id.Protein>  (37) 
unknown|1q8t_protein|pdb

>  <Gold.PLP.Fitness>  (37) 
53.5280

>  <Gold.PLP.PLP>  (37) 
-43.2132

>  <Gold.PLP.part.hbond>  (37) 
-2.5263

>  <Gold.PLP.part.metal>  (37) 
0.0000

>  <Gold.PLP.part.buried>  (37) 
-2.8960

>  <Gold.PLP.part.nonpolar>  (37) 
-38.8878

>  <Gold.PLP.part.repulsive>  (37) 
0.1845

>  <Gold.PLP.ligand.clash>  (37) 
0.0000

>  <Gold.PLP.ligand.torsion>  (37) 
1.8924

>  <Gold.PLP.Chemscore.Hbond>  (37) 
3.4313

>  <Gold.PLP.Chemscore.CHOScore>  (37) 
1.0000

>  <Gold.PLP.Chemscore.Metal>  (37) 
0.0000

>  <Gold.Chemscore.Hbonds>  (37) 
donor molecule, donor type, donor heavy atom, donor atom, acceptor molecule, acceptor atom, score
      L1  H     3    23       P1  2902  1.95
      L1  H     3    24       P1  2691  0.50
      P1  H  1888  1903       L1    14  0.98
      L1  C    13    34       P1  1855  1.00

>  <Gold.PLP.Chemscore.Internal.Correction>  (37) 
0.8057

>  <Gold.PLP.Constraint>  (37) 
-0.0000

>  <Gold.Protein.RotatedTorsions>  (37) 
[  681  677  676  673 ] final   89.49 input -179.99 | X-H torsion
[  702  698  697  694 ] final   12.89 input  179.99 | X-H torsion
[ 2577 2569 2568 2566 ] final   37.62 input   -0.13 | X-H torsion
[ 2891 2887 2886 2883 ] final   52.22 input  179.98 | X-H torsion
[ 3175 3171 3170 3167 ] final -135.37 input -179.99 | X-H torsion
[ 5278 5270 5269 5267 ] final  165.62 input    0.55 | X-H torsion
[  641  637  636  633 ] final   30.76 input  179.99 | X-H torsion
[ 1886 1878 1877 1875 ] final  -97.73 input    1.60 | X-H torsion
[  965  957  956  954 ] final   49.61 input    0.45 | X-H torsion

>  <Gold.Protein.ActiveResidues>  (37) 
 LYS47   THR48   LEU49   GLY50   THR51   GLY52   SER53   PHE54   GLY55   ARG56  
 VAL57   MET58   LEU59   TYR69   ALA70   MET71   LYS72   ILE73   LEU74   GLU91  
 LEU95   VAL104  LYS105  MET118  VAL119  MET120  GLU121  TYR122  VAL123  PRO124 
 GLY125  GLY126  GLU127  MET128  PHE129  TYR164  ASP166  LEU167  LYS168  PRO169 
 GLU170  ASN171  LEU172  LEU173  ILE174  GLN181  VAL182  THR183  ASP184  PHE185 
 GLY186  PHE187  GLY200  THR201  ASN326  PHE327  TYR330  ARG18   ARG19   ASN20  
 ALA21   ILE22   HIS23  

>  <Gold.Protein.RotatedAtoms>  (37) 
    9.6361   19.5332    8.3381 H   0  0  0  0  0  0  0  0  0  0  0  0  # atno 641  bound_to 637 
   17.0241   13.0166    6.1163 H   0  0  0  0  0  0  0  0  0  0  0  0  # atno 681  bound_to 677 
   19.4058   11.8446   -0.8193 H   0  0  0  0  0  0  0  0  0  0  0  0  # atno 702  bound_to 698 
   -7.0235   15.5345   -0.3296 H   0  0  0  0  0  0  0  0  0  0  0  0  # atno 965  bound_to 957 
    1.1664   10.5725   10.6593 H   0  0  0  0  0  0  0  0  0  0  0  0  # atno 1886 bound_to 1878
    9.3648    2.9126   -3.1516 H   0  0  0  0  0  0  0  0  0  0  0  0  # atno 2577 bound_to 2569
    8.3417    6.1668    0.2346 H   0  0  0  0  0  0  0  0  0  0  0  0  # atno 2891 bound_to 2887
   18.6704    2.6191    0.3689 H   0  0  0  0  0  0  0  0  0  0  0  0  # atno 3175 bound_to 3171
   14.3121   10.1380    9.1913 H   0  0  0  0  0  0  0  0  0  0  0  0  # atno 5278 bound_to 5270
   15.6104   12.8200    6.8227 LP  0  0  0  0  0  0  0  0  0  0  0  0  # atno 5914 bound_to 677 
   16.6455   13.9772    7.3288 LP  0  0  0  0  0  0  0  0  0  0  0  0  # atno 5915 bound_to 677 
   20.9455   11.5494   -0.5374 LP  0  0  0  0  0  0  0  0  0  0  0  0  # atno 5920 bound_to 698 
   20.3840   11.6784   -2.0654 LP  0  0  0  0  0  0  0  0  0  0  0  0  # atno 5921 bound_to 698 
   10.9434    3.1205   -3.1599 LP  0  0  0  0  0  0  0  0  0  0  0  0  # atno 5950 bound_to 2569
   10.2668    1.8770   -2.3460 LP  0  0  0  0  0  0  0  0  0  0  0  0  # atno 5951 bound_to 2569
    7.4149    5.2061    1.1033 LP  0  0  0  0  0  0  0  0  0  0  0  0  # atno 5982 bound_to 2887
    7.4808    6.8085    1.4109 LP  0  0  0  0  0  0  0  0  0  0  0  0  # atno 5983 bound_to 2887
   17.9620    1.9512   -0.8912 LP  0  0  0  0  0  0  0  0  0  0  0  0  # atno 6000 bound_to 3171
   19.2773    2.9012   -1.0760 LP  0  0  0  0  0  0  0  0  0  0  0  0  # atno 6001 bound_to 3171
   12.7203   10.1169    9.1399 LP  0  0  0  0  0  0  0  0  0  0  0  0  # atno 6004 bound_to 5270
   13.5177    9.7835   10.5254 LP  0  0  0  0  0  0  0  0  0  0  0  0  # atno 6005 bound_to 5270
   10.6105   18.9323    7.2316 LP  0  0  0  0  0  0  0  0  0  0  0  0  # atno 6055 bound_to 637 
   11.2054   19.5974    8.5992 LP  0  0  0  0  0  0  0  0  0  0  0  0  # atno 6056 bound_to 637 
    0.8702   12.0831   11.0665 LP  0  0  0  0  0  0  0  0  0  0  0  0  # atno 6063 bound_to 1878
    2.2873   11.6659   10.3706 LP  0  0  0  0  0  0  0  0  0  0  0  0  # atno 6064 bound_to 1878
   -6.4318   16.1884   -1.6553 LP  0  0  0  0  0  0  0  0  0  0  0  0  # atno 6067 bound_to 957 
   -6.9792   17.1227   -0.4331 LP  0  0  0  0  0  0  0  0  0  0  0  0  # atno 6068 bound_to 957 

>  <STRIFE_LigEff_Score>  (37) 
2.973777777777778

$$$$
unknown|pharmsElabsTestPreDocking|sdf|38|dock7
     RDKit          3D

 17 18  0  0  0  0  0  0  0  0999 V2000
   14.5756    7.9430    2.6719 C   0  0  0  0  0  0  0  0  0  0  0  0
   13.2037    7.9465    1.9993 C   0  0  0  0  0  0  0  0  0  0  0  0
   13.1230    8.9254    0.9133 N   0  0  0  0  0  0  0  0  0  0  0  0
   11.9424    7.9529    2.8975 C   0  0  0  0  0  0  0  0  0  0  0  0
   10.7950    7.0889    2.3544 C   0  0  0  0  0  0  0  0  0  0  0  0
    9.4089    7.3850    2.9016 C   0  0  0  0  0  0  0  0  0  0  0  0
    9.1457    8.8623    3.0495 C   0  0  0  0  0  0  0  0  0  0  0  0
    7.7006    9.2056    3.2566 C   0  0  0  0  0  0  0  0  0  0  0  0
    7.5083   10.0519    4.1585 O   0  0  0  0  0  0  0  0  0  0  0  0
    6.5763    8.6604    2.5329 N   0  0  0  0  0  0  0  0  0  0  0  0
    5.2028    8.9665    2.8852 C   0  0  0  0  0  0  0  0  0  0  0  0
    4.7031    9.3538    4.1277 C   0  0  0  0  0  0  0  0  0  0  0  0
    3.3462    9.5133    3.9635 C   0  0  0  0  0  0  0  0  0  0  0  0
    2.9976    9.2407    2.6935 N   0  0  0  0  0  0  0  0  0  0  0  0
    4.1204    8.9058    2.0283 C   0  0  0  0  0  0  0  0  0  0  0  0
   10.1649    9.6564    3.8149 C   0  0  0  0  0  0  0  0  0  0  0  0
   11.5851    9.4054    3.3119 C   0  0  0  0  0  0  0  0  0  0  0  0
  1  2  1  0
  2  3  1  0
  2  4  1  0
  4  5  1  0
  5  6  1  0
  6  7  1  0
  7  8  1  0
  8  9  2  0
  8 10  1  0
 10 11  1  0
 11 12  1  0
 12 13  2  0
 13 14  1  0
 14 15  1  0
  7 16  1  0
 16 17  1  0
 17  4  1  0
 15 11  2  0
M  CHG  1   3   1
M  END
>  <EmbedRMS>  (38) 
0.3005329260886256

>  <Gold.Version>  (38) 
2020.3.0

>  <Gold.Id.Protein>  (38) 
unknown|1q8t_protein|pdb

>  <Gold.PLP.Fitness>  (38) 
48.9581

>  <Gold.PLP.PLP>  (38) 
-40.7352

>  <Gold.PLP.part.hbond>  (38) 
-2.4053

>  <Gold.PLP.part.metal>  (38) 
0.0000

>  <Gold.PLP.part.buried>  (38) 
-3.6303

>  <Gold.PLP.part.nonpolar>  (38) 
-34.1718

>  <Gold.PLP.part.repulsive>  (38) 
0.1004

>  <Gold.PLP.ligand.clash>  (38) 
0.0000

>  <Gold.PLP.ligand.torsion>  (38) 
0.9401

>  <Gold.PLP.Chemscore.Hbond>  (38) 
3.1609

>  <Gold.PLP.Chemscore.CHOScore>  (38) 
0.0000

>  <Gold.PLP.Chemscore.Metal>  (38) 
0.0000

>  <Gold.Chemscore.Hbonds>  (38) 
donor molecule, donor type, donor heavy atom, donor atom, acceptor molecule, acceptor atom, score
      L1  H     3    22       P1  2902  2.00
      L1  H    10    31       P1  2887  0.16
      L1  H    14    34       P1  1855  1.00

>  <Gold.PLP.Chemscore.Internal.Correction>  (38) 
0.6205

>  <Gold.PLP.Constraint>  (38) 
-0.0000

>  <Gold.Protein.RotatedTorsions>  (38) 
[  681  677  676  673 ] final   10.08 input -179.99 | X-H torsion
[  702  698  697  694 ] final  -67.62 input  179.99 | X-H torsion
[ 2577 2569 2568 2566 ] final  -90.45 input   -0.13 | X-H torsion
[ 2891 2887 2886 2883 ] final   27.65 input  179.98 | X-H torsion
[ 3175 3171 3170 3167 ] final  132.85 input -179.99 | X-H torsion
[ 5278 5270 5269 5267 ] final  150.16 input    0.55 | X-H torsion
[  641  637  636  633 ] final  -56.87 input  179.99 | X-H torsion
[ 1886 1878 1877 1875 ] final   77.93 input    1.60 | X-H torsion
[  965  957  956  954 ] final   54.73 input    0.45 | X-H torsion

>  <Gold.Protein.ActiveResidues>  (38) 
 LYS47   THR48   LEU49   GLY50   THR51   GLY52   SER53   PHE54   GLY55   ARG56  
 VAL57   MET58   LEU59   TYR69   ALA70   MET71   LYS72   ILE73   LEU74   GLU91  
 LEU95   VAL104  LYS105  MET118  VAL119  MET120  GLU121  TYR122  VAL123  PRO124 
 GLY125  GLY126  GLU127  MET128  PHE129  TYR164  ASP166  LEU167  LYS168  PRO169 
 GLU170  ASN171  LEU172  LEU173  ILE174  GLN181  VAL182  THR183  ASP184  PHE185 
 GLY186  PHE187  GLY200  THR201  ASN326  PHE327  TYR330  ARG18   ARG19   ASN20  
 ALA21   ILE22   HIS23  

>  <Gold.Protein.RotatedAtoms>  (38) 
   10.1084   18.9911    7.3282 H   0  0  0  0  0  0  0  0  0  0  0  0  # atno 641  bound_to 637 
   15.9831   12.6027    6.3508 H   0  0  0  0  0  0  0  0  0  0  0  0  # atno 681  bound_to 677 
   20.4003   11.6575   -0.2558 H   0  0  0  0  0  0  0  0  0  0  0  0  # atno 702  bound_to 698 
   -7.0494   15.5831   -0.2717 H   0  0  0  0  0  0  0  0  0  0  0  0  # atno 965  bound_to 957 
    1.7558   12.2622   10.6876 H   0  0  0  0  0  0  0  0  0  0  0  0  # atno 1886 bound_to 1878
   10.9714    3.0011   -3.0953 H   0  0  0  0  0  0  0  0  0  0  0  0  # atno 2577 bound_to 2569
    8.2729    5.7920    0.2244 H   0  0  0  0  0  0  0  0  0  0  0  0  # atno 2891 bound_to 2887
   17.9220    1.9585   -0.4423 H   0  0  0  0  0  0  0  0  0  0  0  0  # atno 3175 bound_to 3171
   14.1671   10.1827    9.0038 H   0  0  0  0  0  0  0  0  0  0  0  0  # atno 5278 bound_to 5270
   16.0507   13.7406    7.4628 LP  0  0  0  0  0  0  0  0  0  0  0  0  # atno 5914 bound_to 677 
   17.3008   13.4922    6.4420 LP  0  0  0  0  0  0  0  0  0  0  0  0  # atno 5915 bound_to 677 
   20.9310   11.5755   -1.7555 LP  0  0  0  0  0  0  0  0  0  0  0  0  # atno 5920 bound_to 698 
   19.3523   11.8492   -1.4400 LP  0  0  0  0  0  0  0  0  0  0  0  0  # atno 5921 bound_to 698 
   10.1345    1.8697   -2.3506 LP  0  0  0  0  0  0  0  0  0  0  0  0  # atno 5950 bound_to 2569
    9.3840    3.0346   -3.2145 LP  0  0  0  0  0  0  0  0  0  0  0  0  # atno 5951 bound_to 2569
    7.2291    5.4369    1.3738 LP  0  0  0  0  0  0  0  0  0  0  0  0  # atno 5982 bound_to 2887
    7.7389    6.9722    1.1511 LP  0  0  0  0  0  0  0  0  0  0  0  0  # atno 5983 bound_to 2887
   19.0098    2.6651   -1.3660 LP  0  0  0  0  0  0  0  0  0  0  0  0  # atno 6000 bound_to 3171
   19.0172    2.8825    0.2525 LP  0  0  0  0  0  0  0  0  0  0  0  0  # atno 6001 bound_to 3171
   12.6211   10.0600    9.3664 LP  0  0  0  0  0  0  0  0  0  0  0  0  # atno 6004 bound_to 5270
   13.7696    9.7933   10.4962 LP  0  0  0  0  0  0  0  0  0  0  0  0  # atno 6005 bound_to 5270
   11.4056   19.3676    8.1711 LP  0  0  0  0  0  0  0  0  0  0  0  0  # atno 6055 bound_to 637 
    9.9129   19.7330    8.7233 LP  0  0  0  0  0  0  0  0  0  0  0  0  # atno 6056 bound_to 637 
    1.9567   10.7181   10.3547 LP  0  0  0  0  0  0  0  0  0  0  0  0  # atno 6063 bound_to 1878
    0.5803   11.2521   11.0526 LP  0  0  0  0  0  0  0  0  0  0  0  0  # atno 6064 bound_to 1878
   -6.4370   16.1049   -1.6457 LP  0  0  0  0  0  0  0  0  0  0  0  0  # atno 6067 bound_to 957 
   -6.9467   17.1550   -0.5037 LP  0  0  0  0  0  0  0  0  0  0  0  0  # atno 6068 bound_to 957 

>  <STRIFE_LigEff_Score>  (38) 
2.8798882352941177

$$$$
unknown|pharmsElabsTestPreDocking|sdf|39|dock5
     RDKit          3D

 18 19  0  0  0  0  0  0  0  0999 V2000
   14.1173    9.1528    1.4879 C   0  0  0  0  0  0  0  0  0  0  0  0
   13.3951    7.9563    2.1072 C   0  0  0  0  0  0  0  0  0  0  0  0
   13.1292    6.9225    1.0976 N   0  0  0  0  0  0  0  0  0  0  0  0
   12.1681    8.2304    2.9987 C   0  0  0  0  0  0  0  0  0  0  0  0
   11.1590    7.0872    3.2891 C   0  0  0  0  0  0  0  0  0  0  0  0
    9.7173    7.3679    2.8924 C   0  0  0  0  0  0  0  0  0  0  0  0
    9.2816    8.7667    3.3220 C   0  0  0  0  0  0  0  0  0  0  0  0
    7.8160    8.9648    3.0513 C   0  0  0  0  0  0  0  0  0  0  0  0
    7.3984    9.0057    1.8617 O   0  0  0  0  0  0  0  0  0  0  0  0
    6.9166    9.1301    4.1552 N   0  0  0  0  0  0  0  0  0  0  0  0
    5.5003    9.3044    4.0422 C   0  0  0  0  0  0  0  0  0  0  0  0
    4.5671    9.5081    5.0458 C   0  0  0  0  0  0  0  0  0  0  0  0
    3.3503    9.6123    4.4796 N   0  0  0  0  0  0  0  0  0  0  0  0
    3.5014    9.4905    3.1692 N   0  0  0  0  0  0  0  0  0  0  0  0
    2.4003    9.5220    2.2197 C   0  0  0  0  0  0  0  0  0  0  0  0
    4.7945    9.2907    2.8627 C   0  0  0  0  0  0  0  0  0  0  0  0
   10.1025    9.8016    2.5609 C   0  0  0  0  0  0  0  0  0  0  0  0
   11.5966    9.6738    2.8495 C   0  0  0  0  0  0  0  0  0  0  0  0
  1  2  1  0
  2  3  1  0
  2  4  1  0
  4  5  1  0
  5  6  1  0
  6  7  1  0
  7  8  1  0
  8  9  2  0
  8 10  1  0
 10 11  1  0
 11 12  1  0
 12 13  2  0
 13 14  1  0
 14 15  1  0
 14 16  1  0
  7 17  1  0
 17 18  1  0
 18  4  1  0
 16 11  2  0
M  CHG  1   3   1
M  END
>  <EmbedRMS>  (39) 
0.202216898800577

>  <Gold.Version>  (39) 
2020.3.0

>  <Gold.Id.Protein>  (39) 
unknown|1q8t_protein|pdb

>  <Gold.PLP.Fitness>  (39) 
46.1530

>  <Gold.PLP.PLP>  (39) 
-37.9033

>  <Gold.PLP.part.hbond>  (39) 
-3.0019

>  <Gold.PLP.part.metal>  (39) 
0.0000

>  <Gold.PLP.part.buried>  (39) 
2.7862

>  <Gold.PLP.part.nonpolar>  (39) 
-38.2973

>  <Gold.PLP.part.repulsive>  (39) 
0.1732

>  <Gold.PLP.ligand.clash>  (39) 
0.0000

>  <Gold.PLP.ligand.torsion>  (39) 
1.0364

>  <Gold.PLP.Chemscore.Hbond>  (39) 
3.3098

>  <Gold.PLP.Chemscore.CHOScore>  (39) 
0.0000

>  <Gold.PLP.Chemscore.Metal>  (39) 
0.0000

>  <Gold.Chemscore.Hbonds>  (39) 
donor molecule, donor type, donor heavy atom, donor atom, acceptor molecule, acceptor atom, score
      L1  H     3    24       P1  2902  2.00
      L1  H     3    25       P1  2691  0.42
      P1  H  1888  1903       L1    13  0.89

>  <Gold.PLP.Chemscore.Internal.Correction>  (39) 
0.3932

>  <Gold.PLP.Constraint>  (39) 
-0.0000

>  <Gold.Protein.RotatedTorsions>  (39) 
[  681  677  676  673 ] final   -8.66 input -179.99 | X-H torsion
[  702  698  697  694 ] final -173.76 input  179.99 | X-H torsion
[ 2577 2569 2568 2566 ] final  109.84 input   -0.13 | X-H torsion
[ 2891 2887 2886 2883 ] final   46.35 input  179.98 | X-H torsion
[ 3175 3171 3170 3167 ] final  -75.76 input -179.99 | X-H torsion
[ 5278 5270 5269 5267 ] final  139.02 input    0.55 | X-H torsion
[  641  637  636  633 ] final    4.92 input  179.99 | X-H torsion
[ 1886 1878 1877 1875 ] final  -69.78 input    1.60 | X-H torsion
[  965  957  956  954 ] final -109.46 input    0.45 | X-H torsion

>  <Gold.Protein.ActiveResidues>  (39) 
 LYS47   THR48   LEU49   GLY50   THR51   GLY52   SER53   PHE54   GLY55   ARG56  
 VAL57   MET58   LEU59   TYR69   ALA70   MET71   LYS72   ILE73   LEU74   GLU91  
 LEU95   VAL104  LYS105  MET118  VAL119  MET120  GLU121  TYR122  VAL123  PRO124 
 GLY125  GLY126  GLU127  MET128  PHE129  TYR164  ASP166  LEU167  LYS168  PRO169 
 GLU170  ASN171  LEU172  LEU173  ILE174  GLN181  VAL182  THR183  ASP184  PHE185 
 GLY186  PHE187  GLY200  THR201  ASN326  PHE327  TYR330  ARG18   ARG19   ASN20  
 ALA21   ILE22   HIS23  

>  <Gold.Protein.RotatedAtoms>  (39) 
    9.5772   19.3557    7.9841 H   0  0  0  0  0  0  0  0  0  0  0  0  # atno 641  bound_to 637 
   15.7866   12.6820    6.5512 H   0  0  0  0  0  0  0  0  0  0  0  0  # atno 681  bound_to 677 
   21.0184   11.5728   -1.5459 H   0  0  0  0  0  0  0  0  0  0  0  0  # atno 702  bound_to 698 
   -6.4946   16.7715   -1.4658 H   0  0  0  0  0  0  0  0  0  0  0  0  # atno 965  bound_to 957 
    1.5616   10.5650   10.4838 H   0  0  0  0  0  0  0  0  0  0  0  0  # atno 1886 bound_to 1878
    9.5764    2.0706   -2.5514 H   0  0  0  0  0  0  0  0  0  0  0  0  # atno 2577 bound_to 2569
    8.3348    6.0764    0.2208 H   0  0  0  0  0  0  0  0  0  0  0  0  # atno 2891 bound_to 2887
   19.2796    3.0016   -0.1557 H   0  0  0  0  0  0  0  0  0  0  0  0  # atno 3175 bound_to 3171
   14.0334   10.2080    8.8956 H   0  0  0  0  0  0  0  0  0  0  0  0  # atno 5278 bound_to 5270
   16.3188   13.8888    7.4436 LP  0  0  0  0  0  0  0  0  0  0  0  0  # atno 5914 bound_to 677 
   17.2395   13.2605    6.2503 LP  0  0  0  0  0  0  0  0  0  0  0  0  # atno 5915 bound_to 677 
   19.4504   11.8358   -1.6447 LP  0  0  0  0  0  0  0  0  0  0  0  0  # atno 5920 bound_to 698 
   20.1828   11.6780   -0.1938 LP  0  0  0  0  0  0  0  0  0  0  0  0  # atno 5921 bound_to 698 
    9.8909    3.3727   -3.4121 LP  0  0  0  0  0  0  0  0  0  0  0  0  # atno 5950 bound_to 2569
   11.0965    2.5113   -2.7257 LP  0  0  0  0  0  0  0  0  0  0  0  0  # atno 5951 bound_to 2569
    7.3633    5.2484    1.1732 LP  0  0  0  0  0  0  0  0  0  0  0  0  # atno 5982 bound_to 2887
    7.5396    6.8615    1.3555 LP  0  0  0  0  0  0  0  0  0  0  0  0  # atno 5983 bound_to 2887
   17.9872    2.0911    0.0351 LP  0  0  0  0  0  0  0  0  0  0  0  0  # atno 6000 bound_to 3171
   18.6111    2.3587   -1.4501 LP  0  0  0  0  0  0  0  0  0  0  0  0  # atno 6001 bound_to 3171
   12.5901   10.0165    9.5413 LP  0  0  0  0  0  0  0  0  0  0  0  0  # atno 6004 bound_to 5270
   13.9411    9.8102   10.4351 LP  0  0  0  0  0  0  0  0  0  0  0  0  # atno 6005 bound_to 5270
   11.0022   18.9853    7.3782 LP  0  0  0  0  0  0  0  0  0  0  0  0  # atno 6055 bound_to 637 
   10.8758   19.7313    8.8254 LP  0  0  0  0  0  0  0  0  0  0  0  0  # atno 6056 bound_to 637 
    0.6313   11.6975   11.1060 LP  0  0  0  0  0  0  0  0  0  0  0  0  # atno 6063 bound_to 1878
    2.1102   12.0594   10.5157 LP  0  0  0  0  0  0  0  0  0  0  0  0  # atno 6064 bound_to 1878
   -7.1686   16.6797   -0.0262 LP  0  0  0  0  0  0  0  0  0  0  0  0  # atno 6067 bound_to 957 
   -6.7994   15.3286   -0.8657 LP  0  0  0  0  0  0  0  0  0  0  0  0  # atno 6068 bound_to 957 

>  <STRIFE_LigEff_Score>  (39) 
2.5640555555555555

$$$$
unknown|pharmsElabsTestPreDocking|sdf|40|dock2
     RDKit          3D

 14 14  0  0  0  0  0  0  0  0999 V2000
   14.4984    7.7711    3.2740 C   0  0  0  0  0  0  0  0  0  0  0  0
   13.4085    7.9918    2.2115 C   0  0  0  0  0  0  0  0  0  0  0  0
   13.5812    7.0425    1.1078 N   0  0  0  0  0  0  0  0  0  0  0  0
   11.9274    8.0465    2.7326 C   0  0  0  0  0  0  0  0  0  0  0  0
   10.8969    7.5175    1.7361 C   0  0  0  0  0  0  0  0  0  0  0  0
    9.4591    7.5137    2.2332 C   0  0  0  0  0  0  0  0  0  0  0  0
    9.0971    8.7558    3.0122 C   0  0  0  0  0  0  0  0  0  0  0  0
    7.6231    8.9123    3.2599 C   0  0  0  0  0  0  0  0  0  0  0  0
    6.8947    8.5707    2.2961 O   0  0  0  0  0  0  0  0  0  0  0  0
    7.0026    9.4028    4.4632 N   0  0  0  0  0  0  0  0  0  0  0  0
    5.5710    9.5791    4.4909 C   0  0  0  0  0  0  0  0  0  0  0  0
    4.6332    9.2307    3.2002 S   0  0  0  0  0  0  0  0  0  0  0  0
   10.0531    9.1997    4.0964 C   0  0  0  0  0  0  0  0  0  0  0  0
   11.5033    9.2559    3.5891 C   0  0  0  0  0  0  0  0  0  0  0  0
  1  2  1  0
  2  3  1  0
  2  4  1  0
  4  5  1  0
  5  6  1  0
  6  7  1  0
  7  8  1  0
  8  9  2  0
  8 10  1  0
 10 11  1  0
 11 12  2  0
  7 13  1  0
 13 14  1  0
 14  4  1  0
M  CHG  1   3   1
M  END
>  <EmbedRMS>  (40) 
0.2961184258862318

>  <Gold.Version>  (40) 
2020.3.0

>  <Gold.Id.Protein>  (40) 
unknown|1q8t_protein|pdb

>  <Gold.PLP.Fitness>  (40) 
39.1920

>  <Gold.PLP.PLP>  (40) 
-28.1607

>  <Gold.PLP.part.hbond>  (40) 
-3.0000

>  <Gold.PLP.part.metal>  (40) 
0.0000

>  <Gold.PLP.part.buried>  (40) 
-2.0299

>  <Gold.PLP.part.nonpolar>  (40) 
-23.4138

>  <Gold.PLP.part.repulsive>  (40) 
0.0533

>  <Gold.PLP.ligand.clash>  (40) 
0.0000

>  <Gold.PLP.ligand.torsion>  (40) 
0.8838

>  <Gold.PLP.Chemscore.Hbond>  (40) 
4.0000

>  <Gold.PLP.Chemscore.CHOScore>  (40) 
0.0000

>  <Gold.PLP.Chemscore.Metal>  (40) 
0.0000

>  <Gold.Chemscore.Hbonds>  (40) 
donor molecule, donor type, donor heavy atom, donor atom, acceptor molecule, acceptor atom, score
      L1  H     3    19       P1  2902  2.00
      L1  H     3    21       P1  2691  1.00
      P1  H  2887  2891       L1     9  1.00

>  <Gold.PLP.Chemscore.Internal.Correction>  (40) 
0.7990

>  <Gold.PLP.Constraint>  (40) 
-0.0000

>  <Gold.Protein.RotatedTorsions>  (40) 
[  681  677  676  673 ] final   46.62 input -179.99 | X-H torsion
[  702  698  697  694 ] final   -7.77 input  179.99 | X-H torsion
[ 2577 2569 2568 2566 ] final  178.50 input   -0.13 | X-H torsion
[ 2891 2887 2886 2883 ] final  167.22 input  179.98 | X-H torsion
[ 3175 3171 3170 3167 ] final  -90.67 input -179.99 | X-H torsion
[ 5278 5270 5269 5267 ] final  151.25 input    0.55 | X-H torsion
[  641  637  636  633 ] final  142.25 input  179.99 | X-H torsion
[ 1886 1878 1877 1875 ] final  -69.07 input    1.60 | X-H torsion
[  965  957  956  954 ] final  -36.44 input    0.45 | X-H torsion

>  <Gold.Protein.ActiveResidues>  (40) 
 LYS47   THR48   LEU49   GLY50   THR51   GLY52   SER53   PHE54   GLY55   ARG56  
 VAL57   MET58   LEU59   TYR69   ALA70   MET71   LYS72   ILE73   LEU74   GLU91  
 LEU95   VAL104  LYS105  MET118  VAL119  MET120  GLU121  TYR122  VAL123  PRO124 
 GLY125  GLY126  GLU127  MET128  PHE129  TYR164  ASP166  LEU167  LYS168  PRO169 
 GLU170  ASN171  LEU172  LEU173  ILE174  GLN181  VAL182  THR183  ASP184  PHE185 
 GLY186  PHE187  GLY200  THR201  ASN326  PHE327  TYR330  ARG18   ARG19   ASN20  
 ALA21   ILE22   HIS23  

>  <Gold.Protein.RotatedAtoms>  (40) 
   11.0773   19.6191    8.6641 H   0  0  0  0  0  0  0  0  0  0  0  0  # atno 641  bound_to 637 
   16.4798   12.6535    6.0934 H   0  0  0  0  0  0  0  0  0  0  0  0  # atno 681  bound_to 677 
   19.5677   11.8106   -0.5437 H   0  0  0  0  0  0  0  0  0  0  0  0  # atno 702  bound_to 698 
   -6.5211   15.7071   -1.4299 H   0  0  0  0  0  0  0  0  0  0  0  0  # atno 965  bound_to 957 
    1.5717   10.5675   10.4798 H   0  0  0  0  0  0  0  0  0  0  0  0  # atno 1886 bound_to 1878
   10.5749    1.9899   -2.4222 H   0  0  0  0  0  0  0  0  0  0  0  0  # atno 2577 bound_to 2569
    7.5298    6.8172    1.3308 H   0  0  0  0  0  0  0  0  0  0  0  0  # atno 2891 bound_to 2887
   19.1701    2.9464    0.0418 H   0  0  0  0  0  0  0  0  0  0  0  0  # atno 3175 bound_to 3171
   14.1790   10.1799    9.0157 H   0  0  0  0  0  0  0  0  0  0  0  0  # atno 5278 bound_to 5270
   15.6682   13.3252    7.2878 LP  0  0  0  0  0  0  0  0  0  0  0  0  # atno 5914 bound_to 677 
   17.1605   13.8542    6.8878 LP  0  0  0  0  0  0  0  0  0  0  0  0  # atno 5915 bound_to 677 
   21.1081   11.5263   -0.8330 LP  0  0  0  0  0  0  0  0  0  0  0  0  # atno 5920 bound_to 698 
   20.0511   11.7373   -2.0597 LP  0  0  0  0  0  0  0  0  0  0  0  0  # atno 5921 bound_to 698 
    9.2378    2.6617   -2.9663 LP  0  0  0  0  0  0  0  0  0  0  0  0  # atno 5950 bound_to 2569
   10.6983    3.3074   -3.3076 LP  0  0  0  0  0  0  0  0  0  0  0  0  # atno 5951 bound_to 2569
    8.3793    6.0887    0.1976 LP  0  0  0  0  0  0  0  0  0  0  0  0  # atno 5982 bound_to 2887
    7.3708    5.2415    1.1629 LP  0  0  0  0  0  0  0  0  0  0  0  0  # atno 5983 bound_to 2887
   17.9062    2.0032   -0.1784 LP  0  0  0  0  0  0  0  0  0  0  0  0  # atno 6000 bound_to 3171
   18.8073    2.5048   -1.4445 LP  0  0  0  0  0  0  0  0  0  0  0  0  # atno 6001 bound_to 3171
   12.6259   10.0642    9.3496 LP  0  0  0  0  0  0  0  0  0  0  0  0  # atno 6004 bound_to 5270
   13.7522    9.7921   10.5004 LP  0  0  0  0  0  0  0  0  0  0  0  0  # atno 6005 bound_to 5270
    9.5516   19.4987    8.2251 LP  0  0  0  0  0  0  0  0  0  0  0  0  # atno 6055 bound_to 637 
   10.7466   18.9404    7.2624 LP  0  0  0  0  0  0  0  0  0  0  0  0  # atno 6056 bound_to 637 
    0.6275   11.6864   11.1058 LP  0  0  0  0  0  0  0  0  0  0  0  0  # atno 6063 bound_to 1878
    2.1033   12.0678   10.5202 LP  0  0  0  0  0  0  0  0  0  0  0  0  # atno 6064 bound_to 1878
   -6.7529   17.2005   -0.9287 LP  0  0  0  0  0  0  0  0  0  0  0  0  # atno 6067 bound_to 957 
   -7.1873   15.9288   -0.0009 LP  0  0  0  0  0  0  0  0  0  0  0  0  # atno 6068 bound_to 957 

>  <STRIFE_LigEff_Score>  (40) 
2.7994285714285714

$$$$
unknown|pharmsElabsTestPreDocking|sdf|41|dock6
     RDKit          3D

 13 13  0  0  0  0  0  0  0  0999 V2000
    5.1075    8.9151    2.6585 C   0  0  0  0  0  0  0  0  0  0  0  0
    6.5093    8.9177    2.2332 N   0  0  0  0  0  0  0  0  0  0  0  0
    7.5521    9.0187    3.2138 C   0  0  0  0  0  0  0  0  0  0  0  0
    7.2421    9.1865    4.4193 O   0  0  0  0  0  0  0  0  0  0  0  0
    9.0222    8.9149    2.9348 C   0  0  0  0  0  0  0  0  0  0  0  0
    9.5709    7.4862    2.8988 C   0  0  0  0  0  0  0  0  0  0  0  0
   11.1081    7.3964    2.8025 C   0  0  0  0  0  0  0  0  0  0  0  0
   11.6989    8.6607    2.1589 C   0  0  0  0  0  0  0  0  0  0  0  0
   13.1715    8.5978    1.6483 C   0  0  0  0  0  0  0  0  0  0  0  0
   13.7686    9.8861    1.1079 C   0  0  0  0  0  0  0  0  0  0  0  0
   13.5866    7.3886    0.9452 N   0  0  0  0  0  0  0  0  0  0  0  0
   11.4029    9.8826    3.0522 C   0  0  0  0  0  0  0  0  0  0  0  0
    9.9070   10.0669    3.3849 C   0  0  0  0  0  0  0  0  0  0  0  0
  1  2  1  0
  2  3  1  0
  3  4  2  0
  3  5  1  0
  5  6  1  0
  6  7  1  0
  7  8  1  0
  8  9  1  0
  9 10  1  0
  9 11  1  0
  8 12  1  0
 12 13  1  0
 13  5  1  0
M  CHG  1  11   1
M  END
>  <EmbedRMS>  (41) 
0.29639754771625826

>  <Gold.Version>  (41) 
2020.3.0

>  <Gold.Id.Protein>  (41) 
unknown|1q8t_protein|pdb

>  <Gold.PLP.Fitness>  (41) 
34.2761

>  <Gold.PLP.PLP>  (41) 
-25.4602

>  <Gold.PLP.part.hbond>  (41) 
-2.1571

>  <Gold.PLP.part.metal>  (41) 
0.0000

>  <Gold.PLP.part.buried>  (41) 
-3.0062

>  <Gold.PLP.part.nonpolar>  (41) 
-20.0411

>  <Gold.PLP.part.repulsive>  (41) 
0.0506

>  <Gold.PLP.ligand.clash>  (41) 
0.0000

>  <Gold.PLP.ligand.torsion>  (41) 
0.5225

>  <Gold.PLP.Chemscore.Hbond>  (41) 
2.9440

>  <Gold.PLP.Chemscore.CHOScore>  (41) 
0.0000

>  <Gold.PLP.Chemscore.Metal>  (41) 
0.0000

>  <Gold.Chemscore.Hbonds>  (41) 
donor molecule, donor type, donor heavy atom, donor atom, acceptor molecule, acceptor atom, score
      L1  H    11    29       P1  2691  0.94
      L1  H    11    30       P1  2902  2.00

>  <Gold.PLP.Chemscore.Internal.Correction>  (41) 
1.0290

>  <Gold.PLP.Constraint>  (41) 
-0.0000

>  <Gold.Protein.RotatedTorsions>  (41) 
[  681  677  676  673 ] final   73.10 input -179.99 | X-H torsion
[  702  698  697  694 ] final  -42.85 input  179.99 | X-H torsion
[ 2577 2569 2568 2566 ] final  102.09 input   -0.13 | X-H torsion
[ 2891 2887 2886 2883 ] final   14.96 input  179.98 | X-H torsion
[ 3175 3171 3170 3167 ] final  160.84 input -179.99 | X-H torsion
[ 5278 5270 5269 5267 ] final  139.81 input    0.55 | X-H torsion
[  641  637  636  633 ] final  -42.24 input  179.99 | X-H torsion
[ 1886 1878 1877 1875 ] final  -47.58 input    1.60 | X-H torsion
[  965  957  956  954 ] final   -5.24 input    0.45 | X-H torsion

>  <Gold.Protein.ActiveResidues>  (41) 
 LYS47   THR48   LEU49   GLY50   THR51   GLY52   SER53   PHE54   GLY55   ARG56  
 VAL57   MET58   LEU59   TYR69   ALA70   MET71   LYS72   ILE73   LEU74   GLU91  
 LEU95   VAL104  LYS105  MET118  VAL119  MET120  GLU121  TYR122  VAL123  PRO124 
 GLY125  GLY126  GLU127  MET128  PHE129  TYR164  ASP166  LEU167  LYS168  PRO169 
 GLU170  ASN171  LEU172  LEU173  ILE174  GLN181  VAL182  THR183  ASP184  PHE185 
 GLY186  PHE187  GLY200  THR201  ASN326  PHE327  TYR330  ARG18   ARG19   ASN20  
 ALA21   ILE22   HIS23  

>  <Gold.Protein.RotatedAtoms>  (41) 
    9.9134   19.0532    7.4286 H   0  0  0  0  0  0  0  0  0  0  0  0  # atno 641  bound_to 637 
   16.8398   12.8479    6.0632 H   0  0  0  0  0  0  0  0  0  0  0  0  # atno 681  bound_to 677 
   20.0220   11.7247   -0.2641 H   0  0  0  0  0  0  0  0  0  0  0  0  # atno 702  bound_to 698 
   -6.6856   15.4272   -1.0743 H   0  0  0  0  0  0  0  0  0  0  0  0  # atno 965  bound_to 957 
    1.8585   10.7039   10.3766 H   0  0  0  0  0  0  0  0  0  0  0  0  # atno 1886 bound_to 1878
    9.4928    2.1394   -2.6053 H   0  0  0  0  0  0  0  0  0  0  0  0  # atno 2577 bound_to 2569
    8.1986    5.6136    0.2677 H   0  0  0  0  0  0  0  0  0  0  0  0  # atno 2891 bound_to 2887
   18.0084    2.0759   -0.0343 H   0  0  0  0  0  0  0  0  0  0  0  0  # atno 3175 bound_to 3171
   14.0436   10.2065    8.9024 H   0  0  0  0  0  0  0  0  0  0  0  0  # atno 5278 bound_to 5270
   15.5763   12.9984    7.0208 LP  0  0  0  0  0  0  0  0  0  0  0  0  # atno 5914 bound_to 677 
   16.8736   13.9763    7.1866 LP  0  0  0  0  0  0  0  0  0  0  0  0  # atno 5915 bound_to 677 
   21.1214   11.5349   -1.4011 LP  0  0  0  0  0  0  0  0  0  0  0  0  # atno 5920 bound_to 698 
   19.5600   11.8191   -1.7857 LP  0  0  0  0  0  0  0  0  0  0  0  0  # atno 5921 bound_to 698 
   10.0143    3.4020   -3.4234 LP  0  0  0  0  0  0  0  0  0  0  0  0  # atno 5950 bound_to 2569
   11.0611    2.4097   -2.6577 LP  0  0  0  0  0  0  0  0  0  0  0  0  # atno 5951 bound_to 2569
    7.1693    5.6040    1.4831 LP  0  0  0  0  0  0  0  0  0  0  0  0  # atno 5982 bound_to 2887
    7.8769    6.9929    0.9962 LP  0  0  0  0  0  0  0  0  0  0  0  0  # atno 5983 bound_to 2887
   18.6559    2.3914   -1.4544 LP  0  0  0  0  0  0  0  0  0  0  0  0  # atno 6000 bound_to 3171
   19.2801    3.0326   -0.0884 LP  0  0  0  0  0  0  0  0  0  0  0  0  # atno 6001 bound_to 3171
   12.5912   10.0196    9.5288 LP  0  0  0  0  0  0  0  0  0  0  0  0  # atno 6004 bound_to 5270
   13.9294    9.8087   10.4405 LP  0  0  0  0  0  0  0  0  0  0  0  0  # atno 6005 bound_to 5270
   11.4011   19.2586    7.9572 LP  0  0  0  0  0  0  0  0  0  0  0  0  # atno 6055 bound_to 637 
   10.1228   19.7765    8.8315 LP  0  0  0  0  0  0  0  0  0  0  0  0  # atno 6056 bound_to 637 
    0.5745   11.3406   11.0702 LP  0  0  0  0  0  0  0  0  0  0  0  0  # atno 6063 bound_to 1878
    1.8544   12.2700   10.6644 LP  0  0  0  0  0  0  0  0  0  0  0  0  # atno 6064 bound_to 1878
   -6.5633   16.9906   -1.3496 LP  0  0  0  0  0  0  0  0  0  0  0  0  # atno 6067 bound_to 957 
   -7.2036   16.4336    0.0455 LP  0  0  0  0  0  0  0  0  0  0  0  0  # atno 6068 bound_to 957 

>  <STRIFE_LigEff_Score>  (41) 
2.636623076923077

$$$$
unknown|pharmsElabsTestPreDocking|sdf|42|dock5
     RDKit          3D

 17 18  0  0  0  0  0  0  0  0999 V2000
   14.8535    9.0132    1.4040 C   0  0  0  0  0  0  0  0  0  0  0  0
   13.9024    7.9150    1.8772 C   0  0  0  0  0  0  0  0  0  0  0  0
   13.4800    7.0398    0.7818 N   0  0  0  0  0  0  0  0  0  0  0  0
   12.7291    8.3067    2.8086 C   0  0  0  0  0  0  0  0  0  0  0  0
   11.6359    7.2328    2.9074 C   0  0  0  0  0  0  0  0  0  0  0  0
   10.2786    7.6948    3.4099 C   0  0  0  0  0  0  0  0  0  0  0  0
    9.8761    9.0350    2.8484 C   0  0  0  0  0  0  0  0  0  0  0  0
    8.4262    9.3657    3.0419 C   0  0  0  0  0  0  0  0  0  0  0  0
    8.2283   10.3291    3.8161 O   0  0  0  0  0  0  0  0  0  0  0  0
    7.3031    8.6905    2.4354 N   0  0  0  0  0  0  0  0  0  0  0  0
    5.9292    9.0075    2.7759 C   0  0  0  0  0  0  0  0  0  0  0  0
    4.8521    9.1897    1.9098 C   0  0  0  0  0  0  0  0  0  0  0  0
    3.7673    9.4865    2.7026 C   0  0  0  0  0  0  0  0  0  0  0  0
    4.1288    9.4975    3.9979 N   0  0  0  0  0  0  0  0  0  0  0  0
    5.4435    9.2080    4.0540 C   0  0  0  0  0  0  0  0  0  0  0  0
   10.8687   10.1528    2.9919 C   0  0  0  0  0  0  0  0  0  0  0  0
   12.2588    9.7536    2.5011 C   0  0  0  0  0  0  0  0  0  0  0  0
  1  2  1  0
  2  3  1  0
  2  4  1  0
  4  5  1  0
  5  6  1  0
  6  7  1  0
  7  8  1  0
  8  9  2  0
  8 10  1  0
 10 11  1  0
 11 12  1  0
 12 13  2  0
 13 14  1  0
 14 15  1  0
  7 16  1  0
 16 17  1  0
 17  4  1  0
 15 11  2  0
M  CHG  1   3   1
M  END
>  <EmbedRMS>  (42) 
0.3005329260886256

>  <Gold.Version>  (42) 
2020.3.0

>  <Gold.Id.Protein>  (42) 
unknown|1q8t_protein|pdb

>  <Gold.PLP.Fitness>  (42) 
47.0490

>  <Gold.PLP.PLP>  (42) 
-35.2743

>  <Gold.PLP.part.hbond>  (42) 
-2.6614

>  <Gold.PLP.part.metal>  (42) 
0.0000

>  <Gold.PLP.part.buried>  (42) 
-5.3108

>  <Gold.PLP.part.nonpolar>  (42) 
-28.3779

>  <Gold.PLP.part.repulsive>  (42) 
0.1217

>  <Gold.PLP.ligand.clash>  (42) 
0.0000

>  <Gold.PLP.ligand.torsion>  (42) 
1.5053

>  <Gold.PLP.Chemscore.Hbond>  (42) 
3.7200

>  <Gold.PLP.Chemscore.CHOScore>  (42) 
1.0000

>  <Gold.PLP.Chemscore.Metal>  (42) 
0.0000

>  <Gold.Chemscore.Hbonds>  (42) 
donor molecule, donor type, donor heavy atom, donor atom, acceptor molecule, acceptor atom, score
      L1  H     3    22       P1  2691  0.72
      L1  H     3    24       P1  2902  2.00
      L1  H    10    31       P1  2887  1.00
      L1  C    13    33       P1  1855  1.00

>  <Gold.PLP.Chemscore.Internal.Correction>  (42) 
0.6252

>  <Gold.PLP.Constraint>  (42) 
-0.0000

>  <Gold.Protein.RotatedTorsions>  (42) 
[  681  677  676  673 ] final   93.30 input -179.99 | X-H torsion
[  702  698  697  694 ] final -135.00 input  179.99 | X-H torsion
[ 2577 2569 2568 2566 ] final   71.86 input   -0.13 | X-H torsion
[ 2891 2887 2886 2883 ] final  -30.88 input  179.98 | X-H torsion
[ 3175 3171 3170 3167 ] final -123.27 input -179.99 | X-H torsion
[ 5278 5270 5269 5267 ] final  -74.27 input    0.55 | X-H torsion
[  641  637  636  633 ] final   94.26 input  179.99 | X-H torsion
[ 1886 1878 1877 1875 ] final  -55.96 input    1.60 | X-H torsion
[  965  957  956  954 ] final  -63.65 input    0.45 | X-H torsion

>  <Gold.Protein.ActiveResidues>  (42) 
 LYS47   THR48   LEU49   GLY50   THR51   GLY52   SER53   PHE54   GLY55   ARG56  
 VAL57   MET58   LEU59   TYR69   ALA70   MET71   LYS72   ILE73   LEU74   GLU91  
 LEU95   VAL104  LYS105  MET118  VAL119  MET120  GLU121  TYR122  VAL123  PRO124 
 GLY125  GLY126  GLU127  MET128  PHE129  TYR164  ASP166  LEU167  LYS168  PRO169 
 GLU170  ASN171  LEU172  LEU173  ILE174  GLN181  VAL182  THR183  ASP184  PHE185 
 GLY186  PHE187  GLY200  THR201  ASN326  PHE327  TYR330  ARG18   ARG19   ASN20  
 ALA21   ILE22   HIS23  

>  <Gold.Protein.RotatedAtoms>  (42) 
   10.3892   19.7568    8.8585 H   0  0  0  0  0  0  0  0  0  0  0  0  # atno 641  bound_to 637 
   17.0605   13.0594    6.1361 H   0  0  0  0  0  0  0  0  0  0  0  0  # atno 681  bound_to 677 
   21.0970   11.5475   -0.9567 H   0  0  0  0  0  0  0  0  0  0  0  0  # atno 702  bound_to 698 
   -6.4436   16.0880   -1.5920 H   0  0  0  0  0  0  0  0  0  0  0  0  # atno 965  bound_to 957 
    1.7516   10.6373   10.4124 H   0  0  0  0  0  0  0  0  0  0  0  0  # atno 1886 bound_to 1878
    9.2970    2.4808   -2.8567 H   0  0  0  0  0  0  0  0  0  0  0  0  # atno 2577 bound_to 2569
    7.7834    5.2036    0.6504 H   0  0  0  0  0  0  0  0  0  0  0  0  # atno 2891 bound_to 2887
   18.8210    2.7253    0.3280 H   0  0  0  0  0  0  0  0  0  0  0  0  # atno 3175 bound_to 3171
   13.5165    9.8109   10.4840 H   0  0  0  0  0  0  0  0  0  0  0  0  # atno 5278 bound_to 5270
   15.6282   12.7832    6.7752 LP  0  0  0  0  0  0  0  0  0  0  0  0  # atno 5914 bound_to 677 
   16.5894   13.9690    7.3554 LP  0  0  0  0  0  0  0  0  0  0  0  0  # atno 5915 bound_to 677 
   19.9379   11.7568   -2.0291 LP  0  0  0  0  0  0  0  0  0  0  0  0  # atno 5920 bound_to 698 
   19.6126   11.7836   -0.4291 LP  0  0  0  0  0  0  0  0  0  0  0  0  # atno 5921 bound_to 698 
   10.5032    3.3824   -3.3740 LP  0  0  0  0  0  0  0  0  0  0  0  0  # atno 5950 bound_to 2569
   10.7784    2.0698   -2.4424 LP  0  0  0  0  0  0  0  0  0  0  0  0  # atno 5951 bound_to 2569
    7.2005    6.3249    1.6197 LP  0  0  0  0  0  0  0  0  0  0  0  0  # atno 5982 bound_to 2887
    8.2827    6.7035    0.4569 LP  0  0  0  0  0  0  0  0  0  0  0  0  # atno 5983 bound_to 2887
   17.9024    1.9318   -0.7026 LP  0  0  0  0  0  0  0  0  0  0  0  0  # atno 6000 bound_to 3171
   19.1784    2.8089   -1.2215 LP  0  0  0  0  0  0  0  0  0  0  0  0  # atno 6001 bound_to 3171
   14.3539   10.1273    9.1666 LP  0  0  0  0  0  0  0  0  0  0  0  0  # atno 6004 bound_to 5270
   12.7212   10.1172    9.1385 LP  0  0  0  0  0  0  0  0  0  0  0  0  # atno 6005 bound_to 5270
    9.6992   19.1500    7.5583 LP  0  0  0  0  0  0  0  0  0  0  0  0  # atno 6055 bound_to 637 
   11.3237   19.1441    7.7244 LP  0  0  0  0  0  0  0  0  0  0  0  0  # atno 6056 bound_to 637 
    0.5809   11.4769   11.0906 LP  0  0  0  0  0  0  0  0  0  0  0  0  # atno 6063 bound_to 1878
    1.9606   12.2039   10.6063 LP  0  0  0  0  0  0  0  0  0  0  0  0  # atno 6064 bound_to 1878
   -6.9362   17.1637   -0.5266 LP  0  0  0  0  0  0  0  0  0  0  0  0  # atno 6067 bound_to 957 
   -7.0854   15.5644   -0.2322 LP  0  0  0  0  0  0  0  0  0  0  0  0  # atno 6068 bound_to 957 

>  <STRIFE_LigEff_Score>  (42) 
2.7675882352941175

$$$$
unknown|pharmsElabsTestPreDocking|sdf|43|dock2
     RDKit          3D

 16 16  0  0  0  0  0  0  0  0999 V2000
   15.0243    7.9482    3.0995 C   0  0  0  0  0  0  0  0  0  0  0  0
   13.9545    8.1195    2.0079 C   0  0  0  0  0  0  0  0  0  0  0  0
   14.0975    7.0712    0.9932 N   0  0  0  0  0  0  0  0  0  0  0  0
   12.4723    8.2802    2.5031 C   0  0  0  0  0  0  0  0  0  0  0  0
   11.4375    7.6124    1.5985 C   0  0  0  0  0  0  0  0  0  0  0  0
    9.9978    7.7117    2.0799 C   0  0  0  0  0  0  0  0  0  0  0  0
    9.6551    9.0690    2.6469 C   0  0  0  0  0  0  0  0  0  0  0  0
    8.1828    9.2943    2.8456 C   0  0  0  0  0  0  0  0  0  0  0  0
    7.5235    9.2770    1.7823 O   0  0  0  0  0  0  0  0  0  0  0  0
    7.5083    9.5014    4.1061 N   0  0  0  0  0  0  0  0  0  0  0  0
    6.1068    9.8778    4.2168 C   0  0  0  0  0  0  0  0  0  0  0  0
    5.1622    9.8637    2.8766 S   0  0  0  0  0  0  0  0  0  0  0  0
    5.4012   10.0945    5.5358 C   0  0  0  0  0  0  0  0  0  0  0  0
    3.5995   10.0689    5.2945 S   0  0  0  0  0  0  0  0  0  0  0  0
   10.6118    9.6673    3.6519 C   0  0  0  0  0  0  0  0  0  0  0  0
   12.0646    9.6183    3.1514 C   0  0  0  0  0  0  0  0  0  0  0  0
  1  2  1  0
  2  3  1  0
  2  4  1  0
  4  5  1  0
  5  6  1  0
  6  7  1  0
  7  8  1  0
  8  9  2  0
  8 10  1  0
 10 11  1  0
 11 12  2  0
 11 13  1  0
 13 14  1  0
  7 15  1  0
 15 16  1  0
 16  4  1  0
M  CHG  1   3   1
M  END
>  <EmbedRMS>  (43) 
0.2776559693615689

>  <Gold.Version>  (43) 
2020.3.0

>  <Gold.Id.Protein>  (43) 
unknown|1q8t_protein|pdb

>  <Gold.PLP.Fitness>  (43) 
45.1332

>  <Gold.PLP.PLP>  (43) 
-37.7434

>  <Gold.PLP.part.hbond>  (43) 
-2.1791

>  <Gold.PLP.part.metal>  (43) 
0.0000

>  <Gold.PLP.part.buried>  (43) 
-3.4334

>  <Gold.PLP.part.nonpolar>  (43) 
-32.9982

>  <Gold.PLP.part.repulsive>  (43) 
0.0680

>  <Gold.PLP.ligand.clash>  (43) 
0.0000

>  <Gold.PLP.ligand.torsion>  (43) 
1.2359

>  <Gold.PLP.Chemscore.Hbond>  (43) 
3.0000

>  <Gold.PLP.Chemscore.CHOScore>  (43) 
0.0000

>  <Gold.PLP.Chemscore.Metal>  (43) 
0.0000

>  <Gold.Chemscore.Hbonds>  (43) 
donor molecule, donor type, donor heavy atom, donor atom, acceptor molecule, acceptor atom, score
      L1  H     3    21       P1  2691  1.00
      L1  H     3    23       P1  2902  2.00

>  <Gold.PLP.Chemscore.Internal.Correction>  (43) 
0.8615

>  <Gold.PLP.Constraint>  (43) 
-0.0000

>  <Gold.Protein.RotatedTorsions>  (43) 
[  681  677  676  673 ] final  107.08 input -179.99 | X-H torsion
[  702  698  697  694 ] final -106.06 input  179.99 | X-H torsion
[ 2577 2569 2568 2566 ] final  -60.40 input   -0.13 | X-H torsion
[ 2891 2887 2886 2883 ] final  111.76 input  179.98 | X-H torsion
[ 3175 3171 3170 3167 ] final   77.74 input -179.99 | X-H torsion
[ 5278 5270 5269 5267 ] final  -51.00 input    0.55 | X-H torsion
[  641  637  636  633 ] final   77.03 input  179.99 | X-H torsion
[ 1886 1878 1877 1875 ] final  -41.22 input    1.60 | X-H torsion
[  965  957  956  954 ] final  176.31 input    0.45 | X-H torsion

>  <Gold.Protein.ActiveResidues>  (43) 
 LYS47   THR48   LEU49   GLY50   THR51   GLY52   SER53   PHE54   GLY55   ARG56  
 VAL57   MET58   LEU59   TYR69   ALA70   MET71   LYS72   ILE73   LEU74   GLU91  
 LEU95   VAL104  LYS105  MET118  VAL119  MET120  GLU121  TYR122  VAL123  PRO124 
 GLY125  GLY126  GLU127  MET128  PHE129  TYR164  ASP166  LEU167  LYS168  PRO169 
 GLU170  ASN171  LEU172  LEU173  ILE174  GLN181  VAL182  THR183  ASP184  PHE185 
 GLY186  PHE187  GLY200  THR201  ASN326  PHE327  TYR330  ARG18   ARG19   ASN20  
 ALA21   ILE22   HIS23  

>  <Gold.Protein.RotatedAtoms>  (43) 
   10.1289   19.7394    8.7960 H   0  0  0  0  0  0  0  0  0  0  0  0  # atno 641  bound_to 637 
   17.1680   13.2205    6.2293 H   0  0  0  0  0  0  0  0  0  0  0  0  # atno 681  bound_to 677 
   20.9027   11.5742   -0.5541 H   0  0  0  0  0  0  0  0  0  0  0  0  # atno 702  bound_to 698 
   -6.9158   17.1183   -0.5331 H   0  0  0  0  0  0  0  0  0  0  0  0  # atno 965  bound_to 957 
    1.9336   10.7648   10.3539 H   0  0  0  0  0  0  0  0  0  0  0  0  # atno 1886 bound_to 1878
   10.6588    3.2718   -3.3062 H   0  0  0  0  0  0  0  0  0  0  0  0  # atno 2577 bound_to 2569
    8.0801    6.8739    0.7069 H   0  0  0  0  0  0  0  0  0  0  0  0  # atno 2891 bound_to 2887
   18.2277    2.0854   -1.2020 H   0  0  0  0  0  0  0  0  0  0  0  0  # atno 3175 bound_to 3171
   13.1637    9.8261   10.4071 H   0  0  0  0  0  0  0  0  0  0  0  0  # atno 5278 bound_to 5270
   15.7218   12.6689    6.6039 LP  0  0  0  0  0  0  0  0  0  0  0  0  # atno 5914 bound_to 677 
   16.3826   13.9137    7.4287 LP  0  0  0  0  0  0  0  0  0  0  0  0  # atno 5915 bound_to 677 
   20.4007   11.6754   -2.0624 LP  0  0  0  0  0  0  0  0  0  0  0  0  # atno 5920 bound_to 698 
   19.3542   11.8369   -0.8194 LP  0  0  0  0  0  0  0  0  0  0  0  0  # atno 5921 bound_to 698 
   10.6109    1.9725   -2.3871 LP  0  0  0  0  0  0  0  0  0  0  0  0  # atno 5950 bound_to 2569
    9.2368    2.6468   -2.9560 LP  0  0  0  0  0  0  0  0  0  0  0  0  # atno 5951 bound_to 2569
    8.0352    5.3099    0.4097 LP  0  0  0  0  0  0  0  0  0  0  0  0  # atno 5982 bound_to 2887
    7.1358    5.9606    1.6073 LP  0  0  0  0  0  0  0  0  0  0  0  0  # atno 5983 bound_to 2887
   19.3903    3.0374   -0.6751 LP  0  0  0  0  0  0  0  0  0  0  0  0  # atno 6000 bound_to 3171
   18.3150    2.3766    0.3611 LP  0  0  0  0  0  0  0  0  0  0  0  0  # atno 6001 bound_to 3171
   14.4682   10.0416    9.5191 LP  0  0  0  0  0  0  0  0  0  0  0  0  # atno 6004 bound_to 5270
   12.9782   10.1869    8.8669 LP  0  0  0  0  0  0  0  0  0  0  0  0  # atno 6005 bound_to 5270
    9.8942   19.0485    7.3809 LP  0  0  0  0  0  0  0  0  0  0  0  0  # atno 6055 bound_to 637 
   11.4028   19.2639    7.9677 LP  0  0  0  0  0  0  0  0  0  0  0  0  # atno 6056 bound_to 637 
    0.5819   11.2385   11.0495 LP  0  0  0  0  0  0  0  0  0  0  0  0  # atno 6063 bound_to 1878
    1.7679   12.3081   10.7090 LP  0  0  0  0  0  0  0  0  0  0  0  0  # atno 6064 bound_to 1878
   -7.0852   15.5639   -0.2328 LP  0  0  0  0  0  0  0  0  0  0  0  0  # atno 6067 bound_to 957 
   -6.4392   16.0791   -1.6413 LP  0  0  0  0  0  0  0  0  0  0  0  0  # atno 6068 bound_to 957 

>  <STRIFE_LigEff_Score>  (43) 
2.820825

$$$$
unknown|pharmsElabsTestPreDocking|sdf|44|dock1
     RDKit          3D

 16 16  0  0  0  0  0  0  0  0999 V2000
   14.8994    8.0111    3.2096 C   0  0  0  0  0  0  0  0  0  0  0  0
   13.8563    8.1386    2.0866 C   0  0  0  0  0  0  0  0  0  0  0  0
   14.0457    7.0715    1.0995 N   0  0  0  0  0  0  0  0  0  0  0  0
   12.3589    8.2817    2.5393 C   0  0  0  0  0  0  0  0  0  0  0  0
   11.3559    7.6329    1.5865 C   0  0  0  0  0  0  0  0  0  0  0  0
    9.9015    7.7174    2.0232 C   0  0  0  0  0  0  0  0  0  0  0  0
    9.5351    9.0616    2.6054 C   0  0  0  0  0  0  0  0  0  0  0  0
    8.0579    9.2634    2.7795 C   0  0  0  0  0  0  0  0  0  0  0  0
    7.3572    8.8849    1.8101 O   0  0  0  0  0  0  0  0  0  0  0  0
    7.4133    9.8495    3.9233 N   0  0  0  0  0  0  0  0  0  0  0  0
    5.9621   10.0948    3.9247 C   0  0  0  0  0  0  0  0  0  0  0  0
    5.3379    9.8226    5.3016 C   0  0  0  0  0  0  0  0  0  0  0  0
    3.8271   10.0878    5.3547 C   0  0  0  0  0  0  0  0  0  0  0  0
    3.1378    9.3549    4.2978 N   0  0  0  0  0  0  0  0  0  0  0  0
   10.4575    9.6354    3.6576 C   0  0  0  0  0  0  0  0  0  0  0  0
   11.9257    9.6024    3.2051 C   0  0  0  0  0  0  0  0  0  0  0  0
  1  2  1  0
  2  3  1  0
  2  4  1  0
  4  5  1  0
  5  6  1  0
  6  7  1  0
  7  8  1  0
  8  9  2  0
  8 10  1  0
 10 11  1  0
 11 12  1  0
 12 13  1  0
 13 14  1  0
  7 15  1  0
 15 16  1  0
 16  4  1  0
M  CHG  1   3   1
M  END
>  <EmbedRMS>  (44) 
0.2789738548505618

>  <Gold.Version>  (44) 
2020.3.0

>  <Gold.Id.Protein>  (44) 
unknown|1q8t_protein|pdb

>  <Gold.PLP.Fitness>  (44) 
51.6086

>  <Gold.PLP.PLP>  (44) 
-37.8434

>  <Gold.PLP.part.hbond>  (44) 
-4.0000

>  <Gold.PLP.part.metal>  (44) 
0.0000

>  <Gold.PLP.part.buried>  (44) 
-4.4284

>  <Gold.PLP.part.nonpolar>  (44) 
-29.6141

>  <Gold.PLP.part.repulsive>  (44) 
0.0637

>  <Gold.PLP.ligand.clash>  (44) 
0.0000

>  <Gold.PLP.ligand.torsion>  (44) 
1.0605

>  <Gold.PLP.Chemscore.Hbond>  (44) 
5.0000

>  <Gold.PLP.Chemscore.CHOScore>  (44) 
0.0000

>  <Gold.PLP.Chemscore.Metal>  (44) 
0.0000

>  <Gold.Chemscore.Hbonds>  (44) 
donor molecule, donor type, donor heavy atom, donor atom, acceptor molecule, acceptor atom, score
      L1  H     3    22       P1  2691  1.00
      L1  H     3    23       P1  2902  2.00
      P1  H  2887  2891       L1     9  1.00
      P1  H  1888  1903       L1    14  1.00

>  <Gold.PLP.Chemscore.Internal.Correction>  (44) 
0.8861

>  <Gold.PLP.Constraint>  (44) 
-0.0000

>  <Gold.Protein.RotatedTorsions>  (44) 
[  681  677  676  673 ] final  -47.51 input -179.99 | X-H torsion
[  702  698  697  694 ] final -139.61 input  179.99 | X-H torsion
[ 2577 2569 2568 2566 ] final -120.20 input   -0.13 | X-H torsion
[ 2891 2887 2886 2883 ] final  157.03 input  179.98 | X-H torsion
[ 3175 3171 3170 3167 ] final   51.65 input -179.99 | X-H torsion
[ 5278 5270 5269 5267 ] final  -70.11 input    0.55 | X-H torsion
[  641  637  636  633 ] final  -31.30 input  179.99 | X-H torsion
[ 1886 1878 1877 1875 ] final -112.73 input    1.60 | X-H torsion
[  965  957  956  954 ] final  111.96 input    0.45 | X-H torsion

>  <Gold.Protein.ActiveResidues>  (44) 
 LYS47   THR48   LEU49   GLY50   THR51   GLY52   SER53   PHE54   GLY55   ARG56  
 VAL57   MET58   LEU59   TYR69   ALA70   MET71   LYS72   ILE73   LEU74   GLU91  
 LEU95   VAL104  LYS105  MET118  VAL119  MET120  GLU121  TYR122  VAL123  PRO124 
 GLY125  GLY126  GLU127  MET128  PHE129  TYR164  ASP166  LEU167  LYS168  PRO169 
 GLU170  ASN171  LEU172  LEU173  ILE174  GLN181  VAL182  THR183  ASP184  PHE185 
 GLY186  PHE187  GLY200  THR201  ASN326  PHE327  TYR330  ARG18   ARG19   ASN20  
 ALA21   ILE22   HIS23  

>  <Gold.Protein.RotatedAtoms>  (44) 
    9.7904   19.1125    7.5312 H   0  0  0  0  0  0  0  0  0  0  0  0  # atno 641  bound_to 637 
   15.6127   13.0292    7.0031 H   0  0  0  0  0  0  0  0  0  0  0  0  # atno 681  bound_to 677 
   21.1085   11.5468   -1.0279 H   0  0  0  0  0  0  0  0  0  0  0  0  # atno 702  bound_to 698 
   -7.1725   16.3818    0.0155 H   0  0  0  0  0  0  0  0  0  0  0  0  # atno 965  bound_to 957 
    0.9744   10.6608   10.7590 H   0  0  0  0  0  0  0  0  0  0  0  0  # atno 1886 bound_to 1878
   11.0711    2.6359   -2.8344 H   0  0  0  0  0  0  0  0  0  0  0  0  # atno 2577 bound_to 2569
    7.6312    6.8876    1.2301 H   0  0  0  0  0  0  0  0  0  0  0  0  # atno 2891 bound_to 2887
   18.5295    2.2854   -1.3820 H   0  0  0  0  0  0  0  0  0  0  0  0  # atno 3175 bound_to 3171
   13.4516    9.8110   10.4806 H   0  0  0  0  0  0  0  0  0  0  0  0  # atno 5278 bound_to 5270
   16.8815   13.9751    7.1805 LP  0  0  0  0  0  0  0  0  0  0  0  0  # atno 5914 bound_to 677 
   16.8599   12.8089    6.0377 LP  0  0  0  0  0  0  0  0  0  0  0  0  # atno 5915 bound_to 677 
   19.8680   11.7687   -2.0022 LP  0  0  0  0  0  0  0  0  0  0  0  0  # atno 5920 bound_to 698 
   19.6704   11.7724   -0.3812 LP  0  0  0  0  0  0  0  0  0  0  0  0  # atno 5921 bound_to 698 
    9.6735    1.9732   -2.4563 LP  0  0  0  0  0  0  0  0  0  0  0  0  # atno 5950 bound_to 2569
    9.7401    3.3157   -3.3836 LP  0  0  0  0  0  0  0  0  0  0  0  0  # atno 5951 bound_to 2569
    8.3532    5.9234    0.1883 LP  0  0  0  0  0  0  0  0  0  0  0  0  # atno 5982 bound_to 2887
    7.2902    5.3327    1.2781 LP  0  0  0  0  0  0  0  0  0  0  0  0  # atno 5983 bound_to 2887
   19.3436    3.0581   -0.2525 LP  0  0  0  0  0  0  0  0  0  0  0  0  # atno 6000 bound_to 3171
   18.0440    2.1454    0.1280 LP  0  0  0  0  0  0  0  0  0  0  0  0  # atno 6001 bound_to 3171
   14.3850   10.1130    9.2259 LP  0  0  0  0  0  0  0  0  0  0  0  0  # atno 6004 bound_to 5270
   12.7584   10.1314    9.0828 LP  0  0  0  0  0  0  0  0  0  0  0  0  # atno 6005 bound_to 5270
   11.3581   19.1811    7.8007 LP  0  0  0  0  0  0  0  0  0  0  0  0  # atno 6055 bound_to 637 
   10.2954   19.7915    8.8799 LP  0  0  0  0  0  0  0  0  0  0  0  0  # atno 6056 bound_to 637 
    1.0580   12.2311   11.0089 LP  0  0  0  0  0  0  0  0  0  0  0  0  # atno 6063 bound_to 1878
    2.3016   11.4249   10.3232 LP  0  0  0  0  0  0  0  0  0  0  0  0  # atno 6064 bound_to 1878
   -6.6761   15.3994   -1.1350 LP  0  0  0  0  0  0  0  0  0  0  0  0  # atno 6067 bound_to 957 
   -6.5779   17.0193   -1.3169 LP  0  0  0  0  0  0  0  0  0  0  0  0  # atno 6068 bound_to 957 

>  <STRIFE_LigEff_Score>  (44) 
3.2255375

$$$$
unknown|pharmsElabsTestPreDocking|sdf|45|dock7
     RDKit          3D

 17 17  0  0  0  0  0  0  0  0999 V2000
    5.7548   10.1031    5.6030 C   0  0  0  0  0  0  0  0  0  0  0  0
    5.0322    9.8208    4.5115 C   0  0  0  0  0  0  0  0  0  0  0  0
    3.5379   10.0687    4.5904 C   0  0  0  0  0  0  0  0  0  0  0  0
    5.6612    9.2941    3.2455 C   0  0  0  0  0  0  0  0  0  0  0  0
    4.8675    9.1989    2.1535 C   0  0  0  0  0  0  0  0  0  0  0  0
    7.0872    8.9483    3.1969 N   0  0  0  0  0  0  0  0  0  0  0  0
    8.0338    9.4195    2.2088 C   0  0  0  0  0  0  0  0  0  0  0  0
    7.6489   10.0957    1.2315 O   0  0  0  0  0  0  0  0  0  0  0  0
    9.5106    9.1593    2.2043 C   0  0  0  0  0  0  0  0  0  0  0  0
    9.8642    7.7063    1.9254 C   0  0  0  0  0  0  0  0  0  0  0  0
   11.3341    7.3708    2.1424 C   0  0  0  0  0  0  0  0  0  0  0  0
   12.2758    8.5732    1.9487 C   0  0  0  0  0  0  0  0  0  0  0  0
   13.7568    8.0876    2.0839 C   0  0  0  0  0  0  0  0  0  0  0  0
   13.9987    7.4779    3.4768 C   0  0  0  0  0  0  0  0  0  0  0  0
   14.1216    7.1035    1.0558 N   0  0  0  0  0  0  0  0  0  0  0  0
   11.9065    9.6759    2.9750 C   0  0  0  0  0  0  0  0  0  0  0  0
   10.4078   10.0456    3.0439 C   0  0  0  0  0  0  0  0  0  0  0  0
  1  2  2  0
  2  3  1  0
  2  4  1  0
  4  5  2  0
  4  6  1  0
  6  7  1  0
  7  8  2  0
  7  9  1  0
  9 10  1  0
 10 11  1  0
 11 12  1  0
 12 13  1  0
 13 14  1  0
 13 15  1  0
 12 16  1  0
 16 17  1  0
 17  9  1  0
M  CHG  1  15   1
M  END
>  <EmbedRMS>  (45) 
0.18263911859618057

>  <Gold.Version>  (45) 
2020.3.0

>  <Gold.Id.Protein>  (45) 
unknown|1q8t_protein|pdb

>  <Gold.PLP.Fitness>  (45) 
50.2962

>  <Gold.PLP.PLP>  (45) 
-42.3767

>  <Gold.PLP.part.hbond>  (45) 
-2.0000

>  <Gold.PLP.part.metal>  (45) 
0.0000

>  <Gold.PLP.part.buried>  (45) 
-2.4630

>  <Gold.PLP.part.nonpolar>  (45) 
-37.8213

>  <Gold.PLP.part.repulsive>  (45) 
0.0640

>  <Gold.PLP.ligand.clash>  (45) 
0.0000

>  <Gold.PLP.ligand.torsion>  (45) 
0.8792

>  <Gold.PLP.Chemscore.Hbond>  (45) 
3.0000

>  <Gold.PLP.Chemscore.CHOScore>  (45) 
0.0000

>  <Gold.PLP.Chemscore.Metal>  (45) 
0.0000

>  <Gold.Chemscore.Hbonds>  (45) 
donor molecule, donor type, donor heavy atom, donor atom, acceptor molecule, acceptor atom, score
      L1  H    15    36       P1  2691  1.00
      L1  H    15    37       P1  2902  2.00

>  <Gold.PLP.Chemscore.Internal.Correction>  (45) 
0.6778

>  <Gold.PLP.Constraint>  (45) 
-0.0000

>  <Gold.Protein.RotatedTorsions>  (45) 
[  681  677  676  673 ] final  -48.93 input -179.99 | X-H torsion
[  702  698  697  694 ] final  -68.38 input  179.99 | X-H torsion
[ 2577 2569 2568 2566 ] final -139.23 input   -0.13 | X-H torsion
[ 2891 2887 2886 2883 ] final    0.53 input  179.98 | X-H torsion
[ 3175 3171 3170 3167 ] final  -69.44 input -179.99 | X-H torsion
[ 5278 5270 5269 5267 ] final -143.27 input    0.55 | X-H torsion
[  641  637  636  633 ] final -147.02 input  179.99 | X-H torsion
[ 1886 1878 1877 1875 ] final   12.61 input    1.60 | X-H torsion
[  965  957  956  954 ] final  -79.71 input    0.45 | X-H torsion

>  <Gold.Protein.ActiveResidues>  (45) 
 LYS47   THR48   LEU49   GLY50   THR51   GLY52   SER53   PHE54   GLY55   ARG56  
 VAL57   MET58   LEU59   TYR69   ALA70   MET71   LYS72   ILE73   LEU74   GLU91  
 LEU95   VAL104  LYS105  MET118  VAL119  MET120  GLU121  TYR122  VAL123  PRO124 
 GLY125  GLY126  GLU127  MET128  PHE129  TYR164  ASP166  LEU167  LYS168  PRO169 
 GLU170  ASN171  LEU172  LEU173  ILE174  GLN181  VAL182  THR183  ASP184  PHE185 
 GLY186  PHE187  GLY200  THR201  ASN326  PHE327  TYR330  ARG18   ARG19   ASN20  
 ALA21   ILE22   HIS23  

>  <Gold.Protein.RotatedAtoms>  (45) 
   11.2880   19.1483    7.7652 H   0  0  0  0  0  0  0  0  0  0  0  0  # atno 641  bound_to 637 
   15.6132   13.0451    7.0185 H   0  0  0  0  0  0  0  0  0  0  0  0  # atno 681  bound_to 677 
   20.4118   11.6555   -0.2582 H   0  0  0  0  0  0  0  0  0  0  0  0  # atno 702  bound_to 698 
   -6.4351   16.3376   -1.6055 H   0  0  0  0  0  0  0  0  0  0  0  0  # atno 965  bound_to 957 
    2.2531   11.5098   10.3401 H   0  0  0  0  0  0  0  0  0  0  0  0  # atno 1886 bound_to 1878
   11.0103    2.3958   -2.6721 H   0  0  0  0  0  0  0  0  0  0  0  0  # atno 2577 bound_to 2569
    8.0876    5.4379    0.3542 H   0  0  0  0  0  0  0  0  0  0  0  0  # atno 2891 bound_to 2887
   19.3134    3.0146   -0.2476 H   0  0  0  0  0  0  0  0  0  0  0  0  # atno 3175 bound_to 3171
   14.3617    9.9538    9.9404 H   0  0  0  0  0  0  0  0  0  0  0  0  # atno 5278 bound_to 5270
   16.8997   13.9721    7.1662 LP  0  0  0  0  0  0  0  0  0  0  0  0  # atno 5914 bound_to 677 
   16.8411   12.7952    6.0357 LP  0  0  0  0  0  0  0  0  0  0  0  0  # atno 5915 bound_to 677 
   20.9228   11.5771   -1.7649 LP  0  0  0  0  0  0  0  0  0  0  0  0  # atno 5920 bound_to 698 
   19.3484   11.8497   -1.4281 LP  0  0  0  0  0  0  0  0  0  0  0  0  # atno 5921 bound_to 698 
    9.4418    2.1361   -2.5864 LP  0  0  0  0  0  0  0  0  0  0  0  0  # atno 5950 bound_to 2569
   10.0358    3.4056   -3.4243 LP  0  0  0  0  0  0  0  0  0  0  0  0  # atno 5951 bound_to 2569
    7.1365    5.8207    1.5730 LP  0  0  0  0  0  0  0  0  0  0  0  0  # atno 5982 bound_to 2887
    8.0265    6.9611    0.8153 LP  0  0  0  0  0  0  0  0  0  0  0  0  # atno 5983 bound_to 2887
   18.0351    2.1371    0.1150 LP  0  0  0  0  0  0  0  0  0  0  0  0  # atno 6000 bound_to 3171
   18.5276    2.2991   -1.4334 LP  0  0  0  0  0  0  0  0  0  0  0  0  # atno 6001 bound_to 3171
   13.3972   10.2315    8.7037 LP  0  0  0  0  0  0  0  0  0  0  0  0  # atno 6004 bound_to 5270
   12.7887    9.8627   10.1735 LP  0  0  0  0  0  0  0  0  0  0  0  0  # atno 6005 bound_to 5270
   10.3648   19.7932    8.8907 LP  0  0  0  0  0  0  0  0  0  0  0  0  # atno 6055 bound_to 637 
    9.7114   19.1417    7.5434 LP  0  0  0  0  0  0  0  0  0  0  0  0  # atno 6056 bound_to 637 
    1.0259   10.5779   10.7411 LP  0  0  0  0  0  0  0  0  0  0  0  0  # atno 6063 bound_to 1878
    0.9876   12.1844   11.0320 LP  0  0  0  0  0  0  0  0  0  0  0  0  # atno 6064 bound_to 1878
   -7.0349   17.0467   -0.3122 LP  0  0  0  0  0  0  0  0  0  0  0  0  # atno 6067 bound_to 957 
   -6.9957   15.4186   -0.4324 LP  0  0  0  0  0  0  0  0  0  0  0  0  # atno 6068 bound_to 957 

>  <STRIFE_LigEff_Score>  (45) 
2.9586

$$$$
unknown|pharmsElabsTestPreDocking|sdf|46|dock2
     RDKit          3D

 18 19  0  0  0  0  0  0  0  0999 V2000
   14.6767    9.2871    1.1610 C   0  0  0  0  0  0  0  0  0  0  0  0
   13.8325    8.0770    1.5240 C   0  0  0  0  0  0  0  0  0  0  0  0
   14.1100    6.8792    0.7389 N   0  0  0  0  0  0  0  0  0  0  0  0
   12.3488    8.3442    1.9222 C   0  0  0  0  0  0  0  0  0  0  0  0
   11.6488    7.3060    2.8132 C   0  0  0  0  0  0  0  0  0  0  0  0
   10.1205    7.5026    2.7983 C   0  0  0  0  0  0  0  0  0  0  0  0
    9.6739    8.9327    2.4842 C   0  0  0  0  0  0  0  0  0  0  0  0
    8.2004    9.1658    2.6099 C   0  0  0  0  0  0  0  0  0  0  0  0
    7.6944    9.6929    1.5953 O   0  0  0  0  0  0  0  0  0  0  0  0
    7.3761    8.8384    3.7526 N   0  0  0  0  0  0  0  0  0  0  0  0
    5.9684    9.1974    3.8852 C   0  0  0  0  0  0  0  0  0  0  0  0
    5.4798    9.6197    5.1367 C   0  0  0  0  0  0  0  0  0  0  0  0
    4.1352    9.9843    5.2968 C   0  0  0  0  0  0  0  0  0  0  0  0
    3.2545    9.9247    4.2161 C   0  0  0  0  0  0  0  0  0  0  0  0
    3.7137    9.5130    2.9719 C   0  0  0  0  0  0  0  0  0  0  0  0
    5.0502    9.1674    2.7994 C   0  0  0  0  0  0  0  0  0  0  0  0
   10.6116   10.1066    2.6938 C   0  0  0  0  0  0  0  0  0  0  0  0
   12.1017    9.7614    2.4830 C   0  0  0  0  0  0  0  0  0  0  0  0
  1  2  1  0
  2  3  1  0
  2  4  1  0
  4  5  1  0
  5  6  1  0
  6  7  1  0
  7  8  1  0
  8  9  2  0
  8 10  1  0
 10 11  1  0
 11 12  2  0
 12 13  1  0
 13 14  2  0
 14 15  1  0
 15 16  2  0
  7 17  1  0
 17 18  1  0
 18  4  1  0
 16 11  1  0
M  CHG  1   3   1
M  END
>  <EmbedRMS>  (46) 
0.24964892458419108

>  <Gold.Version>  (46) 
2020.3.0

>  <Gold.Id.Protein>  (46) 
unknown|1q8t_protein|pdb

>  <Gold.PLP.Fitness>  (46) 
54.4515

>  <Gold.PLP.PLP>  (46) 
-46.6226

>  <Gold.PLP.part.hbond>  (46) 
-2.0000

>  <Gold.PLP.part.metal>  (46) 
0.0000

>  <Gold.PLP.part.buried>  (46) 
-2.6125

>  <Gold.PLP.part.nonpolar>  (46) 
-42.8304

>  <Gold.PLP.part.repulsive>  (46) 
0.0911

>  <Gold.PLP.ligand.clash>  (46) 
0.0000

>  <Gold.PLP.ligand.torsion>  (46) 
1.0287

>  <Gold.PLP.Chemscore.Hbond>  (46) 
2.9840

>  <Gold.PLP.Chemscore.CHOScore>  (46) 
0.0000

>  <Gold.PLP.Chemscore.Metal>  (46) 
0.0000

>  <Gold.Chemscore.Hbonds>  (46) 
donor molecule, donor type, donor heavy atom, donor atom, acceptor molecule, acceptor atom, score
      L1  H     3    23       P1  2691  1.00
      L1  H     3    25       P1  2902  1.98

>  <Gold.PLP.Chemscore.Internal.Correction>  (46) 
0.9344

>  <Gold.PLP.Constraint>  (46) 
-0.0000

>  <Gold.Protein.RotatedTorsions>  (46) 
[  681  677  676  673 ] final   16.00 input -179.99 | X-H torsion
[  702  698  697  694 ] final -123.24 input  179.99 | X-H torsion
[ 2577 2569 2568 2566 ] final  110.44 input   -0.13 | X-H torsion
[ 2891 2887 2886 2883 ] final  -43.87 input  179.98 | X-H torsion
[ 3175 3171 3170 3167 ] final  -97.70 input -179.99 | X-H torsion
[ 5278 5270 5269 5267 ] final -142.34 input    0.55 | X-H torsion
[  641  637  636  633 ] final   80.89 input  179.99 | X-H torsion
[ 1886 1878 1877 1875 ] final  171.60 input    1.60 | X-H torsion
[  965  957  956  954 ] final -172.27 input    0.45 | X-H torsion

>  <Gold.Protein.ActiveResidues>  (46) 
 LYS47   THR48   LEU49   GLY50   THR51   GLY52   SER53   PHE54   GLY55   ARG56  
 VAL57   MET58   LEU59   TYR69   ALA70   MET71   LYS72   ILE73   LEU74   GLU91  
 LEU95   VAL104  LYS105  MET118  VAL119  MET120  GLU121  TYR122  VAL123  PRO124 
 GLY125  GLY126  GLU127  MET128  PHE129  TYR164  ASP166  LEU167  LYS168  PRO169 
 GLU170  ASN171  LEU172  LEU173  ILE174  GLN181  VAL182  THR183  ASP184  PHE185 
 GLY186  PHE187  GLY200  THR201  ASN326  PHE327  TYR330  ARG18   ARG19   ASN20  
 ALA21   ILE22   HIS23  

>  <Gold.Protein.RotatedAtoms>  (46) 
   10.1854   19.7465    8.8160 H   0  0  0  0  0  0  0  0  0  0  0  0  # atno 641  bound_to 637 
   16.0562   12.5922    6.2951 H   0  0  0  0  0  0  0  0  0  0  0  0  # atno 681  bound_to 677 
   21.0424   11.5538   -0.7814 H   0  0  0  0  0  0  0  0  0  0  0  0  # atno 702  bound_to 698 
   -6.8435   17.1574   -0.6912 H   0  0  0  0  0  0  0  0  0  0  0  0  # atno 965  bound_to 957 
    0.6581   11.6660   11.0699 H   0  0  0  0  0  0  0  0  0  0  0  0  # atno 1886 bound_to 1878
    9.5834    2.0657   -2.5475 H   0  0  0  0  0  0  0  0  0  0  0  0  # atno 2577 bound_to 2569
    7.6490    5.1789    0.8001 H   0  0  0  0  0  0  0  0  0  0  0  0  # atno 2891 bound_to 2887
   19.1058    2.9093    0.1225 H   0  0  0  0  0  0  0  0  0  0  0  0  # atno 3175 bound_to 3171
   14.3561    9.9505    9.9534 H   0  0  0  0  0  0  0  0  0  0  0  0  # atno 5278 bound_to 5270
   15.9733   13.6824    7.4530 LP  0  0  0  0  0  0  0  0  0  0  0  0  # atno 5914 bound_to 677 
   17.3013   13.5615    6.5104 LP  0  0  0  0  0  0  0  0  0  0  0  0  # atno 5915 bound_to 677 
   20.1237   11.7247   -2.0714 LP  0  0  0  0  0  0  0  0  0  0  0  0  # atno 5920 bound_to 698 
   19.4842   11.8091   -0.5712 LP  0  0  0  0  0  0  0  0  0  0  0  0  # atno 5921 bound_to 698 
    9.8815    3.3699   -3.4109 LP  0  0  0  0  0  0  0  0  0  0  0  0  # atno 5950 bound_to 2569
   11.0985    2.5194   -2.7311 LP  0  0  0  0  0  0  0  0  0  0  0  0  # atno 5951 bound_to 2569
    7.2778    6.5190    1.5766 LP  0  0  0  0  0  0  0  0  0  0  0  0  # atno 5982 bound_to 2887
    8.3468    6.5354    0.3423 LP  0  0  0  0  0  0  0  0  0  0  0  0  # atno 5983 bound_to 2887
   17.8848    1.9730   -0.2877 LP  0  0  0  0  0  0  0  0  0  0  0  0  # atno 6000 bound_to 3171
   18.8964    2.5740   -1.4201 LP  0  0  0  0  0  0  0  0  0  0  0  0  # atno 6001 bound_to 3171
   13.4123   10.2322    8.7017 LP  0  0  0  0  0  0  0  0  0  0  0  0  # atno 6004 bound_to 5270
   12.7794    9.8655   10.1617 LP  0  0  0  0  0  0  0  0  0  0  0  0  # atno 6005 bound_to 5270
    9.8453   19.0691    7.4159 LP  0  0  0  0  0  0  0  0  0  0  0  0  # atno 6055 bound_to 637 
   11.3922   19.2359    7.9116 LP  0  0  0  0  0  0  0  0  0  0  0  0  # atno 6056 bound_to 637 
    2.0968   12.0757   10.5244 LP  0  0  0  0  0  0  0  0  0  0  0  0  # atno 6063 bound_to 1878
    1.5958   10.5221   10.4803 LP  0  0  0  0  0  0  0  0  0  0  0  0  # atno 6064 bound_to 1878
   -7.1368   15.7018   -0.1165 LP  0  0  0  0  0  0  0  0  0  0  0  0  # atno 6067 bound_to 957 
   -6.4638   15.9000   -1.5911 LP  0  0  0  0  0  0  0  0  0  0  0  0  # atno 6068 bound_to 957 

>  <STRIFE_LigEff_Score>  (46) 
3.0250833333333333

$$$$
unknown|pharmsElabsTestPreDocking|sdf|47|dock7
     RDKit          3D

 18 19  0  0  0  0  0  0  0  0999 V2000
   14.5514    9.3300    1.2066 C   0  0  0  0  0  0  0  0  0  0  0  0
   13.7324    8.1107    1.5955 C   0  0  0  0  0  0  0  0  0  0  0  0
   14.0194    6.9081    0.8213 N   0  0  0  0  0  0  0  0  0  0  0  0
   12.2498    8.3583    2.0103 C   0  0  0  0  0  0  0  0  0  0  0  0
   11.5664    7.2995    2.8899 C   0  0  0  0  0  0  0  0  0  0  0  0
   10.0364    7.4829    2.8909 C   0  0  0  0  0  0  0  0  0  0  0  0
    9.5747    8.9139    2.6040 C   0  0  0  0  0  0  0  0  0  0  0  0
    8.1004    9.1320    2.7457 C   0  0  0  0  0  0  0  0  0  0  0  0
    7.5624    9.5687    1.7050 O   0  0  0  0  0  0  0  0  0  0  0  0
    7.3078    8.8824    3.9299 N   0  0  0  0  0  0  0  0  0  0  0  0
    5.8971    9.2275    4.0670 C   0  0  0  0  0  0  0  0  0  0  0  0
    5.4285    9.7380    5.2930 C   0  0  0  0  0  0  0  0  0  0  0  0
    4.0813   10.0919    5.4557 C   0  0  0  0  0  0  0  0  0  0  0  0
    3.1783    9.9339    4.4036 C   0  0  0  0  0  0  0  0  0  0  0  0
    3.6176    9.4342    3.1847 C   0  0  0  0  0  0  0  0  0  0  0  0
    4.9560    9.0981    3.0084 C   0  0  0  0  0  0  0  0  0  0  0  0
   10.5040   10.0924    2.8252 C   0  0  0  0  0  0  0  0  0  0  0  0
   11.9951    9.7638    2.5964 C   0  0  0  0  0  0  0  0  0  0  0  0
  1  2  1  0
  2  3  1  0
  2  4  1  0
  4  5  1  0
  5  6  1  0
  6  7  1  0
  7  8  1  0
  8  9  2  0
  8 10  1  0
 10 11  1  0
 11 12  2  0
 12 13  1  0
 13 14  2  0
 14 15  1  0
 15 16  2  0
  7 17  1  0
 17 18  1  0
 18  4  1  0
 16 11  1  0
M  CHG  1   3   1
M  END
>  <EmbedRMS>  (47) 
0.24964892458419108

>  <Gold.Version>  (47) 
2020.3.0

>  <Gold.Id.Protein>  (47) 
unknown|1q8t_protein|pdb

>  <Gold.PLP.Fitness>  (47) 
54.9521

>  <Gold.PLP.PLP>  (47) 
-47.1041

>  <Gold.PLP.part.hbond>  (47) 
-2.0000

>  <Gold.PLP.part.metal>  (47) 
0.0000

>  <Gold.PLP.part.buried>  (47) 
-2.0039

>  <Gold.PLP.part.nonpolar>  (47) 
-44.1322

>  <Gold.PLP.part.repulsive>  (47) 
0.0846

>  <Gold.PLP.ligand.clash>  (47) 
0.0000

>  <Gold.PLP.ligand.torsion>  (47) 
1.0070

>  <Gold.PLP.Chemscore.Hbond>  (47) 
2.9760

>  <Gold.PLP.Chemscore.CHOScore>  (47) 
0.0000

>  <Gold.PLP.Chemscore.Metal>  (47) 
0.0000

>  <Gold.Chemscore.Hbonds>  (47) 
donor molecule, donor type, donor heavy atom, donor atom, acceptor molecule, acceptor atom, score
      L1  H     3    23       P1  2902  2.00
      L1  H     3    24       P1  2691  0.98

>  <Gold.PLP.Chemscore.Internal.Correction>  (47) 
0.9341

>  <Gold.PLP.Constraint>  (47) 
-0.0000

>  <Gold.Protein.RotatedTorsions>  (47) 
[  681  677  676  673 ] final -155.49 input -179.99 | X-H torsion
[  702  698  697  694 ] final -123.14 input  179.99 | X-H torsion
[ 2577 2569 2568 2566 ] final  -98.46 input   -0.13 | X-H torsion
[ 2891 2887 2886 2883 ] final   14.30 input  179.98 | X-H torsion
[ 3175 3171 3170 3167 ] final -102.37 input -179.99 | X-H torsion
[ 5278 5270 5269 5267 ] final  -50.68 input    0.55 | X-H torsion
[  641  637  636  633 ] final -176.83 input  179.99 | X-H torsion
[ 1886 1878 1877 1875 ] final  -93.10 input    1.60 | X-H torsion
[  965  957  956  954 ] final   60.65 input    0.45 | X-H torsion

>  <Gold.Protein.ActiveResidues>  (47) 
 LYS47   THR48   LEU49   GLY50   THR51   GLY52   SER53   PHE54   GLY55   ARG56  
 VAL57   MET58   LEU59   TYR69   ALA70   MET71   LYS72   ILE73   LEU74   GLU91  
 LEU95   VAL104  LYS105  MET118  VAL119  MET120  GLU121  TYR122  VAL123  PRO124 
 GLY125  GLY126  GLU127  MET128  PHE129  TYR164  ASP166  LEU167  LYS168  PRO169 
 GLU170  ASN171  LEU172  LEU173  ILE174  GLN181  VAL182  THR183  ASP184  PHE185 
 GLY186  PHE187  GLY200  THR201  ASN326  PHE327  TYR330  ARG18   ARG19   ASN20  
 ALA21   ILE22   HIS23  

>  <Gold.Protein.RotatedAtoms>  (47) 
   11.3577   19.3523    8.1723 H   0  0  0  0  0  0  0  0  0  0  0  0  # atno 641  bound_to 637 
   16.6970   13.9580    7.2522 H   0  0  0  0  0  0  0  0  0  0  0  0  # atno 681  bound_to 677 
   21.0418   11.5539   -0.7800 H   0  0  0  0  0  0  0  0  0  0  0  0  # atno 702  bound_to 698 
   -7.0769   15.6463   -0.2098 H   0  0  0  0  0  0  0  0  0  0  0  0  # atno 965  bound_to 957 
    1.2300   10.5568   10.6286 H   0  0  0  0  0  0  0  0  0  0  0  0  # atno 1886 bound_to 1878
   11.0211    2.9085   -3.0273 H   0  0  0  0  0  0  0  0  0  0  0  0  # atno 2577 bound_to 2569
    8.1941    5.6048    0.2709 H   0  0  0  0  0  0  0  0  0  0  0  0  # atno 2891 bound_to 2887
   19.0590    2.8810    0.1710 H   0  0  0  0  0  0  0  0  0  0  0  0  # atno 3175 bound_to 3171
   13.1591    9.8266   10.4051 H   0  0  0  0  0  0  0  0  0  0  0  0  # atno 5278 bound_to 5270
   17.0075   12.9353    6.0716 LP  0  0  0  0  0  0  0  0  0  0  0  0  # atno 5914 bound_to 677 
   15.5926   12.8711    6.8844 LP  0  0  0  0  0  0  0  0  0  0  0  0  # atno 5915 bound_to 677 
   20.1253   11.7244   -2.0716 LP  0  0  0  0  0  0  0  0  0  0  0  0  # atno 5920 bound_to 698 
   19.4833   11.8093   -0.5725 LP  0  0  0  0  0  0  0  0  0  0  0  0  # atno 5921 bound_to 698 
   10.0038    1.8776   -2.3657 LP  0  0  0  0  0  0  0  0  0  0  0  0  # atno 5950 bound_to 2569
    9.4624    3.1242   -3.2710 LP  0  0  0  0  0  0  0  0  0  0  0  0  # atno 5951 bound_to 2569
    7.1670    5.6134    1.4880 LP  0  0  0  0  0  0  0  0  0  0  0  0  # atno 5982 bound_to 2887
    7.8840    6.9927    0.9879 LP  0  0  0  0  0  0  0  0  0  0  0  0  # atno 5983 bound_to 2887
   17.8768    1.9573   -0.3626 LP  0  0  0  0  0  0  0  0  0  0  0  0  # atno 6000 bound_to 3171
   18.9536    2.6195   -1.3962 LP  0  0  0  0  0  0  0  0  0  0  0  0  # atno 6001 bound_to 3171
   14.4687   10.0403    9.5242 LP  0  0  0  0  0  0  0  0  0  0  0  0  # atno 6004 bound_to 5270
   12.9825   10.1877    8.8639 LP  0  0  0  0  0  0  0  0  0  0  0  0  # atno 6005 bound_to 5270
    9.9134   19.7331    8.7237 LP  0  0  0  0  0  0  0  0  0  0  0  0  # atno 6055 bound_to 637 
   10.0894   18.9870    7.2818 LP  0  0  0  0  0  0  0  0  0  0  0  0  # atno 6056 bound_to 637 
    0.8195   12.0277   11.0794 LP  0  0  0  0  0  0  0  0  0  0  0  0  # atno 6063 bound_to 1878
    2.2711   11.7377   10.3900 LP  0  0  0  0  0  0  0  0  0  0  0  0  # atno 6064 bound_to 1878
   -6.4468   16.0099   -1.6261 LP  0  0  0  0  0  0  0  0  0  0  0  0  # atno 6067 bound_to 957 
   -6.9079   17.1835   -0.5885 LP  0  0  0  0  0  0  0  0  0  0  0  0  # atno 6068 bound_to 957 

>  <STRIFE_LigEff_Score>  (47) 
3.0528944444444446

$$$$
unknown|pharmsElabsTestPreDocking|sdf|48|dock10
     RDKit          3D

 16 16  0  0  0  0  0  0  0  0999 V2000
   13.8046    7.0906    3.7309 C   0  0  0  0  0  0  0  0  0  0  0  0
   13.0060    7.7949    2.6237 C   0  0  0  0  0  0  0  0  0  0  0  0
   13.1972    7.1012    1.3449 N   0  0  0  0  0  0  0  0  0  0  0  0
   11.4920    8.0730    2.9298 C   0  0  0  0  0  0  0  0  0  0  0  0
   10.4813    7.2058    2.1558 C   0  0  0  0  0  0  0  0  0  0  0  0
    9.1279    7.8514    1.9261 C   0  0  0  0  0  0  0  0  0  0  0  0
    8.6440    8.6408    3.1367 C   0  0  0  0  0  0  0  0  0  0  0  0
    7.2488    9.1504    2.8757 C   0  0  0  0  0  0  0  0  0  0  0  0
    6.9955    9.7713    1.8051 O   0  0  0  0  0  0  0  0  0  0  0  0
    6.2276    8.9464    3.8615 N   0  0  0  0  0  0  0  0  0  0  0  0
    4.8265    9.3742    3.7182 C   0  0  0  0  0  0  0  0  0  0  0  0
    4.0636    9.1600    5.0378 C   0  0  0  0  0  0  0  0  0  0  0  0
    4.8019   10.8740    3.3757 C   0  0  0  0  0  0  0  0  0  0  0  0
    4.1469    8.5984    2.5762 C   0  0  0  0  0  0  0  0  0  0  0  0
    9.5806    9.8182    3.4297 C   0  0  0  0  0  0  0  0  0  0  0  0
   11.0838    9.4796    3.4154 C   0  0  0  0  0  0  0  0  0  0  0  0
  1  2  1  0
  2  3  1  0
  2  4  1  0
  4  5  1  0
  5  6  1  0
  6  7  1  0
  7  8  1  0
  8  9  2  0
  8 10  1  0
 10 11  1  0
 11 12  1  0
 11 13  1  0
 11 14  1  0
  7 15  1  0
 15 16  1  0
 16  4  1  0
M  CHG  1   3   1
M  END
>  <EmbedRMS>  (48) 
0.17423024192686873

>  <Gold.Version>  (48) 
2020.3.0

>  <Gold.Id.Protein>  (48) 
unknown|1q8t_protein|pdb

>  <Gold.PLP.Fitness>  (48) 
40.5046

>  <Gold.PLP.PLP>  (48) 
-34.3816

>  <Gold.PLP.part.hbond>  (48) 
-1.8771

>  <Gold.PLP.part.metal>  (48) 
0.0000

>  <Gold.PLP.part.buried>  (48) 
-1.7153

>  <Gold.PLP.part.nonpolar>  (48) 
-31.1773

>  <Gold.PLP.part.repulsive>  (48) 
0.0361

>  <Gold.PLP.ligand.clash>  (48) 
0.0000

>  <Gold.PLP.ligand.torsion>  (48) 
1.5044

>  <Gold.PLP.Chemscore.Hbond>  (48) 
2.8560

>  <Gold.PLP.Chemscore.CHOScore>  (48) 
0.0000

>  <Gold.PLP.Chemscore.Metal>  (48) 
0.0000

>  <Gold.Chemscore.Hbonds>  (48) 
donor molecule, donor type, donor heavy atom, donor atom, acceptor molecule, acceptor atom, score
      L1  H     3    21       P1  2902  1.86
      L1  H     3    22       P1  2691  1.00

>  <Gold.PLP.Chemscore.Internal.Correction>  (48) 
0.5637

>  <Gold.PLP.Constraint>  (48) 
-0.0000

>  <Gold.Protein.RotatedTorsions>  (48) 
[  681  677  676  673 ] final -171.31 input -179.99 | X-H torsion
[  702  698  697  694 ] final -125.38 input  179.99 | X-H torsion
[ 2577 2569 2568 2566 ] final   30.25 input   -0.13 | X-H torsion
[ 2891 2887 2886 2883 ] final -138.94 input  179.98 | X-H torsion
[ 3175 3171 3170 3167 ] final  111.37 input -179.99 | X-H torsion
[ 5278 5270 5269 5267 ] final   70.94 input    0.55 | X-H torsion
[  641  637  636  633 ] final  -80.19 input  179.99 | X-H torsion
[ 1886 1878 1877 1875 ] final  -54.64 input    1.60 | X-H torsion
[  965  957  956  954 ] final   17.81 input    0.45 | X-H torsion

>  <Gold.Protein.ActiveResidues>  (48) 
 LYS47   THR48   LEU49   GLY50   THR51   GLY52   SER53   PHE54   GLY55   ARG56  
 VAL57   MET58   LEU59   TYR69   ALA70   MET71   LYS72   ILE73   LEU74   GLU91  
 LEU95   VAL104  LYS105  MET118  VAL119  MET120  GLU121  TYR122  VAL123  PRO124 
 GLY125  GLY126  GLU127  MET128  PHE129  TYR164  ASP166  LEU167  LYS168  PRO169 
 GLU170  ASN171  LEU172  LEU173  ILE174  GLN181  VAL182  THR183  ASP184  PHE185 
 GLY186  PHE187  GLY200  THR201  ASN326  PHE327  TYR330  ARG18   ARG19   ASN20  
 ALA21   ILE22   HIS23  

>  <Gold.Protein.RotatedAtoms>  (48) 
   10.4618   18.9409    7.2686 H   0  0  0  0  0  0  0  0  0  0  0  0  # atno 641  bound_to 637 
   16.8985   13.9417    7.1112 H   0  0  0  0  0  0  0  0  0  0  0  0  # atno 681  bound_to 677 
   21.0550   11.5522   -0.8125 H   0  0  0  0  0  0  0  0  0  0  0  0  # atno 702  bound_to 698 
   -6.8326   15.3748   -0.7524 H   0  0  0  0  0  0  0  0  0  0  0  0  # atno 965  bound_to 957 
    1.7690   10.6468   10.4063 H   0  0  0  0  0  0  0  0  0  0  0  0  # atno 1886 bound_to 1878
    9.4190    2.9978   -3.2067 H   0  0  0  0  0  0  0  0  0  0  0  0  # atno 2577 bound_to 2569
    7.1725    6.1332    1.5807 H   0  0  0  0  0  0  0  0  0  0  0  0  # atno 2891 bound_to 2887
   17.9707    1.9513   -0.7724 H   0  0  0  0  0  0  0  0  0  0  0  0  # atno 3175 bound_to 3171
   13.0303   10.1987    8.8910 H   0  0  0  0  0  0  0  0  0  0  0  0  # atno 5278 bound_to 5270
   16.8090   12.7728    6.0334 LP  0  0  0  0  0  0  0  0  0  0  0  0  # atno 5914 bound_to 677 
   15.5791   13.0508    7.0710 LP  0  0  0  0  0  0  0  0  0  0  0  0  # atno 5915 bound_to 677 
   20.0892   11.7307   -2.0666 LP  0  0  0  0  0  0  0  0  0  0  0  0  # atno 5920 bound_to 698 
   19.5054   11.8048   -0.5433 LP  0  0  0  0  0  0  0  0  0  0  0  0  # atno 5921 bound_to 698 
   11.0071    3.0382   -3.0980 LP  0  0  0  0  0  0  0  0  0  0  0  0  # atno 5950 bound_to 2569
   10.1460    1.8697   -2.3498 LP  0  0  0  0  0  0  0  0  0  0  0  0  # atno 5951 bound_to 2569
    8.2001    6.8292    0.5827 LP  0  0  0  0  0  0  0  0  0  0  0  0  # atno 5982 bound_to 2887
    7.9261    5.2208    0.5148 LP  0  0  0  0  0  0  0  0  0  0  0  0  # atno 5983 bound_to 2887
   19.2254    2.8517   -1.1607 LP  0  0  0  0  0  0  0  0  0  0  0  0  # atno 6000 bound_to 3171
   18.7503    2.7035    0.3946 LP  0  0  0  0  0  0  0  0  0  0  0  0  # atno 6001 bound_to 3171
   13.1158    9.8025   10.4313 LP  0  0  0  0  0  0  0  0  0  0  0  0  # atno 6004 bound_to 5270
   14.4709   10.0340    9.5500 LP  0  0  0  0  0  0  0  0  0  0  0  0  # atno 6005 bound_to 5270
   11.2887   19.5377    8.4914 LP  0  0  0  0  0  0  0  0  0  0  0  0  # atno 6055 bound_to 637 
    9.6578   19.6157    8.4658 LP  0  0  0  0  0  0  0  0  0  0  0  0  # atno 6056 bound_to 637 
    0.5786   11.4553   11.0879 LP  0  0  0  0  0  0  0  0  0  0  0  0  # atno 6063 bound_to 1878
    1.9445   12.2155   10.6154 LP  0  0  0  0  0  0  0  0  0  0  0  0  # atno 6064 bound_to 1878
   -6.4686   16.6955   -1.5638 LP  0  0  0  0  0  0  0  0  0  0  0  0  # atno 6067 bound_to 957 
   -7.1434   16.7838   -0.0793 LP  0  0  0  0  0  0  0  0  0  0  0  0  # atno 6068 bound_to 957 

>  <STRIFE_LigEff_Score>  (48) 
2.5315375

$$$$
unknown|pharmsElabsTestPreDocking|sdf|49|dock5
     RDKit          3D

 19 20  0  0  0  0  0  0  0  0999 V2000
   14.2724    6.7788    2.7614 C   0  0  0  0  0  0  0  0  0  0  0  0
   13.7244    8.1832    2.4666 C   0  0  0  0  0  0  0  0  0  0  0  0
   14.0975    8.5952    1.1087 N   0  0  0  0  0  0  0  0  0  0  0  0
   12.1990    8.4085    2.7595 C   0  0  0  0  0  0  0  0  0  0  0  0
   11.2215    7.6163    1.8707 C   0  0  0  0  0  0  0  0  0  0  0  0
    9.8645    8.2658    1.6745 C   0  0  0  0  0  0  0  0  0  0  0  0
    9.3389    8.9162    2.9482 C   0  0  0  0  0  0  0  0  0  0  0  0
    7.9428    9.4320    2.7070 C   0  0  0  0  0  0  0  0  0  0  0  0
    7.5976   10.5682    3.1407 O   0  0  0  0  0  0  0  0  0  0  0  0
    7.0034    8.6185    2.0050 N   0  0  0  0  0  0  0  0  0  0  0  0
    5.6463    9.0802    1.7391 C   0  0  0  0  0  0  0  0  0  0  0  0
    4.9333    9.3220    3.0297 C   0  0  0  0  0  0  0  0  0  0  0  0
    3.5397    9.4542    3.0668 C   0  0  0  0  0  0  0  0  0  0  0  0
    2.9179    9.6230    4.2623 N   0  0  0  0  0  0  0  0  0  0  0  0
    3.6222    9.6526    5.4240 C   0  0  0  0  0  0  0  0  0  0  0  0
    5.0093    9.4986    5.3907 C   0  0  0  0  0  0  0  0  0  0  0  0
    5.6333    9.3303    4.1961 N   0  0  0  0  0  0  0  0  0  0  0  0
   10.2497   10.0673    3.3890 C   0  0  0  0  0  0  0  0  0  0  0  0
   11.7575    9.7499    3.3811 C   0  0  0  0  0  0  0  0  0  0  0  0
  1  2  1  0
  2  3  1  0
  2  4  1  0
  4  5  1  0
  5  6  1  0
  6  7  1  0
  7  8  1  0
  8  9  2  0
  8 10  1  0
 10 11  1  0
 11 12  1  0
 12 13  2  0
 13 14  1  0
 14 15  2  0
 15 16  1  0
 16 17  2  0
  7 18  1  0
 18 19  1  0
 19  4  1  0
 17 12  1  0
M  CHG  1   3   1
M  END
>  <EmbedRMS>  (49) 
0.15954075783698252

>  <Gold.Version>  (49) 
2020.3.0

>  <Gold.Id.Protein>  (49) 
unknown|1q8t_protein|pdb

>  <Gold.PLP.Fitness>  (49) 
55.3278

>  <Gold.PLP.PLP>  (49) 
-41.4340

>  <Gold.PLP.part.hbond>  (49) 
-3.0000

>  <Gold.PLP.part.metal>  (49) 
0.0000

>  <Gold.PLP.part.buried>  (49) 
-1.8932

>  <Gold.PLP.part.nonpolar>  (49) 
-37.9585

>  <Gold.PLP.part.repulsive>  (49) 
0.1529

>  <Gold.PLP.ligand.clash>  (49) 
0.0058

>  <Gold.PLP.ligand.torsion>  (49) 
1.0491

>  <Gold.PLP.Chemscore.Hbond>  (49) 
3.9000

>  <Gold.PLP.Chemscore.CHOScore>  (49) 
1.2281

>  <Gold.PLP.Chemscore.Metal>  (49) 
0.0000

>  <Gold.Chemscore.Hbonds>  (49) 
donor molecule, donor type, donor heavy atom, donor atom, acceptor molecule, acceptor atom, score
      L1  H     3    26       P1  2902  2.00
      L1  H    10    33       P1  2887  0.90
      P1  H  1888  1903       L1    14  1.00
      L1  C    13    36       P1  1855  0.61
      L1  C    15    37       P1  1891  0.62

>  <Gold.PLP.Chemscore.Internal.Correction>  (49) 
0.6133

>  <Gold.PLP.Constraint>  (49) 
-0.0000

>  <Gold.Protein.RotatedTorsions>  (49) 
[  681  677  676  673 ] final   40.20 input -179.99 | X-H torsion
[  702  698  697  694 ] final  -87.75 input  179.99 | X-H torsion
[ 2577 2569 2568 2566 ] final  158.13 input   -0.13 | X-H torsion
[ 2891 2887 2886 2883 ] final  -57.50 input  179.98 | X-H torsion
[ 3175 3171 3170 3167 ] final   51.78 input -179.99 | X-H torsion
[ 5278 5270 5269 5267 ] final   15.08 input    0.55 | X-H torsion
[  641  637  636  633 ] final  -82.59 input  179.99 | X-H torsion
[ 1886 1878 1877 1875 ] final -168.37 input    1.60 | X-H torsion
[  965  957  956  954 ] final -158.02 input    0.45 | X-H torsion

>  <Gold.Protein.ActiveResidues>  (49) 
 LYS47   THR48   LEU49   GLY50   THR51   GLY52   SER53   PHE54   GLY55   ARG56  
 VAL57   MET58   LEU59   TYR69   ALA70   MET71   LYS72   ILE73   LEU74   GLU91  
 LEU95   VAL104  LYS105  MET118  VAL119  MET120  GLU121  TYR122  VAL123  PRO124 
 GLY125  GLY126  GLU127  MET128  PHE129  TYR164  ASP166  LEU167  LYS168  PRO169 
 GLU170  ASN171  LEU172  LEU173  ILE174  GLN181  VAL182  THR183  ASP184  PHE185 
 GLY186  PHE187  GLY200  THR201  ASN326  PHE327  TYR330  ARG18   ARG19   ASN20  
 ALA21   ILE22   HIS23  

>  <Gold.Protein.RotatedAtoms>  (49) 
   10.4992   18.9395    7.2699 H   0  0  0  0  0  0  0  0  0  0  0  0  # atno 641  bound_to 637 
   16.3879   12.6249    6.1220 H   0  0  0  0  0  0  0  0  0  0  0  0  # atno 681  bound_to 677 
   20.6883   11.6086   -0.3691 H   0  0  0  0  0  0  0  0  0  0  0  0  # atno 702  bound_to 698 
   -6.7514   17.1568   -0.8933 H   0  0  0  0  0  0  0  0  0  0  0  0  # atno 965  bound_to 957 
    0.6108   11.3597   11.0385 H   0  0  0  0  0  0  0  0  0  0  0  0  # atno 1886 bound_to 1878
   10.2713    1.9070   -2.3868 H   0  0  0  0  0  0  0  0  0  0  0  0  # atno 2577 bound_to 2569
    7.5136    5.2017    0.9625 H   0  0  0  0  0  0  0  0  0  0  0  0  # atno 2891 bound_to 2887
   18.5279    2.2843   -1.3816 H   0  0  0  0  0  0  0  0  0  0  0  0  # atno 3175 bound_to 3171
   12.6342   10.0176    9.6086 H   0  0  0  0  0  0  0  0  0  0  0  0  # atno 5278 bound_to 5270
   15.7165   13.4051    7.3372 LP  0  0  0  0  0  0  0  0  0  0  0  0  # atno 5914 bound_to 677 
   17.2090   13.8043    6.8083 LP  0  0  0  0  0  0  0  0  0  0  0  0  # atno 5915 bound_to 677 
   20.6788   11.6242   -1.9619 LP  0  0  0  0  0  0  0  0  0  0  0  0  # atno 5920 bound_to 698 
   19.3017   11.8519   -1.1144 LP  0  0  0  0  0  0  0  0  0  0  0  0  # atno 5921 bound_to 698 
    9.3173    2.9304   -3.1470 LP  0  0  0  0  0  0  0  0  0  0  0  0  # atno 5950 bound_to 2569
   10.9384    3.1260   -3.1641 LP  0  0  0  0  0  0  0  0  0  0  0  0  # atno 5951 bound_to 2569
    7.3854    6.6973    1.4947 LP  0  0  0  0  0  0  0  0  0  0  0  0  # atno 5982 bound_to 2887
    8.3818    6.3330    0.2533 LP  0  0  0  0  0  0  0  0  0  0  0  0  # atno 5983 bound_to 2887
   19.3442    3.0583   -0.2546 LP  0  0  0  0  0  0  0  0  0  0  0  0  # atno 6000 bound_to 3171
   18.0451    2.1464    0.1296 LP  0  0  0  0  0  0  0  0  0  0  0  0  # atno 6001 bound_to 3171
   13.9985    9.8180   10.4058 LP  0  0  0  0  0  0  0  0  0  0  0  0  # atno 6004 bound_to 5270
   14.0049   10.2091    8.8204 LP  0  0  0  0  0  0  0  0  0  0  0  0  # atno 6005 bound_to 5270
   11.2685   19.5540    8.5211 LP  0  0  0  0  0  0  0  0  0  0  0  0  # atno 6055 bound_to 637 
    9.6385   19.6009    8.4347 LP  0  0  0  0  0  0  0  0  0  0  0  0  # atno 6056 bound_to 637 
    1.8648   12.2645   10.6589 LP  0  0  0  0  0  0  0  0  0  0  0  0  # atno 6063 bound_to 1878
    1.8776   10.6558   10.3789 LP  0  0  0  0  0  0  0  0  0  0  0  0  # atno 6064 bound_to 1878
   -7.1834   15.9047   -0.0098 LP  0  0  0  0  0  0  0  0  0  0  0  0  # atno 6067 bound_to 957 
   -6.5141   15.6978   -1.4849 LP  0  0  0  0  0  0  0  0  0  0  0  0  # atno 6068 bound_to 957 

>  <STRIFE_LigEff_Score>  (49) 
2.9119894736842107

$$$$
unknown|pharmsElabsTestPreDocking|sdf|50|dock3
     RDKit          3D

 19 20  0  0  0  0  0  0  0  0999 V2000
   14.6581    7.3864    2.7448 C   0  0  0  0  0  0  0  0  0  0  0  0
   13.4199    7.5748    1.8684 C   0  0  0  0  0  0  0  0  0  0  0  0
   13.5111    8.8174    1.0897 N   0  0  0  0  0  0  0  0  0  0  0  0
   12.0341    7.3941    2.5192 C   0  0  0  0  0  0  0  0  0  0  0  0
   10.7659    7.3490    1.6253 C   0  0  0  0  0  0  0  0  0  0  0  0
    9.6990    8.3867    1.9446 C   0  0  0  0  0  0  0  0  0  0  0  0
    9.4512    8.4923    3.4480 C   0  0  0  0  0  0  0  0  0  0  0  0
    8.2936    9.4129    3.7267 C   0  0  0  0  0  0  0  0  0  0  0  0
    7.7935   10.1045    2.7955 O   0  0  0  0  0  0  0  0  0  0  0  0
    7.7740    9.5112    5.0582 N   0  0  0  0  0  0  0  0  0  0  0  0
    6.6763   10.4047    5.4064 C   0  0  0  0  0  0  0  0  0  0  0  0
    5.4050    9.9055    4.8057 C   0  0  0  0  0  0  0  0  0  0  0  0
    4.1991    9.7058    5.4487 C   0  0  0  0  0  0  0  0  0  0  0  0
    3.3137    9.2020    4.5676 N   0  0  0  0  0  0  0  0  0  0  0  0
    3.9368    9.0677    3.4062 N   0  0  0  0  0  0  0  0  0  0  0  0
    3.3016    8.5710    2.1952 C   0  0  0  0  0  0  0  0  0  0  0  0
    5.2106    9.4859    3.5086 C   0  0  0  0  0  0  0  0  0  0  0  0
   10.7151    9.0107    4.1256 C   0  0  0  0  0  0  0  0  0  0  0  0
   11.9051    8.0756    3.9160 C   0  0  0  0  0  0  0  0  0  0  0  0
  1  2  1  0
  2  3  1  0
  2  4  1  0
  4  5  1  0
  5  6  1  0
  6  7  1  0
  7  8  1  0
  8  9  2  0
  8 10  1  0
 10 11  1  0
 11 12  1  0
 12 13  1  0
 13 14  2  0
 14 15  1  0
 15 16  1  0
 15 17  1  0
  7 18  1  0
 18 19  1  0
 19  4  1  0
 17 12  2  0
M  CHG  1   3   1
M  END
>  <EmbedRMS>  (50) 
0.19659211194601114

>  <Gold.Version>  (50) 
2020.3.0

>  <Gold.Id.Protein>  (50) 
unknown|1q8t_protein|pdb

>  <Gold.PLP.Fitness>  (50) 
59.8284

>  <Gold.PLP.PLP>  (50) 
-51.5604

>  <Gold.PLP.part.hbond>  (50) 
-2.0000

>  <Gold.PLP.part.metal>  (50) 
0.0000

>  <Gold.PLP.part.buried>  (50) 
-4.8464

>  <Gold.PLP.part.nonpolar>  (50) 
-44.6432

>  <Gold.PLP.part.repulsive>  (50) 
0.1302

>  <Gold.PLP.ligand.clash>  (50) 
0.0000

>  <Gold.PLP.ligand.torsion>  (50) 
0.5508

>  <Gold.PLP.Chemscore.Hbond>  (50) 
2.9840

>  <Gold.PLP.Chemscore.CHOScore>  (50) 
0.0000

>  <Gold.PLP.Chemscore.Metal>  (50) 
0.0000

>  <Gold.Chemscore.Hbonds>  (50) 
donor molecule, donor type, donor heavy atom, donor atom, acceptor molecule, acceptor atom, score
      L1  H     3    25       P1  2902  1.98
      P1  H  1888  1903       L1    14  1.00

>  <Gold.PLP.Chemscore.Internal.Correction>  (50) 
0.4177

>  <Gold.PLP.Constraint>  (50) 
-0.0000

>  <Gold.Protein.RotatedTorsions>  (50) 
[  681  677  676  673 ] final  153.24 input -179.99 | X-H torsion
[  702  698  697  694 ] final  155.93 input  179.99 | X-H torsion
[ 2577 2569 2568 2566 ] final   57.40 input   -0.13 | X-H torsion
[ 2891 2887 2886 2883 ] final  134.21 input  179.98 | X-H torsion
[ 3175 3171 3170 3167 ] final -159.65 input -179.99 | X-H torsion
[ 5278 5270 5269 5267 ] final -146.56 input    0.55 | X-H torsion
[  641  637  636  633 ] final   12.45 input  179.99 | X-H torsion
[ 1886 1878 1877 1875 ] final   -2.54 input    1.60 | X-H torsion
[  965  957  956  954 ] final -172.07 input    0.45 | X-H torsion

>  <Gold.Protein.ActiveResidues>  (50) 
 LYS47   THR48   LEU49   GLY50   THR51   GLY52   SER53   PHE54   GLY55   ARG56  
 VAL57   MET58   LEU59   TYR69   ALA70   MET71   LYS72   ILE73   LEU74   GLU91  
 LEU95   VAL104  LYS105  MET118  VAL119  MET120  GLU121  TYR122  VAL123  PRO124 
 GLY125  GLY126  GLU127  MET128  PHE129  TYR164  ASP166  LEU167  LYS168  PRO169 
 GLU170  ASN171  LEU172  LEU173  ILE174  GLN181  VAL182  THR183  ASP184  PHE185 
 GLY186  PHE187  GLY200  THR201  ASN326  PHE327  TYR330  ARG18   ARG19   ASN20  
 ALA21   ILE22   HIS23  

>  <Gold.Protein.RotatedAtoms>  (50) 
    9.5758   19.4092    8.0889 H   0  0  0  0  0  0  0  0  0  0  0  0  # atno 641  bound_to 637 
   17.2034   13.7294    6.7119 H   0  0  0  0  0  0  0  0  0  0  0  0  # atno 681  bound_to 677 
   20.7081   11.6345   -1.8916 H   0  0  0  0  0  0  0  0  0  0  0  0  # atno 702  bound_to 698 
   -6.8422   17.1578   -0.6940 H   0  0  0  0  0  0  0  0  0  0  0  0  # atno 965  bound_to 957 
    2.2301   11.2767   10.3105 H   0  0  0  0  0  0  0  0  0  0  0  0  # atno 1886 bound_to 1878
    9.2872    2.6654   -2.9856 H   0  0  0  0  0  0  0  0  0  0  0  0  # atno 2577 bound_to 2569
    7.8665    6.9488    0.9723 H   0  0  0  0  0  0  0  0  0  0  0  0  # atno 2891 bound_to 2887
   18.3713    2.3928    0.3323 H   0  0  0  0  0  0  0  0  0  0  0  0  # atno 3175 bound_to 3171
   14.3794    9.9655    9.8935 H   0  0  0  0  0  0  0  0  0  0  0  0  # atno 5278 bound_to 5270
   16.2882   12.5572    6.1423 LP  0  0  0  0  0  0  0  0  0  0  0  0  # atno 5914 bound_to 677 
   15.7789   13.4897    7.3824 LP  0  0  0  0  0  0  0  0  0  0  0  0  # atno 5915 bound_to 677 
   19.3024   11.8530   -1.1749 LP  0  0  0  0  0  0  0  0  0  0  0  0  # atno 5920 bound_to 698 
   20.6571   11.5960   -0.2999 LP  0  0  0  0  0  0  0  0  0  0  0  0  # atno 5921 bound_to 698 
   10.7132    3.2996   -3.3011 LP  0  0  0  0  0  0  0  0  0  0  0  0  # atno 5950 bound_to 2569
   10.5786    1.9582   -2.3795 LP  0  0  0  0  0  0  0  0  0  0  0  0  # atno 5951 bound_to 2569
    8.2291    5.5770    0.2491 LP  0  0  0  0  0  0  0  0  0  0  0  0  # atno 5982 bound_to 2887
    7.1667    5.6147    1.4887 LP  0  0  0  0  0  0  0  0  0  0  0  0  # atno 5983 bound_to 2887
   18.1677    2.0615   -1.2119 LP  0  0  0  0  0  0  0  0  0  0  0  0  # atno 6000 bound_to 3171
   19.3864    3.0291   -0.7167 LP  0  0  0  0  0  0  0  0  0  0  0  0  # atno 6001 bound_to 3171
   13.3439   10.2288    8.7124 LP  0  0  0  0  0  0  0  0  0  0  0  0  # atno 6004 bound_to 5270
   12.8233    9.8531   10.2139 LP  0  0  0  0  0  0  0  0  0  0  0  0  # atno 6005 bound_to 5270
   10.8958   18.9613    7.3195 LP  0  0  0  0  0  0  0  0  0  0  0  0  # atno 6055 bound_to 637 
   10.9836   19.6989    8.7738 LP  0  0  0  0  0  0  0  0  0  0  0  0  # atno 6056 bound_to 637 
    0.8417   10.7089   10.8446 LP  0  0  0  0  0  0  0  0  0  0  0  0  # atno 6063 bound_to 1878
    1.1960   12.2988   10.9596 LP  0  0  0  0  0  0  0  0  0  0  0  0  # atno 6064 bound_to 1878
   -7.1376   15.7044   -0.1147 LP  0  0  0  0  0  0  0  0  0  0  0  0  # atno 6067 bound_to 957 
   -6.4643   15.8970   -1.5900 LP  0  0  0  0  0  0  0  0  0  0  0  0  # atno 6068 bound_to 957 

>  <STRIFE_LigEff_Score>  (50) 
3.148863157894737

$$$$
unknown|pharmsElabsTestPreDocking|sdf|51|dock10
     RDKit          3D

 19 20  0  0  0  0  0  0  0  0999 V2000
    6.3237   10.1015    5.8945 C   0  0  0  0  0  0  0  0  0  0  0  0
    5.4757    9.7719    4.6988 C   0  0  0  0  0  0  0  0  0  0  0  0
    4.0991   10.0669    4.7521 C   0  0  0  0  0  0  0  0  0  0  0  0
    3.2655    9.7856    3.6734 C   0  0  0  0  0  0  0  0  0  0  0  0
    3.7909    9.2200    2.5240 C   0  0  0  0  0  0  0  0  0  0  0  0
    5.1485    8.9394    2.4405 C   0  0  0  0  0  0  0  0  0  0  0  0
    6.0347    9.1884    3.5264 C   0  0  0  0  0  0  0  0  0  0  0  0
    7.4676    8.8911    3.4492 N   0  0  0  0  0  0  0  0  0  0  0  0
    8.2965    9.1193    2.2832 C   0  0  0  0  0  0  0  0  0  0  0  0
    7.7853    9.4719    1.1997 O   0  0  0  0  0  0  0  0  0  0  0  0
    9.7817    8.9448    2.1978 C   0  0  0  0  0  0  0  0  0  0  0  0
   10.1988    7.5454    1.7717 C   0  0  0  0  0  0  0  0  0  0  0  0
   11.6925    7.2779    1.8970 C   0  0  0  0  0  0  0  0  0  0  0  0
   12.5579    8.5449    1.7706 C   0  0  0  0  0  0  0  0  0  0  0  0
   14.0673    8.1351    1.8016 C   0  0  0  0  0  0  0  0  0  0  0  0
   14.4593    7.6274    3.2011 C   0  0  0  0  0  0  0  0  0  0  0  0
   14.3901    7.1043    0.8057 N   0  0  0  0  0  0  0  0  0  0  0  0
   12.1783    9.5335    2.9042 C   0  0  0  0  0  0  0  0  0  0  0  0
   10.6671    9.8084    3.0704 C   0  0  0  0  0  0  0  0  0  0  0  0
  1  2  1  0
  2  3  2  0
  3  4  1  0
  4  5  2  0
  5  6  1  0
  6  7  2  0
  7  8  1  0
  8  9  1  0
  9 10  2  0
  9 11  1  0
 11 12  1  0
 12 13  1  0
 13 14  1  0
 14 15  1  0
 15 16  1  0
 15 17  1  0
 14 18  1  0
 18 19  1  0
  7  2  1  0
 19 11  1  0
M  CHG  1  17   1
M  END
>  <EmbedRMS>  (51) 
0.17064538222927092

>  <Gold.Version>  (51) 
2020.3.0

>  <Gold.Id.Protein>  (51) 
unknown|1q8t_protein|pdb

>  <Gold.PLP.Fitness>  (51) 
57.2887

>  <Gold.PLP.PLP>  (51) 
-49.1331

>  <Gold.PLP.part.hbond>  (51) 
-2.0000

>  <Gold.PLP.part.metal>  (51) 
0.0000

>  <Gold.PLP.part.buried>  (51) 
-1.5305

>  <Gold.PLP.part.nonpolar>  (51) 
-45.2895

>  <Gold.PLP.part.repulsive>  (51) 
0.0755

>  <Gold.PLP.ligand.clash>  (51) 
0.0000

>  <Gold.PLP.ligand.torsion>  (51) 
0.7492

>  <Gold.PLP.Chemscore.Hbond>  (51) 
3.0000

>  <Gold.PLP.Chemscore.CHOScore>  (51) 
0.0000

>  <Gold.PLP.Chemscore.Metal>  (51) 
0.0000

>  <Gold.Chemscore.Hbonds>  (51) 
donor molecule, donor type, donor heavy atom, donor atom, acceptor molecule, acceptor atom, score
      L1  H    17    39       P1  2691  1.00
      L1  H    17    40       P1  2902  2.00

>  <Gold.PLP.Chemscore.Internal.Correction>  (51) 
0.6539

>  <Gold.PLP.Constraint>  (51) 
-0.0000

>  <Gold.Protein.RotatedTorsions>  (51) 
[  681  677  676  673 ] final -126.29 input -179.99 | X-H torsion
[  702  698  697  694 ] final  -59.70 input  179.99 | X-H torsion
[ 2577 2569 2568 2566 ] final   -2.91 input   -0.13 | X-H torsion
[ 2891 2887 2886 2883 ] final   99.04 input  179.98 | X-H torsion
[ 3175 3171 3170 3167 ] final   44.87 input -179.99 | X-H torsion
[ 5278 5270 5269 5267 ] final   86.38 input    0.55 | X-H torsion
[  641  637  636  633 ] final   92.47 input  179.99 | X-H torsion
[ 1886 1878 1877 1875 ] final  -49.12 input    1.60 | X-H torsion
[  965  957  956  954 ] final  -79.39 input    0.45 | X-H torsion

>  <Gold.Protein.ActiveResidues>  (51) 
 LYS47   THR48   LEU49   GLY50   THR51   GLY52   SER53   PHE54   GLY55   ARG56  
 VAL57   MET58   LEU59   TYR69   ALA70   MET71   LYS72   ILE73   LEU74   GLU91  
 LEU95   VAL104  LYS105  MET118  VAL119  MET120  GLU121  TYR122  VAL123  PRO124 
 GLY125  GLY126  GLU127  MET128  PHE129  TYR164  ASP166  LEU167  LYS168  PRO169 
 GLU170  ASN171  LEU172  LEU173  ILE174  GLN181  VAL182  THR183  ASP184  PHE185 
 GLY186  PHE187  GLY200  THR201  ASN326  PHE327  TYR330  ARG18   ARG19   ASN20  
 ALA21   ILE22   HIS23  

>  <Gold.Protein.RotatedAtoms>  (51) 
   10.3614   19.7567    8.8553 H   0  0  0  0  0  0  0  0  0  0  0  0  # atno 641  bound_to 637 
   16.2846   13.8538    7.4044 H   0  0  0  0  0  0  0  0  0  0  0  0  # atno 681  bound_to 677 
   20.2794   11.6786   -0.2403 H   0  0  0  0  0  0  0  0  0  0  0  0  # atno 702  bound_to 698 
   -6.4350   16.3327   -1.6059 H   0  0  0  0  0  0  0  0  0  0  0  0  # atno 965  bound_to 957 
    1.8394   10.6905   10.3827 H   0  0  0  0  0  0  0  0  0  0  0  0  # atno 1886 bound_to 1878
    9.8009    3.2892   -3.3811 H   0  0  0  0  0  0  0  0  0  0  0  0  # atno 2577 bound_to 2569
    8.1806    6.7754    0.5669 H   0  0  0  0  0  0  0  0  0  0  0  0  # atno 2891 bound_to 2887
   18.6144    2.3459   -1.4006 H   0  0  0  0  0  0  0  0  0  0  0  0  # atno 3175 bound_to 3171
   13.2463   10.2263    8.7884 H   0  0  0  0  0  0  0  0  0  0  0  0  # atno 5278 bound_to 5270
   17.2522   13.2903    6.2720 LP  0  0  0  0  0  0  0  0  0  0  0  0  # atno 5914 bound_to 677 
   15.7820   12.6257    6.5238 LP  0  0  0  0  0  0  0  0  0  0  0  0  # atno 5915 bound_to 677 
   21.0081   11.5598   -1.6518 LP  0  0  0  0  0  0  0  0  0  0  0  0  # atno 5920 bound_to 698 
   19.4024   11.8427   -1.5600 LP  0  0  0  0  0  0  0  0  0  0  0  0  # atno 5921 bound_to 698 
   11.1144    2.6088   -2.7920 LP  0  0  0  0  0  0  0  0  0  0  0  0  # atno 5950 bound_to 2569
    9.6366    1.9922   -2.4722 LP  0  0  0  0  0  0  0  0  0  0  0  0  # atno 5951 bound_to 2569
    7.9046    5.2072    0.5363 LP  0  0  0  0  0  0  0  0  0  0  0  0  # atno 5982 bound_to 2887
    7.1606    6.1670    1.6280 LP  0  0  0  0  0  0  0  0  0  0  0  0  # atno 5983 bound_to 2887
   19.3067    3.0444   -0.1482 LP  0  0  0  0  0  0  0  0  0  0  0  0  # atno 6000 bound_to 3171
   17.9916    2.0955    0.0433 LP  0  0  0  0  0  0  0  0  0  0  0  0  # atno 6001 bound_to 3171
   12.9054    9.8342   10.2940 LP  0  0  0  0  0  0  0  0  0  0  0  0  # atno 6004 bound_to 5270
   14.4541    9.9733    9.7953 LP  0  0  0  0  0  0  0  0  0  0  0  0  # atno 6005 bound_to 5270
    9.7165   19.1384    7.5375 LP  0  0  0  0  0  0  0  0  0  0  0  0  # atno 6055 bound_to 637 
   11.3357   19.1558    7.7487 LP  0  0  0  0  0  0  0  0  0  0  0  0  # atno 6056 bound_to 637 
    0.5742   11.3656   11.0746 LP  0  0  0  0  0  0  0  0  0  0  0  0  # atno 6063 bound_to 1878
    1.8747   12.2591   10.6536 LP  0  0  0  0  0  0  0  0  0  0  0  0  # atno 6064 bound_to 1878
   -7.0331   17.0496   -0.3161 LP  0  0  0  0  0  0  0  0  0  0  0  0  # atno 6067 bound_to 957 
   -6.9976   15.4208   -0.4282 LP  0  0  0  0  0  0  0  0  0  0  0  0  # atno 6068 bound_to 957 

>  <STRIFE_LigEff_Score>  (51) 
3.0151947368421053

$$$$
unknown|pharmsElabsTestPreDocking|sdf|52|dock1
     RDKit          3D

 18 19  0  0  0  0  0  0  0  0999 V2000
   14.5669    9.4000    1.1422 C   0  0  0  0  0  0  0  0  0  0  0  0
   13.7574    8.1786    1.5442 C   0  0  0  0  0  0  0  0  0  0  0  0
   14.0597    6.9680    0.7884 N   0  0  0  0  0  0  0  0  0  0  0  0
   12.2704    8.4179    1.9480 C   0  0  0  0  0  0  0  0  0  0  0  0
   11.5560    7.3096    2.7373 C   0  0  0  0  0  0  0  0  0  0  0  0
   10.0288    7.5149    2.7231 C   0  0  0  0  0  0  0  0  0  0  0  0
    9.5919    8.9692    2.5302 C   0  0  0  0  0  0  0  0  0  0  0  0
    8.1181    9.1983    2.6598 C   0  0  0  0  0  0  0  0  0  0  0  0
    7.6135    9.7524    1.6590 O   0  0  0  0  0  0  0  0  0  0  0  0
    7.2922    8.8398    3.7920 N   0  0  0  0  0  0  0  0  0  0  0  0
    5.8841    9.1945    3.9320 C   0  0  0  0  0  0  0  0  0  0  0  0
    5.0424    9.1325    2.8046 C   0  0  0  0  0  0  0  0  0  0  0  0
    3.6813    9.4544    2.9060 C   0  0  0  0  0  0  0  0  0  0  0  0
    3.1395    9.8522    4.1289 C   0  0  0  0  0  0  0  0  0  0  0  0
    3.9496    9.9191    5.2548 C   0  0  0  0  0  0  0  0  0  0  0  0
    5.2969    9.5836    5.1676 C   0  0  0  0  0  0  0  0  0  0  0  0
   10.5323   10.1154    2.8517 C   0  0  0  0  0  0  0  0  0  0  0  0
   12.0231    9.7820    2.6278 C   0  0  0  0  0  0  0  0  0  0  0  0
  1  2  1  0
  2  3  1  0
  2  4  1  0
  4  5  1  0
  5  6  1  0
  6  7  1  0
  7  8  1  0
  8  9  2  0
  8 10  1  0
 10 11  1  0
 11 12  2  0
 12 13  1  0
 13 14  2  0
 14 15  1  0
 15 16  2  0
  7 17  1  0
 17 18  1  0
 18  4  1  0
 16 11  1  0
M  CHG  1   3   1
M  END
>  <EmbedRMS>  (52) 
0.24964892458419108

>  <Gold.Version>  (52) 
2020.3.0

>  <Gold.Id.Protein>  (52) 
unknown|1q8t_protein|pdb

>  <Gold.PLP.Fitness>  (52) 
54.9663

>  <Gold.PLP.PLP>  (52) 
-47.0745

>  <Gold.PLP.part.hbond>  (52) 
-2.0000

>  <Gold.PLP.part.metal>  (52) 
0.0000

>  <Gold.PLP.part.buried>  (52) 
-2.0879

>  <Gold.PLP.part.nonpolar>  (52) 
-43.5144

>  <Gold.PLP.part.repulsive>  (52) 
0.0813

>  <Gold.PLP.ligand.clash>  (52) 
0.0000

>  <Gold.PLP.ligand.torsion>  (52) 
0.8957

>  <Gold.PLP.Chemscore.Hbond>  (52) 
2.9120

>  <Gold.PLP.Chemscore.CHOScore>  (52) 
0.0000

>  <Gold.PLP.Chemscore.Metal>  (52) 
0.0000

>  <Gold.Chemscore.Hbonds>  (52) 
donor molecule, donor type, donor heavy atom, donor atom, acceptor molecule, acceptor atom, score
      L1  H     3    24       P1  2902  1.98
      L1  H     3    25       P1  2691  0.93

>  <Gold.PLP.Chemscore.Internal.Correction>  (52) 
0.9471

>  <Gold.PLP.Constraint>  (52) 
-0.0000

>  <Gold.Protein.RotatedTorsions>  (52) 
[  681  677  676  673 ] final  -70.85 input -179.99 | X-H torsion
[  702  698  697  694 ] final  126.59 input  179.99 | X-H torsion
[ 2577 2569 2568 2566 ] final  117.73 input   -0.13 | X-H torsion
[ 2891 2887 2886 2883 ] final  -53.97 input  179.98 | X-H torsion
[ 3175 3171 3170 3167 ] final  -80.11 input -179.99 | X-H torsion
[ 5278 5270 5269 5267 ] final -100.58 input    0.55 | X-H torsion
[  641  637  636  633 ] final   31.27 input  179.99 | X-H torsion
[ 1886 1878 1877 1875 ] final  -28.66 input    1.60 | X-H torsion
[  965  957  956  954 ] final  128.09 input    0.45 | X-H torsion

>  <Gold.Protein.ActiveResidues>  (52) 
 LYS47   THR48   LEU49   GLY50   THR51   GLY52   SER53   PHE54   GLY55   ARG56  
 VAL57   MET58   LEU59   TYR69   ALA70   MET71   LYS72   ILE73   LEU74   GLU91  
 LEU95   VAL104  LYS105  MET118  VAL119  MET120  GLU121  TYR122  VAL123  PRO124 
 GLY125  GLY126  GLU127  MET128  PHE129  TYR164  ASP166  LEU167  LYS168  PRO169 
 GLU170  ASN171  LEU172  LEU173  ILE174  GLN181  VAL182  THR183  ASP184  PHE185 
 GLY186  PHE187  GLY200  THR201  ASN326  PHE327  TYR330  ARG18   ARG19   ASN20  
 ALA21   ILE22   HIS23  

>  <Gold.Protein.RotatedAtoms>  (52) 
    9.6391   19.5364    8.3448 H   0  0  0  0  0  0  0  0  0  0  0  0  # atno 641  bound_to 637 
   15.6844   13.3026    7.2298 H   0  0  0  0  0  0  0  0  0  0  0  0  # atno 681  bound_to 677 
   20.2829   11.7125   -2.0298 H   0  0  0  0  0  0  0  0  0  0  0  0  # atno 702  bound_to 698 
   -7.1431   16.6240   -0.0440 H   0  0  0  0  0  0  0  0  0  0  0  0  # atno 965  bound_to 957 
    2.0630   10.9082   10.3213 H   0  0  0  0  0  0  0  0  0  0  0  0  # atno 1886 bound_to 1878
    9.6729    2.0111   -2.5030 H   0  0  0  0  0  0  0  0  0  0  0  0  # atno 2577 bound_to 2569
    7.5478    5.1911    0.9204 H   0  0  0  0  0  0  0  0  0  0  0  0  # atno 2891 bound_to 2887
   19.2518    2.9890   -0.0950 H   0  0  0  0  0  0  0  0  0  0  0  0  # atno 3175 bound_to 3171
   13.9150    9.8356   10.4008 H   0  0  0  0  0  0  0  0  0  0  0  0  # atno 5278 bound_to 5270
   17.1389   13.8718    6.9187 LP  0  0  0  0  0  0  0  0  0  0  0  0  # atno 5914 bound_to 677 
   16.5270   12.6243    6.0609 LP  0  0  0  0  0  0  0  0  0  0  0  0  # atno 5915 bound_to 677 
   19.4008   11.8265   -0.7084 LP  0  0  0  0  0  0  0  0  0  0  0  0  # atno 5920 bound_to 698 
   21.0061   11.5403   -0.6210 LP  0  0  0  0  0  0  0  0  0  0  0  0  # atno 5921 bound_to 698 
    9.7704    3.3293   -3.3908 LP  0  0  0  0  0  0  0  0  0  0  0  0  # atno 5950 bound_to 2569
   11.1153    2.6175   -2.7980 LP  0  0  0  0  0  0  0  0  0  0  0  0  # atno 5951 bound_to 2569
    7.3552    6.6541    1.5194 LP  0  0  0  0  0  0  0  0  0  0  0  0  # atno 5982 bound_to 2887
    8.3760    6.3875    0.2730 LP  0  0  0  0  0  0  0  0  0  0  0  0  # atno 5983 bound_to 2887
   17.9588    2.0624   -0.0239 LP  0  0  0  0  0  0  0  0  0  0  0  0  # atno 6000 bound_to 3171
   18.6687    2.4008   -1.4550 LP  0  0  0  0  0  0  0  0  0  0  0  0  # atno 6001 bound_to 3171
   14.0653   10.2005    8.8577 LP  0  0  0  0  0  0  0  0  0  0  0  0  # atno 6004 bound_to 5270
   12.5906   10.0181    9.5350 LP  0  0  0  0  0  0  0  0  0  0  0  0  # atno 6005 bound_to 5270
   10.6022   18.9321    7.2303 LP  0  0  0  0  0  0  0  0  0  0  0  0  # atno 6055 bound_to 637 
   11.2107   19.5941    8.5934 LP  0  0  0  0  0  0  0  0  0  0  0  0  # atno 6056 bound_to 637 
    0.6274   11.0445   10.9964 LP  0  0  0  0  0  0  0  0  0  0  0  0  # atno 6063 bound_to 1878
    1.5862   12.3511   10.7965 LP  0  0  0  0  0  0  0  0  0  0  0  0  # atno 6064 bound_to 1878
   -6.7826   15.3324   -0.9024 LP  0  0  0  0  0  0  0  0  0  0  0  0  # atno 6067 bound_to 957 
   -6.5024   16.8312   -1.4868 LP  0  0  0  0  0  0  0  0  0  0  0  0  # atno 6068 bound_to 957 

>  <STRIFE_LigEff_Score>  (52) 
3.0536833333333333

$$$$
unknown|pharmsElabsTestPreDocking|sdf|53|dock6
     RDKit          3D

 19 20  0  0  0  0  0  0  0  0999 V2000
    6.2796   10.1199    5.8459 C   0  0  0  0  0  0  0  0  0  0  0  0
    5.4448    9.7694    4.6468 C   0  0  0  0  0  0  0  0  0  0  0  0
    4.0665   10.0594    4.6824 C   0  0  0  0  0  0  0  0  0  0  0  0
    3.2448    9.7591    3.5997 C   0  0  0  0  0  0  0  0  0  0  0  0
    3.7837    9.1791    2.4638 C   0  0  0  0  0  0  0  0  0  0  0  0
    5.1432    8.9029    2.3978 C   0  0  0  0  0  0  0  0  0  0  0  0
    6.0176    9.1713    3.4886 C   0  0  0  0  0  0  0  0  0  0  0  0
    7.4524    8.8788    3.4298 N   0  0  0  0  0  0  0  0  0  0  0  0
    8.2911    9.0901    2.2676 C   0  0  0  0  0  0  0  0  0  0  0  0
    7.7886    9.4215    1.1734 O   0  0  0  0  0  0  0  0  0  0  0  0
    9.7778    8.9206    2.1989 C   0  0  0  0  0  0  0  0  0  0  0  0
   10.2046    7.5155    1.8020 C   0  0  0  0  0  0  0  0  0  0  0  0
   11.6981    7.2568    1.9457 C   0  0  0  0  0  0  0  0  0  0  0  0
   12.5594    8.5250    1.8044 C   0  0  0  0  0  0  0  0  0  0  0  0
   14.0701    8.1223    1.8565 C   0  0  0  0  0  0  0  0  0  0  0  0
   14.4354    7.5793    3.2500 C   0  0  0  0  0  0  0  0  0  0  0  0
   14.4198    7.1202    0.8406 N   0  0  0  0  0  0  0  0  0  0  0  0
   12.1653    9.5322    2.9164 C   0  0  0  0  0  0  0  0  0  0  0  0
   10.6515    9.8035    3.0638 C   0  0  0  0  0  0  0  0  0  0  0  0
  1  2  1  0
  2  3  2  0
  3  4  1  0
  4  5  2  0
  5  6  1  0
  6  7  2  0
  7  8  1  0
  8  9  1  0
  9 10  2  0
  9 11  1  0
 11 12  1  0
 12 13  1  0
 13 14  1  0
 14 15  1  0
 15 16  1  0
 15 17  1  0
 14 18  1  0
 18 19  1  0
  7  2  1  0
 19 11  1  0
M  CHG  1  17   1
M  END
>  <EmbedRMS>  (53) 
0.17064538222927092

>  <Gold.Version>  (53) 
2020.3.0

>  <Gold.Id.Protein>  (53) 
unknown|1q8t_protein|pdb

>  <Gold.PLP.Fitness>  (53) 
57.3269

>  <Gold.PLP.PLP>  (53) 
-49.1067

>  <Gold.PLP.part.hbond>  (53) 
-2.1509

>  <Gold.PLP.part.metal>  (53) 
0.0000

>  <Gold.PLP.part.buried>  (53) 
-1.7384

>  <Gold.PLP.part.nonpolar>  (53) 
-45.4561

>  <Gold.PLP.part.repulsive>  (53) 
0.0737

>  <Gold.PLP.ligand.clash>  (53) 
0.0000

>  <Gold.PLP.ligand.torsion>  (53) 
0.7155

>  <Gold.PLP.Chemscore.Hbond>  (53) 
3.0000

>  <Gold.PLP.Chemscore.CHOScore>  (53) 
0.0000

>  <Gold.PLP.Chemscore.Metal>  (53) 
0.0000

>  <Gold.Chemscore.Hbonds>  (53) 
donor molecule, donor type, donor heavy atom, donor atom, acceptor molecule, acceptor atom, score
      L1  H    17    39       P1  2691  1.00
      L1  H    17    40       P1  2902  2.00

>  <Gold.PLP.Chemscore.Internal.Correction>  (53) 
0.6512

>  <Gold.PLP.Constraint>  (53) 
-0.0000

>  <Gold.Protein.RotatedTorsions>  (53) 
[  681  677  676  673 ] final   84.26 input -179.99 | X-H torsion
[  702  698  697  694 ] final -144.50 input  179.99 | X-H torsion
[ 2577 2569 2568 2566 ] final -114.37 input   -0.13 | X-H torsion
[ 2891 2887 2886 2883 ] final -134.00 input  179.98 | X-H torsion
[ 3175 3171 3170 3167 ] final  -32.84 input -179.99 | X-H torsion
[ 5278 5270 5269 5267 ] final -149.84 input    0.55 | X-H torsion
[  641  637  636  633 ] final  127.55 input  179.99 | X-H torsion
[ 1886 1878 1877 1875 ] final -108.94 input    1.60 | X-H torsion
[  965  957  956  954 ] final   69.59 input    0.45 | X-H torsion

>  <Gold.Protein.ActiveResidues>  (53) 
 LYS47   THR48   LEU49   GLY50   THR51   GLY52   SER53   PHE54   GLY55   ARG56  
 VAL57   MET58   LEU59   TYR69   ALA70   MET71   LYS72   ILE73   LEU74   GLU91  
 LEU95   VAL104  LYS105  MET118  VAL119  MET120  GLU121  TYR122  VAL123  PRO124 
 GLY125  GLY126  GLU127  MET128  PHE129  TYR164  ASP166  LEU167  LYS168  PRO169 
 GLU170  ASN171  LEU172  LEU173  ILE174  GLN181  VAL182  THR183  ASP184  PHE185 
 GLY186  PHE187  GLY200  THR201  ASN326  PHE327  TYR330  ARG18   ARG19   ASN20  
 ALA21   ILE22   HIS23  

>  <Gold.Protein.RotatedAtoms>  (53) 
   10.8910   19.6879    8.7785 H   0  0  0  0  0  0  0  0  0  0  0  0  # atno 641  bound_to 637 
   16.9698   12.9598    6.0936 H   0  0  0  0  0  0  0  0  0  0  0  0  # atno 681  bound_to 677 
   21.1146   11.5472   -1.1041 H   0  0  0  0  0  0  0  0  0  0  0  0  # atno 702  bound_to 698 
   -7.1129   15.7538   -0.1285 H   0  0  0  0  0  0  0  0  0  0  0  0  # atno 965  bound_to 957 
    1.0204   10.6333   10.7340 H   0  0  0  0  0  0  0  0  0  0  0  0  # atno 1886 bound_to 1878
   11.0701    2.7107   -2.8864 H   0  0  0  0  0  0  0  0  0  0  0  0  # atno 2577 bound_to 2569
    7.1617    6.0569    1.5750 H   0  0  0  0  0  0  0  0  0  0  0  0  # atno 2891 bound_to 2887
   19.3424    2.9628   -0.8071 H   0  0  0  0  0  0  0  0  0  0  0  0  # atno 3175 bound_to 3171
   14.3944    9.9774    9.8459 H   0  0  0  0  0  0  0  0  0  0  0  0  # atno 5278 bound_to 5270
   15.5919   12.8737    6.8874 LP  0  0  0  0  0  0  0  0  0  0  0  0  # atno 5914 bound_to 677 
   16.7210   13.9833    7.2880 LP  0  0  0  0  0  0  0  0  0  0  0  0  # atno 5915 bound_to 677 
   19.7965   11.7807   -1.9675 LP  0  0  0  0  0  0  0  0  0  0  0  0  # atno 5920 bound_to 698 
   19.7355   11.7600   -0.3358 LP  0  0  0  0  0  0  0  0  0  0  0  0  # atno 5921 bound_to 698 
    9.7569    1.9373   -2.4253 LP  0  0  0  0  0  0  0  0  0  0  0  0  # atno 5950 bound_to 2569
    9.6576    3.2728   -3.3598 LP  0  0  0  0  0  0  0  0  0  0  0  0  # atno 5951 bound_to 2569
    8.1601    6.8718    0.6392 LP  0  0  0  0  0  0  0  0  0  0  0  0  # atno 5982 bound_to 2887
    7.9774    5.2585    0.4643 LP  0  0  0  0  0  0  0  0  0  0  0  0  # atno 5983 bound_to 2887
   18.4323    2.4690    0.4027 LP  0  0  0  0  0  0  0  0  0  0  0  0  # atno 6000 bound_to 3171
   18.0998    2.0217   -1.1323 LP  0  0  0  0  0  0  0  0  0  0  0  0  # atno 6001 bound_to 3171
   13.2912   10.2254    8.7242 LP  0  0  0  0  0  0  0  0  0  0  0  0  # atno 6004 bound_to 5270
   12.8602    9.8440   10.2523 LP  0  0  0  0  0  0  0  0  0  0  0  0  # atno 6005 bound_to 5270
    9.5284   19.3905    8.0106 LP  0  0  0  0  0  0  0  0  0  0  0  0  # atno 6055 bound_to 637 
   10.9660   18.9761    7.3563 LP  0  0  0  0  0  0  0  0  0  0  0  0  # atno 6056 bound_to 637 
    1.0076   12.1986   11.0256 LP  0  0  0  0  0  0  0  0  0  0  0  0  # atno 6063 bound_to 1878
    2.3035   11.4864   10.3328 LP  0  0  0  0  0  0  0  0  0  0  0  0  # atno 6064 bound_to 1878
   -6.4691   15.8722   -1.5799 LP  0  0  0  0  0  0  0  0  0  0  0  0  # atno 6067 bound_to 957 
   -6.8477   17.2079   -0.7203 LP  0  0  0  0  0  0  0  0  0  0  0  0  # atno 6068 bound_to 957 

>  <STRIFE_LigEff_Score>  (53) 
3.0172052631578947

$$$$
unknown|pharmsElabsTestPreDocking|sdf|54|dock6
     RDKit          3D

 16 16  0  0  0  0  0  0  0  0999 V2000
    4.9658    8.9724    3.2232 C   0  0  0  0  0  0  0  0  0  0  0  0
    5.0809    9.4728    4.6529 C   0  0  0  0  0  0  0  0  0  0  0  0
    3.7547    9.8254    5.3075 C   0  0  0  0  0  0  0  0  0  0  0  0
    6.2066   10.4406    5.0386 C   0  0  0  0  0  0  0  0  0  0  0  0
    7.5548    9.9069    4.8976 N   0  0  0  0  0  0  0  0  0  0  0  0
    8.0465    9.4847    3.6190 C   0  0  0  0  0  0  0  0  0  0  0  0
    7.5081    9.9081    2.5569 O   0  0  0  0  0  0  0  0  0  0  0  0
    9.2363    8.5685    3.5458 C   0  0  0  0  0  0  0  0  0  0  0  0
    9.4981    8.1418    2.1019 C   0  0  0  0  0  0  0  0  0  0  0  0
   10.6100    7.1055    2.0183 C   0  0  0  0  0  0  0  0  0  0  0  0
   11.8674    7.4001    2.8800 C   0  0  0  0  0  0  0  0  0  0  0  0
   13.2504    7.4916    2.2058 C   0  0  0  0  0  0  0  0  0  0  0  0
   14.4919    7.3597    3.0877 C   0  0  0  0  0  0  0  0  0  0  0  0
   13.3592    8.6552    1.3152 N   0  0  0  0  0  0  0  0  0  0  0  0
   11.6983    8.3662    4.0921 C   0  0  0  0  0  0  0  0  0  0  0  0
   10.4723    9.2756    4.0882 C   0  0  0  0  0  0  0  0  0  0  0  0
  1  2  1  0
  2  3  1  0
  2  4  1  0
  4  5  1  0
  5  6  1  0
  6  7  2  0
  6  8  1  0
  8  9  1  0
  9 10  1  0
 10 11  1  0
 11 12  1  0
 12 13  1  0
 12 14  1  0
 11 15  1  0
 15 16  1  0
 16  8  1  0
M  CHG  1  14   1
M  END
>  <EmbedRMS>  (54) 
0.28373172213554615

>  <Gold.Version>  (54) 
2020.3.0

>  <Gold.Id.Protein>  (54) 
unknown|1q8t_protein|pdb

>  <Gold.PLP.Fitness>  (54) 
45.9520

>  <Gold.PLP.PLP>  (54) 
-40.1798

>  <Gold.PLP.part.hbond>  (54) 
-1.0000

>  <Gold.PLP.part.metal>  (54) 
0.0000

>  <Gold.PLP.part.buried>  (54) 
-2.6734

>  <Gold.PLP.part.nonpolar>  (54) 
-36.2486

>  <Gold.PLP.part.repulsive>  (54) 
0.0000

>  <Gold.PLP.ligand.clash>  (54) 
0.0000

>  <Gold.PLP.ligand.torsion>  (54) 
0.3908

>  <Gold.PLP.Chemscore.Hbond>  (54) 
2.0000

>  <Gold.PLP.Chemscore.CHOScore>  (54) 
0.0000

>  <Gold.PLP.Chemscore.Metal>  (54) 
0.0000

>  <Gold.Chemscore.Hbonds>  (54) 
donor molecule, donor type, donor heavy atom, donor atom, acceptor molecule, acceptor atom, score
      L1  H    14    37       P1  2902  2.00

>  <Gold.PLP.Chemscore.Internal.Correction>  (54) 
0.5538

>  <Gold.PLP.Constraint>  (54) 
-0.0000

>  <Gold.Protein.RotatedTorsions>  (54) 
[  681  677  676  673 ] final   33.61 input -179.99 | X-H torsion
[  702  698  697  694 ] final   65.95 input  179.99 | X-H torsion
[ 2577 2569 2568 2566 ] final   -1.96 input   -0.13 | X-H torsion
[ 2891 2887 2886 2883 ] final  -71.42 input  179.98 | X-H torsion
[ 3175 3171 3170 3167 ] final   83.48 input -179.99 | X-H torsion
[ 5278 5270 5269 5267 ] final  -57.67 input    0.55 | X-H torsion
[  641  637  636  633 ] final   63.33 input  179.99 | X-H torsion
[ 1886 1878 1877 1875 ] final  -37.49 input    1.60 | X-H torsion
[  965  957  956  954 ] final  140.87 input    0.45 | X-H torsion

>  <Gold.Protein.ActiveResidues>  (54) 
 LYS47   THR48   LEU49   GLY50   THR51   GLY52   SER53   PHE54   GLY55   ARG56  
 VAL57   MET58   LEU59   TYR69   ALA70   MET71   LYS72   ILE73   LEU74   GLU91  
 LEU95   VAL104  LYS105  MET118  VAL119  MET120  GLU121  TYR122  VAL123  PRO124 
 GLY125  GLY126  GLU127  MET128  PHE129  TYR164  ASP166  LEU167  LYS168  PRO169 
 GLU170  ASN171  LEU172  LEU173  ILE174  GLN181  VAL182  THR183  ASP184  PHE185 
 GLY186  PHE187  GLY200  THR201  ASN326  PHE327  TYR330  ARG18   ARG19   ASN20  
 ALA21   ILE22   HIS23  

>  <Gold.Protein.RotatedAtoms>  (54) 
    9.9427   19.7003    8.6990 H   0  0  0  0  0  0  0  0  0  0  0  0  # atno 641  bound_to 637 
   16.2942   12.6041    6.1594 H   0  0  0  0  0  0  0  0  0  0  0  0  # atno 681  bound_to 677 
   19.4894   11.8452   -1.6155 H   0  0  0  0  0  0  0  0  0  0  0  0  # atno 702  bound_to 698 
   -7.1007   16.7971   -0.1335 H   0  0  0  0  0  0  0  0  0  0  0  0  # atno 965  bound_to 957 
    1.9748   10.8044   10.3424 H   0  0  0  0  0  0  0  0  0  0  0  0  # atno 1886 bound_to 1878
    9.7875    3.2835   -3.3781 H   0  0  0  0  0  0  0  0  0  0  0  0  # atno 2577 bound_to 2569
    7.3890    5.2752    1.1245 H   0  0  0  0  0  0  0  0  0  0  0  0  # atno 2891 bound_to 2887
   18.1708    2.0512   -1.1418 H   0  0  0  0  0  0  0  0  0  0  0  0  # atno 3175 bound_to 3171
   13.2611    9.8182   10.4433 H   0  0  0  0  0  0  0  0  0  0  0  0  # atno 5278 bound_to 5270
   15.7754   13.4853    7.3802 LP  0  0  0  0  0  0  0  0  0  0  0  0  # atno 5914 bound_to 677 
   17.2487   13.7460    6.7260 LP  0  0  0  0  0  0  0  0  0  0  0  0  # atno 5915 bound_to 677 
   20.1874   11.6772   -0.1936 LP  0  0  0  0  0  0  0  0  0  0  0  0  # atno 5920 bound_to 698 
   21.0542   11.5501   -1.5716 LP  0  0  0  0  0  0  0  0  0  0  0  0  # atno 5921 bound_to 698 
   11.1157    2.6217   -2.8009 LP  0  0  0  0  0  0  0  0  0  0  0  0  # atno 5950 bound_to 2569
    9.6494    1.9853   -2.4665 LP  0  0  0  0  0  0  0  0  0  0  0  0  # atno 5951 bound_to 2569
    7.5170    6.8424    1.3770 LP  0  0  0  0  0  0  0  0  0  0  0  0  # atno 5982 bound_to 2887
    8.3814    6.1107    0.2006 LP  0  0  0  0  0  0  0  0  0  0  0  0  # atno 5983 bound_to 2887
   19.3796    3.0175   -0.7666 LP  0  0  0  0  0  0  0  0  0  0  0  0  # atno 6000 bound_to 3171
   18.3854    2.4325    0.3893 LP  0  0  0  0  0  0  0  0  0  0  0  0  # atno 6001 bound_to 3171
   14.4507   10.0673    9.4140 LP  0  0  0  0  0  0  0  0  0  0  0  0  # atno 6004 bound_to 5270
   12.8932   10.1695    8.9340 LP  0  0  0  0  0  0  0  0  0  0  0  0  # atno 6005 bound_to 5270
   10.0871   18.9876    7.2826 LP  0  0  0  0  0  0  0  0  0  0  0  0  # atno 6055 bound_to 637 
   11.4060   19.3660    8.1681 LP  0  0  0  0  0  0  0  0  0  0  0  0  # atno 6056 bound_to 637 
    0.5912   11.1795   11.0353 LP  0  0  0  0  0  0  0  0  0  0  0  0  # atno 6063 bound_to 1878
    1.7152   12.3254   10.7352 LP  0  0  0  0  0  0  0  0  0  0  0  0  # atno 6064 bound_to 1878
   -6.8696   15.3315   -0.7112 LP  0  0  0  0  0  0  0  0  0  0  0  0  # atno 6067 bound_to 957 
   -6.4600   16.6498   -1.5837 LP  0  0  0  0  0  0  0  0  0  0  0  0  # atno 6068 bound_to 957 

>  <STRIFE_LigEff_Score>  (54) 
2.872

$$$$
unknown|pharmsElabsTestPreDocking|sdf|55|dock5
     RDKit          3D

 16 16  0  0  0  0  0  0  0  0999 V2000
    3.9004    9.8104    5.6014 C   0  0  0  0  0  0  0  0  0  0  0  0
    3.5100    9.7918    4.1308 C   0  0  0  0  0  0  0  0  0  0  0  0
    4.6264    9.1700    3.2853 C   0  0  0  0  0  0  0  0  0  0  0  0
    5.8336   10.1016    3.1902 C   0  0  0  0  0  0  0  0  0  0  0  0
    7.0688    9.3344    3.0667 N   0  0  0  0  0  0  0  0  0  0  0  0
    8.0545    9.3311    4.0998 C   0  0  0  0  0  0  0  0  0  0  0  0
    7.8571    9.9737    5.1690 O   0  0  0  0  0  0  0  0  0  0  0  0
    9.3195    8.5407    3.9086 C   0  0  0  0  0  0  0  0  0  0  0  0
    9.3897    7.9842    2.4892 C   0  0  0  0  0  0  0  0  0  0  0  0
   10.5825    7.0558    2.3141 C   0  0  0  0  0  0  0  0  0  0  0  0
   11.9223    7.5673    2.9080 C   0  0  0  0  0  0  0  0  0  0  0  0
   13.1538    7.7174    1.9935 C   0  0  0  0  0  0  0  0  0  0  0  0
   14.5288    7.3937    2.5777 C   0  0  0  0  0  0  0  0  0  0  0  0
   13.1714    9.0080    1.2915 N   0  0  0  0  0  0  0  0  0  0  0  0
   11.8452    8.6425    4.0351 C   0  0  0  0  0  0  0  0  0  0  0  0
   10.5376    9.4214    4.1623 C   0  0  0  0  0  0  0  0  0  0  0  0
  1  2  1  0
  2  3  1  0
  3  4  1  0
  4  5  1  0
  5  6  1  0
  6  7  2  0
  6  8  1  0
  8  9  1  0
  9 10  1  0
 10 11  1  0
 11 12  1  0
 12 13  1  0
 12 14  1  0
 11 15  1  0
 15 16  1  0
 16  8  1  0
M  CHG  1  14   1
M  END
>  <EmbedRMS>  (55) 
0.21476017337867526

>  <Gold.Version>  (55) 
2020.3.0

>  <Gold.Id.Protein>  (55) 
unknown|1q8t_protein|pdb

>  <Gold.PLP.Fitness>  (55) 
45.7324

>  <Gold.PLP.PLP>  (55) 
-40.8430

>  <Gold.PLP.part.hbond>  (55) 
-1.0000

>  <Gold.PLP.part.metal>  (55) 
0.0000

>  <Gold.PLP.part.buried>  (55) 
-4.0169

>  <Gold.PLP.part.nonpolar>  (55) 
-36.2703

>  <Gold.PLP.part.repulsive>  (55) 
0.1018

>  <Gold.PLP.ligand.clash>  (55) 
0.1273

>  <Gold.PLP.ligand.torsion>  (55) 
0.7565

>  <Gold.PLP.Chemscore.Hbond>  (55) 
2.0000

>  <Gold.PLP.Chemscore.CHOScore>  (55) 
0.0000

>  <Gold.PLP.Chemscore.Metal>  (55) 
0.0000

>  <Gold.Chemscore.Hbonds>  (55) 
donor molecule, donor type, donor heavy atom, donor atom, acceptor molecule, acceptor atom, score
      L1  H    14    38       P1  2902  2.00

>  <Gold.PLP.Chemscore.Internal.Correction>  (55) 
0.5297

>  <Gold.PLP.Constraint>  (55) 
-0.0000

>  <Gold.Protein.RotatedTorsions>  (55) 
[  681  677  676  673 ] final   77.33 input -179.99 | X-H torsion
[  702  698  697  694 ] final   -4.80 input  179.99 | X-H torsion
[ 2577 2569 2568 2566 ] final  162.53 input   -0.13 | X-H torsion
[ 2891 2887 2886 2883 ] final   42.41 input  179.98 | X-H torsion
[ 3175 3171 3170 3167 ] final   -9.49 input -179.99 | X-H torsion
[ 5278 5270 5269 5267 ] final   86.01 input    0.55 | X-H torsion
[  641  637  636  633 ] final -130.12 input  179.99 | X-H torsion
[ 1886 1878 1877 1875 ] final -135.55 input    1.60 | X-H torsion
[  965  957  956  954 ] final -154.28 input    0.45 | X-H torsion

>  <Gold.Protein.ActiveResidues>  (55) 
 LYS47   THR48   LEU49   GLY50   THR51   GLY52   SER53   PHE54   GLY55   ARG56  
 VAL57   MET58   LEU59   TYR69   ALA70   MET71   LYS72   ILE73   LEU74   GLU91  
 LEU95   VAL104  LYS105  MET118  VAL119  MET120  GLU121  TYR122  VAL123  PRO124 
 GLY125  GLY126  GLU127  MET128  PHE129  TYR164  ASP166  LEU167  LYS168  PRO169 
 GLU170  ASN171  LEU172  LEU173  ILE174  GLN181  VAL182  THR183  ASP184  PHE185 
 GLY186  PHE187  GLY200  THR201  ASN326  PHE327  TYR330  ARG18   ARG19   ASN20  
 ALA21   ILE22   HIS23  

>  <Gold.Protein.RotatedAtoms>  (55) 
   11.1485   19.0531    7.5635 H   0  0  0  0  0  0  0  0  0  0  0  0  # atno 641  bound_to 637 
   16.8912   12.8887    6.0718 H   0  0  0  0  0  0  0  0  0  0  0  0  # atno 681  bound_to 677 
   19.5385   11.8165   -0.5794 H   0  0  0  0  0  0  0  0  0  0  0  0  # atno 702  bound_to 698 
   -6.7276   17.1475   -0.9459 H   0  0  0  0  0  0  0  0  0  0  0  0  # atno 965  bound_to 957 
    0.7457   10.8923   10.8993 H   0  0  0  0  0  0  0  0  0  0  0  0  # atno 1886 bound_to 1878
   10.3393    1.9174   -2.3891 H   0  0  0  0  0  0  0  0  0  0  0  0  # atno 2577 bound_to 2569
    8.3268    6.0156    0.2155 H   0  0  0  0  0  0  0  0  0  0  0  0  # atno 2891 bound_to 2887
   19.2129    2.8264   -1.1169 H   0  0  0  0  0  0  0  0  0  0  0  0  # atno 3175 bound_to 3171
   13.2409   10.2258    8.7901 H   0  0  0  0  0  0  0  0  0  0  0  0  # atno 5278 bound_to 5270
   15.5784   12.9497    6.9712 LP  0  0  0  0  0  0  0  0  0  0  0  0  # atno 5914 bound_to 677 
   16.8174   13.9821    7.2272 LP  0  0  0  0  0  0  0  0  0  0  0  0  # atno 5915 bound_to 677 
   21.0913   11.5284   -0.7871 LP  0  0  0  0  0  0  0  0  0  0  0  0  # atno 5920 bound_to 698 
   20.0986   11.7291   -2.0680 LP  0  0  0  0  0  0  0  0  0  0  0  0  # atno 5921 bound_to 698 
    9.2904    2.8742   -3.1100 LP  0  0  0  0  0  0  0  0  0  0  0  0  # atno 5950 bound_to 2569
   10.8937    3.1713   -3.1988 LP  0  0  0  0  0  0  0  0  0  0  0  0  # atno 5951 bound_to 2569
    7.3310    5.2815    1.2185 LP  0  0  0  0  0  0  0  0  0  0  0  0  # atno 5982 bound_to 2887
    7.5803    6.8924    1.3157 LP  0  0  0  0  0  0  0  0  0  0  0  0  # atno 5983 bound_to 2887
   18.7392    2.6956    0.3977 LP  0  0  0  0  0  0  0  0  0  0  0  0  # atno 6000 bound_to 3171
   17.9292    1.9387   -0.8013 LP  0  0  0  0  0  0  0  0  0  0  0  0  # atno 6001 bound_to 3171
   12.9099    9.8333   10.2978 LP  0  0  0  0  0  0  0  0  0  0  0  0  # atno 6004 bound_to 5270
   14.4553    9.9748    9.7896 LP  0  0  0  0  0  0  0  0  0  0  0  0  # atno 6005 bound_to 5270
   10.6414   19.7764    8.8881 LP  0  0  0  0  0  0  0  0  0  0  0  0  # atno 6055 bound_to 637 
    9.5818   19.2588    7.7585 LP  0  0  0  0  0  0  0  0  0  0  0  0  # atno 6056 bound_to 637 
    1.3890   12.3488   10.8831 LP  0  0  0  0  0  0  0  0  0  0  0  0  # atno 6063 bound_to 1878
    2.2114   11.0635   10.3013 LP  0  0  0  0  0  0  0  0  0  0  0  0  # atno 6064 bound_to 1878
   -7.1920   15.9622    0.0103 LP  0  0  0  0  0  0  0  0  0  0  0  0  # atno 6067 bound_to 957 
   -6.5305   15.6501   -1.4497 LP  0  0  0  0  0  0  0  0  0  0  0  0  # atno 6068 bound_to 957 

>  <STRIFE_LigEff_Score>  (55) 
2.858275

$$$$
unknown|pharmsElabsTestPreDocking|sdf|56|dock4
     RDKit          3D

 17 18  0  0  0  0  0  0  0  0999 V2000
   14.3150    8.9479    1.6927 C   0  0  0  0  0  0  0  0  0  0  0  0
   13.4125    7.7578    2.0146 C   0  0  0  0  0  0  0  0  0  0  0  0
   13.0979    6.9648    0.8244 N   0  0  0  0  0  0  0  0  0  0  0  0
   12.1741    7.9936    2.9136 C   0  0  0  0  0  0  0  0  0  0  0  0
   11.0350    6.9935    2.6681 C   0  0  0  0  0  0  0  0  0  0  0  0
    9.6562    7.4076    3.1533 C   0  0  0  0  0  0  0  0  0  0  0  0
    9.3607    8.8629    2.8920 C   0  0  0  0  0  0  0  0  0  0  0  0
    7.9132    9.2264    3.0395 C   0  0  0  0  0  0  0  0  0  0  0  0
    7.7076   10.1557    3.8523 O   0  0  0  0  0  0  0  0  0  0  0  0
    6.8001    8.6155    2.3518 N   0  0  0  0  0  0  0  0  0  0  0  0
    5.4215    8.9559    2.6486 C   0  0  0  0  0  0  0  0  0  0  0  0
    4.8454    9.1843    3.8974 C   0  0  0  0  0  0  0  0  0  0  0  0
    3.5170    9.4566    3.6637 C   0  0  0  0  0  0  0  0  0  0  0  0
    3.2574    9.4020    2.3454 N   0  0  0  0  0  0  0  0  0  0  0  0
    4.4100    9.0969    1.7179 C   0  0  0  0  0  0  0  0  0  0  0  0
   10.3788    9.8558    3.3744 C   0  0  0  0  0  0  0  0  0  0  0  0
   11.7918    9.4980    2.9179 C   0  0  0  0  0  0  0  0  0  0  0  0
  1  2  1  0
  2  3  1  0
  2  4  1  0
  4  5  1  0
  5  6  1  0
  6  7  1  0
  7  8  1  0
  8  9  2  0
  8 10  1  0
 10 11  1  0
 11 12  1  0
 12 13  2  0
 13 14  1  0
 14 15  1  0
  7 16  1  0
 16 17  1  0
 17  4  1  0
 15 11  2  0
M  CHG  1   3   1
M  END
>  <EmbedRMS>  (56) 
0.3005329260886256

>  <Gold.Version>  (56) 
2020.3.0

>  <Gold.Id.Protein>  (56) 
unknown|1q8t_protein|pdb

>  <Gold.PLP.Fitness>  (56) 
48.0050

>  <Gold.PLP.PLP>  (56) 
-39.0162

>  <Gold.PLP.part.hbond>  (56) 
-3.0732

>  <Gold.PLP.part.metal>  (56) 
0.0000

>  <Gold.PLP.part.buried>  (56) 
-3.9946

>  <Gold.PLP.part.nonpolar>  (56) 
-32.6605

>  <Gold.PLP.part.repulsive>  (56) 
0.1196

>  <Gold.PLP.ligand.clash>  (56) 
0.0000

>  <Gold.PLP.ligand.torsion>  (56) 
1.6403

>  <Gold.PLP.Chemscore.Hbond>  (56) 
3.8820

>  <Gold.PLP.Chemscore.CHOScore>  (56) 
0.0000

>  <Gold.PLP.Chemscore.Metal>  (56) 
0.0000

>  <Gold.Chemscore.Hbonds>  (56) 
donor molecule, donor type, donor heavy atom, donor atom, acceptor molecule, acceptor atom, score
      L1  H     3    22       P1  2691  0.45
      L1  H     3    24       P1  2902  1.98
      L1  H    10    31       P1  2887  0.45
      L1  H    14    34       P1  1855  1.00

>  <Gold.PLP.Chemscore.Internal.Correction>  (56) 
0.6233

>  <Gold.PLP.Constraint>  (56) 
-0.0000

>  <Gold.Protein.RotatedTorsions>  (56) 
[  681  677  676  673 ] final -123.82 input -179.99 | X-H torsion
[  702  698  697  694 ] final   10.15 input  179.99 | X-H torsion
[ 2577 2569 2568 2566 ] final -157.11 input   -0.13 | X-H torsion
[ 2891 2887 2886 2883 ] final  -89.19 input  179.98 | X-H torsion
[ 3175 3171 3170 3167 ] final   32.03 input -179.99 | X-H torsion
[ 5278 5270 5269 5267 ] final  -83.35 input    0.55 | X-H torsion
[  641  637  636  633 ] final  157.99 input  179.99 | X-H torsion
[ 1886 1878 1877 1875 ] final  106.08 input    1.60 | X-H torsion
[  965  957  956  954 ] final  157.46 input    0.45 | X-H torsion

>  <Gold.Protein.ActiveResidues>  (56) 
 LYS47   THR48   LEU49   GLY50   THR51   GLY52   SER53   PHE54   GLY55   ARG56  
 VAL57   MET58   LEU59   TYR69   ALA70   MET71   LYS72   ILE73   LEU74   GLU91  
 LEU95   VAL104  LYS105  MET118  VAL119  MET120  GLU121  TYR122  VAL123  PRO124 
 GLY125  GLY126  GLU127  MET128  PHE129  TYR164  ASP166  LEU167  LYS168  PRO169 
 GLU170  ASN171  LEU172  LEU173  ILE174  GLN181  VAL182  THR183  ASP184  PHE185 
 GLY186  PHE187  GLY200  THR201  ASN326  PHE327  TYR330  ARG18   ARG19   ASN20  
 ALA21   ILE22   HIS23  

>  <Gold.Protein.RotatedAtoms>  (56) 
   11.2322   19.5259    8.4985 H   0  0  0  0  0  0  0  0  0  0  0  0  # atno 641  bound_to 637 
   16.2500   13.8375    7.4097 H   0  0  0  0  0  0  0  0  0  0  0  0  # atno 681  bound_to 677 
   19.4215   11.8411   -0.7795 H   0  0  0  0  0  0  0  0  0  0  0  0  # atno 702  bound_to 698 
   -7.0243   16.9814   -0.2975 H   0  0  0  0  0  0  0  0  0  0  0  0  # atno 965  bound_to 957 
    1.3613   12.3015   10.8683 H   0  0  0  0  0  0  0  0  0  0  0  0  # atno 1886 bound_to 1878
   10.8702    2.1937   -2.5421 H   0  0  0  0  0  0  0  0  0  0  0  0  # atno 2577 bound_to 2569
    7.2614    5.4352    1.3105 H   0  0  0  0  0  0  0  0  0  0  0  0  # atno 2891 bound_to 2887
   18.7755    2.4650   -1.4018 H   0  0  0  0  0  0  0  0  0  0  0  0  # atno 3175 bound_to 3171
   13.6581    9.8144   10.4755 H   0  0  0  0  0  0  0  0  0  0  0  0  # atno 5278 bound_to 5270
   17.2639   13.3214    6.2955 LP  0  0  0  0  0  0  0  0  0  0  0  0  # atno 5914 bound_to 677 
   15.8067   12.6118    6.4947 LP  0  0  0  0  0  0  0  0  0  0  0  0  # atno 5915 bound_to 677 
   20.9730   11.5452   -0.5729 LP  0  0  0  0  0  0  0  0  0  0  0  0  # atno 5920 bound_to 698 
   20.3401   11.6863   -2.0717 LP  0  0  0  0  0  0  0  0  0  0  0  0  # atno 5921 bound_to 698 
    9.2969    2.3402   -2.7387 LP  0  0  0  0  0  0  0  0  0  0  0  0  # atno 5950 bound_to 2569
   10.3282    3.4143   -3.4090 LP  0  0  0  0  0  0  0  0  0  0  0  0  # atno 5951 bound_to 2569
    7.7045    6.9601    1.1880 LP  0  0  0  0  0  0  0  0  0  0  0  0  # atno 5982 bound_to 2887
    8.3281    5.8246    0.1938 LP  0  0  0  0  0  0  0  0  0  0  0  0  # atno 5983 bound_to 2887
   19.2114    2.9978    0.0341 LP  0  0  0  0  0  0  0  0  0  0  0  0  # atno 6000 bound_to 3171
   17.9173    2.0168   -0.1377 LP  0  0  0  0  0  0  0  0  0  0  0  0  # atno 6001 bound_to 3171
   14.2712   10.1563    9.0458 LP  0  0  0  0  0  0  0  0  0  0  0  0  # atno 6004 bound_to 5270
   12.6550   10.0846    9.2682 LP  0  0  0  0  0  0  0  0  0  0  0  0  # atno 6005 bound_to 5270
    9.6430   19.6045    8.4422 LP  0  0  0  0  0  0  0  0  0  0  0  0  # atno 6055 bound_to 637 
   10.4921   18.9328    7.2197 LP  0  0  0  0  0  0  0  0  0  0  0  0  # atno 6056 bound_to 637 
    2.2222   11.0882   10.3007 LP  0  0  0  0  0  0  0  0  0  0  0  0  # atno 6063 bound_to 1878
    0.7301   10.8405   10.9163 LP  0  0  0  0  0  0  0  0  0  0  0  0  # atno 6064 bound_to 1878
   -6.9782   15.3994   -0.4714 LP  0  0  0  0  0  0  0  0  0  0  0  0  # atno 6067 bound_to 957 
   -6.4319   16.3878   -1.6509 LP  0  0  0  0  0  0  0  0  0  0  0  0  # atno 6068 bound_to 957 

>  <STRIFE_LigEff_Score>  (56) 
2.823823529411765

$$$$
unknown|pharmsElabsTestPreDocking|sdf|57|dock5
     RDKit          3D

 17 17  0  0  0  0  0  0  0  0999 V2000
   14.6269    9.1130    1.5405 C   0  0  0  0  0  0  0  0  0  0  0  0
   13.7002    7.9279    1.7526 C   0  0  0  0  0  0  0  0  0  0  0  0
   13.9438    6.7946    0.8666 N   0  0  0  0  0  0  0  0  0  0  0  0
   12.2172    8.2458    2.1198 C   0  0  0  0  0  0  0  0  0  0  0  0
   11.4534    7.2189    2.9704 C   0  0  0  0  0  0  0  0  0  0  0  0
    9.9329    7.4768    2.9241 C   0  0  0  0  0  0  0  0  0  0  0  0
    9.5454    8.9265    2.6183 C   0  0  0  0  0  0  0  0  0  0  0  0
    8.0797    9.2310    2.7432 C   0  0  0  0  0  0  0  0  0  0  0  0
    7.7840   10.1055    3.5944 O   0  0  0  0  0  0  0  0  0  0  0  0
    7.0187    8.6029    2.0109 N   0  0  0  0  0  0  0  0  0  0  0  0
    5.6914    8.9389    2.3516 N   0  0  0  0  0  0  0  0  0  0  0  0
    5.2446    8.9011    3.5683 C   0  0  0  0  0  0  0  0  0  0  0  0
    3.8833    9.2616    3.8695 N   0  0  0  0  0  0  0  0  0  0  0  0
    2.9538    9.6826    2.8235 C   0  0  0  0  0  0  0  0  0  0  0  0
    3.4310    9.2141    5.1984 N   0  0  0  0  0  0  0  0  0  0  0  0
   10.5293   10.0575    2.8737 C   0  0  0  0  0  0  0  0  0  0  0  0
   12.0112    9.6579    2.7051 C   0  0  0  0  0  0  0  0  0  0  0  0
  1  2  1  0
  2  3  1  0
  2  4  1  0
  4  5  1  0
  5  6  1  0
  6  7  1  0
  7  8  1  0
  8  9  2  0
  8 10  1  0
 10 11  1  0
 11 12  2  0
 12 13  1  0
 13 14  1  0
 13 15  1  0
  7 16  1  0
 16 17  1  0
 17  4  1  0
M  CHG  1   3   1
M  END
>  <EmbedRMS>  (57) 
0.2570984896337683

>  <Gold.Version>  (57) 
2020.3.0

>  <Gold.Id.Protein>  (57) 
unknown|1q8t_protein|pdb

>  <Gold.PLP.Fitness>  (57) 
44.7834

>  <Gold.PLP.PLP>  (57) 
-33.8568

>  <Gold.PLP.part.hbond>  (57) 
-4.8192

>  <Gold.PLP.part.metal>  (57) 
0.0000

>  <Gold.PLP.part.buried>  (57) 
-1.8205

>  <Gold.PLP.part.nonpolar>  (57) 
-28.0217

>  <Gold.PLP.part.repulsive>  (57) 
0.0910

>  <Gold.PLP.ligand.clash>  (57) 
0.0000

>  <Gold.PLP.ligand.torsion>  (57) 
1.1296

>  <Gold.PLP.Chemscore.Hbond>  (57) 
4.0629

>  <Gold.PLP.Chemscore.CHOScore>  (57) 
0.0000

>  <Gold.PLP.Chemscore.Metal>  (57) 
0.0000

>  <Gold.Chemscore.Hbonds>  (57) 
donor molecule, donor type, donor heavy atom, donor atom, acceptor molecule, acceptor atom, score
      L1  H     3    22       P1  2691  0.97
      L1  H     3    24       P1  2902  2.00
      L1  H    10    31       P1  2887  0.35
      P1  H  1888  1903       L1    15  0.75

>  <Gold.PLP.Chemscore.Internal.Correction>  (57) 
0.9972

>  <Gold.PLP.Constraint>  (57) 
-0.0000

>  <Gold.Protein.RotatedTorsions>  (57) 
[  681  677  676  673 ] final -165.19 input -179.99 | X-H torsion
[  702  698  697  694 ] final   31.95 input  179.99 | X-H torsion
[ 2577 2569 2568 2566 ] final  125.50 input   -0.13 | X-H torsion
[ 2891 2887 2886 2883 ] final   18.22 input  179.98 | X-H torsion
[ 3175 3171 3170 3167 ] final  -76.31 input -179.99 | X-H torsion
[ 5278 5270 5269 5267 ] final  -19.15 input    0.55 | X-H torsion
[  641  637  636  633 ] final  125.04 input  179.99 | X-H torsion
[ 1886 1878 1877 1875 ] final  -29.57 input    1.60 | X-H torsion
[  965  957  956  954 ] final   22.49 input    0.45 | X-H torsion

>  <Gold.Protein.ActiveResidues>  (57) 
 LYS47   THR48   LEU49   GLY50   THR51   GLY52   SER53   PHE54   GLY55   ARG56  
 VAL57   MET58   LEU59   TYR69   ALA70   MET71   LYS72   ILE73   LEU74   GLU91  
 LEU95   VAL104  LYS105  MET118  VAL119  MET120  GLU121  TYR122  VAL123  PRO124 
 GLY125  GLY126  GLU127  MET128  PHE129  TYR164  ASP166  LEU167  LYS168  PRO169 
 GLU170  ASN171  LEU172  LEU173  ILE174  GLN181  VAL182  THR183  ASP184  PHE185 
 GLY186  PHE187  GLY200  THR201  ASN326  PHE327  TYR330  ARG18   ARG19   ASN20  
 ALA21   ILE22   HIS23  

>  <Gold.Protein.RotatedAtoms>  (57) 
   10.8561   19.6976    8.7936 H   0  0  0  0  0  0  0  0  0  0  0  0  # atno 641  bound_to 637 
   16.8238   13.9541    7.1698 H   0  0  0  0  0  0  0  0  0  0  0  0  # atno 681  bound_to 677 
   19.3505   11.8601   -1.1104 H   0  0  0  0  0  0  0  0  0  0  0  0  # atno 702  bound_to 698 
   -6.8627   15.3817   -0.6861 H   0  0  0  0  0  0  0  0  0  0  0  0  # atno 965  bound_to 957 
    2.0546   10.8969   10.3230 H   0  0  0  0  0  0  0  0  0  0  0  0  # atno 1886 bound_to 1878
    9.7772    1.9641   -2.4627 H   0  0  0  0  0  0  0  0  0  0  0  0  # atno 2577 bound_to 2569
    8.2200    5.6577    0.2536 H   0  0  0  0  0  0  0  0  0  0  0  0  # atno 2891 bound_to 2887
   19.2763    3.0002   -0.1479 H   0  0  0  0  0  0  0  0  0  0  0  0  # atno 3175 bound_to 3171
   12.7874    9.8982   10.0989 H   0  0  0  0  0  0  0  0  0  0  0  0  # atno 5278 bound_to 5270
   16.8901   12.8319    6.0418 LP  0  0  0  0  0  0  0  0  0  0  0  0  # atno 5914 bound_to 677 
   15.5765   12.9785    7.0009 LP  0  0  0  0  0  0  0  0  0  0  0  0  # atno 5915 bound_to 677 
   20.7132   11.5866   -0.3322 LP  0  0  0  0  0  0  0  0  0  0  0  0  # atno 5920 bound_to 698 
   20.6745   11.6250   -1.9643 LP  0  0  0  0  0  0  0  0  0  0  0  0  # atno 5921 bound_to 698 
    9.6595    3.2739   -3.3604 LP  0  0  0  0  0  0  0  0  0  0  0  0  # atno 5950 bound_to 2569
   11.1165    2.7224   -2.8707 LP  0  0  0  0  0  0  0  0  0  0  0  0  # atno 5951 bound_to 2569
    7.1820    5.5586    1.4575 LP  0  0  0  0  0  0  0  0  0  0  0  0  # atno 5982 bound_to 2887
    7.8417    6.9919    1.0367 LP  0  0  0  0  0  0  0  0  0  0  0  0  # atno 5983 bound_to 2887
   17.9834    2.0874    0.0278 LP  0  0  0  0  0  0  0  0  0  0  0  0  # atno 6000 bound_to 3171
   18.6184    2.3640   -1.4510 LP  0  0  0  0  0  0  0  0  0  0  0  0  # atno 6001 bound_to 3171
   14.3777    9.9187   10.0135 LP  0  0  0  0  0  0  0  0  0  0  0  0  # atno 6004 bound_to 5270
   13.4645   10.2339    8.6969 LP  0  0  0  0  0  0  0  0  0  0  0  0  # atno 6005 bound_to 5270
    9.5306   19.3717    7.9740 LP  0  0  0  0  0  0  0  0  0  0  0  0  # atno 6055 bound_to 637 
   11.0006   18.9848    7.3772 LP  0  0  0  0  0  0  0  0  0  0  0  0  # atno 6056 bound_to 637 
    0.6228   11.0579   11.0007 LP  0  0  0  0  0  0  0  0  0  0  0  0  # atno 6063 bound_to 1878
    1.5996   12.3495   10.7903 LP  0  0  0  0  0  0  0  0  0  0  0  0  # atno 6064 bound_to 1878
   -6.4559   16.6254   -1.5932 LP  0  0  0  0  0  0  0  0  0  0  0  0  # atno 6067 bound_to 957 
   -7.1244   16.8466   -0.1198 LP  0  0  0  0  0  0  0  0  0  0  0  0  # atno 6068 bound_to 957 

>  <STRIFE_LigEff_Score>  (57) 
2.6343176470588237

$$$$
unknown|pharmsElabsTestPreDocking|sdf|58|dock6
     RDKit          3D

 17 17  0  0  0  0  0  0  0  0999 V2000
    3.3161    8.5999    2.2335 C   0  0  0  0  0  0  0  0  0  0  0  0
    4.6281    8.8400    2.1740 C   0  0  0  0  0  0  0  0  0  0  0  0
    5.5104    9.1313    3.3303 C   0  0  0  0  0  0  0  0  0  0  0  0
    5.0092    9.7720    4.4140 C   0  0  0  0  0  0  0  0  0  0  0  0
    5.8263   10.1758    5.6033 C   0  0  0  0  0  0  0  0  0  0  0  0
    6.9335    8.8572    3.2710 N   0  0  0  0  0  0  0  0  0  0  0  0
    7.9863    9.2900    2.3775 C   0  0  0  0  0  0  0  0  0  0  0  0
    7.6717   10.1264    1.4921 O   0  0  0  0  0  0  0  0  0  0  0  0
    9.4524    8.9526    2.3900 C   0  0  0  0  0  0  0  0  0  0  0  0
    9.7558    7.4917    2.6767 C   0  0  0  0  0  0  0  0  0  0  0  0
   11.2003    7.1091    2.4276 C   0  0  0  0  0  0  0  0  0  0  0  0
   12.2757    8.1604    2.7198 C   0  0  0  0  0  0  0  0  0  0  0  0
   13.6104    7.8727    1.9888 C   0  0  0  0  0  0  0  0  0  0  0  0
   14.5699    9.0372    1.7429 C   0  0  0  0  0  0  0  0  0  0  0  0
   13.4315    7.0407    0.7980 N   0  0  0  0  0  0  0  0  0  0  0  0
   11.8725    9.6429    2.5237 C   0  0  0  0  0  0  0  0  0  0  0  0
   10.4276   10.0117    2.8319 C   0  0  0  0  0  0  0  0  0  0  0  0
  1  2  2  0
  2  3  1  0
  3  4  2  0
  4  5  1  0
  3  6  1  0
  6  7  1  0
  7  8  2  0
  7  9  1  0
  9 10  1  0
 10 11  1  0
 11 12  1  0
 12 13  1  0
 13 14  1  0
 13 15  1  0
 12 16  1  0
 16 17  1  0
 17  9  1  0
M  CHG  1  15   1
M  END
>  <EmbedRMS>  (58) 
0.29216731409503444

>  <Gold.Version>  (58) 
2020.3.0

>  <Gold.Id.Protein>  (58) 
unknown|1q8t_protein|pdb

>  <Gold.PLP.Fitness>  (58) 
44.6243

>  <Gold.PLP.PLP>  (58) 
-39.0982

>  <Gold.PLP.part.hbond>  (58) 
-1.6718

>  <Gold.PLP.part.metal>  (58) 
0.0000

>  <Gold.PLP.part.buried>  (58) 
-2.2260

>  <Gold.PLP.part.nonpolar>  (58) 
-35.2349

>  <Gold.PLP.part.repulsive>  (58) 
0.0572

>  <Gold.PLP.ligand.clash>  (58) 
0.0000

>  <Gold.PLP.ligand.torsion>  (58) 
2.0643

>  <Gold.PLP.Chemscore.Hbond>  (58) 
2.9199

>  <Gold.PLP.Chemscore.CHOScore>  (58) 
0.0000

>  <Gold.PLP.Chemscore.Metal>  (58) 
0.0000

>  <Gold.Chemscore.Hbonds>  (58) 
donor molecule, donor type, donor heavy atom, donor atom, acceptor molecule, acceptor atom, score
      L1  H    15    36       P1  2902  2.00
      L1  H    15    37       P1  2691  0.92

>  <Gold.PLP.Chemscore.Internal.Correction>  (58) 
0.8951

>  <Gold.PLP.Constraint>  (58) 
-0.0000

>  <Gold.Protein.RotatedTorsions>  (58) 
[  681  677  676  673 ] final   59.73 input -179.99 | X-H torsion
[  702  698  697  694 ] final -106.37 input  179.99 | X-H torsion
[ 2577 2569 2568 2566 ] final  164.69 input   -0.13 | X-H torsion
[ 2891 2887 2886 2883 ] final -123.30 input  179.98 | X-H torsion
[ 3175 3171 3170 3167 ] final  105.95 input -179.99 | X-H torsion
[ 5278 5270 5269 5267 ] final  109.50 input    0.55 | X-H torsion
[  641  637  636  633 ] final   91.52 input  179.99 | X-H torsion
[ 1886 1878 1877 1875 ] final  106.75 input    1.60 | X-H torsion
[  965  957  956  954 ] final  -75.36 input    0.45 | X-H torsion

>  <Gold.Protein.ActiveResidues>  (58) 
 LYS47   THR48   LEU49   GLY50   THR51   GLY52   SER53   PHE54   GLY55   ARG56  
 VAL57   MET58   LEU59   TYR69   ALA70   MET71   LYS72   ILE73   LEU74   GLU91  
 LEU95   VAL104  LYS105  MET118  VAL119  MET120  GLU121  TYR122  VAL123  PRO124 
 GLY125  GLY126  GLU127  MET128  PHE129  TYR164  ASP166  LEU167  LYS168  PRO169 
 GLU170  ASN171  LEU172  LEU173  ILE174  GLN181  VAL182  THR183  ASP184  PHE185 
 GLY186  PHE187  GLY200  THR201  ASN326  PHE327  TYR330  ARG18   ARG19   ASN20  
 ALA21   ILE22   HIS23  

>  <Gold.Protein.RotatedAtoms>  (58) 
   10.3468   19.7565    8.8533 H   0  0  0  0  0  0  0  0  0  0  0  0  # atno 641  bound_to 637 
   16.6641   12.7354    6.0605 H   0  0  0  0  0  0  0  0  0  0  0  0  # atno 681  bound_to 677 
   20.9057   11.5737   -0.5577 H   0  0  0  0  0  0  0  0  0  0  0  0  # atno 702  bound_to 698 
   -6.4346   16.2698   -1.6082 H   0  0  0  0  0  0  0  0  0  0  0  0  # atno 965  bound_to 957 
    1.3518   12.2999   10.8722 H   0  0  0  0  0  0  0  0  0  0  0  0  # atno 1886 bound_to 1878
   10.3722    1.9240   -2.3913 H   0  0  0  0  0  0  0  0  0  0  0  0  # atno 2577 bound_to 2569
    7.1533    5.8928    1.5454 H   0  0  0  0  0  0  0  0  0  0  0  0  # atno 2891 bound_to 2887
   17.9983    1.9614   -0.8519 H   0  0  0  0  0  0  0  0  0  0  0  0  # atno 3175 bound_to 3171
   13.6028   10.2401    8.7472 H   0  0  0  0  0  0  0  0  0  0  0  0  # atno 5278 bound_to 5270
   15.6004   13.1607    7.1667 LP  0  0  0  0  0  0  0  0  0  0  0  0  # atno 5914 bound_to 677 
   17.0343   13.9324    7.0435 LP  0  0  0  0  0  0  0  0  0  0  0  0  # atno 5915 bound_to 677 
   20.3959   11.6763   -2.0633 LP  0  0  0  0  0  0  0  0  0  0  0  0  # atno 5920 bound_to 698 
   19.3558   11.8366   -0.8146 LP  0  0  0  0  0  0  0  0  0  0  0  0  # atno 5921 bound_to 698 
    9.2792    2.8462   -3.0913 LP  0  0  0  0  0  0  0  0  0  0  0  0  # atno 5950 bound_to 2569
   10.8703    3.1923   -3.2151 LP  0  0  0  0  0  0  0  0  0  0  0  0  # atno 5951 bound_to 2569
    8.0638    6.9429    0.7678 LP  0  0  0  0  0  0  0  0  0  0  0  0  # atno 5982 bound_to 2887
    8.0826    5.3601    0.3668 LP  0  0  0  0  0  0  0  0  0  0  0  0  # atno 5983 bound_to 2887
   19.2678    2.8919   -1.0933 LP  0  0  0  0  0  0  0  0  0  0  0  0  # atno 6000 bound_to 3171
   18.6789    2.6527    0.4109 LP  0  0  0  0  0  0  0  0  0  0  0  0  # atno 6001 bound_to 3171
   12.6784    9.9043   10.0001 LP  0  0  0  0  0  0  0  0  0  0  0  0  # atno 6004 bound_to 5270
   14.3060    9.8886   10.1324 LP  0  0  0  0  0  0  0  0  0  0  0  0  # atno 6005 bound_to 5270
    9.7259   19.1324    7.5266 LP  0  0  0  0  0  0  0  0  0  0  0  0  # atno 6055 bound_to 637 
   11.3417   19.1621    7.7616 LP  0  0  0  0  0  0  0  0  0  0  0  0  # atno 6056 bound_to 637 
    2.2264   11.0983   10.3006 LP  0  0  0  0  0  0  0  0  0  0  0  0  # atno 6063 bound_to 1878
    0.7359   10.8322   10.9123 LP  0  0  0  0  0  0  0  0  0  0  0  0  # atno 6064 bound_to 1878
   -7.0096   17.0848   -0.3671 LP  0  0  0  0  0  0  0  0  0  0  0  0  # atno 6067 bound_to 957 
   -7.0216   15.4519   -0.3748 LP  0  0  0  0  0  0  0  0  0  0  0  0  # atno 6068 bound_to 957 

>  <STRIFE_LigEff_Score>  (58) 
2.6249588235294117

$$$$
unknown|pharmsElabsTestPreDocking|sdf|59|dock5
     RDKit          3D

 18 19  0  0  0  0  0  0  0  0999 V2000
   14.3710    9.5079    1.2058 C   0  0  0  0  0  0  0  0  0  0  0  0
   13.6171    8.2551    1.6191 C   0  0  0  0  0  0  0  0  0  0  0  0
   13.9677    7.0542    0.8688 N   0  0  0  0  0  0  0  0  0  0  0  0
   12.1232    8.4324    2.0293 C   0  0  0  0  0  0  0  0  0  0  0  0
   11.4648    7.3045    2.8392 C   0  0  0  0  0  0  0  0  0  0  0  0
    9.9298    7.4399    2.8322 C   0  0  0  0  0  0  0  0  0  0  0  0
    9.4259    8.8699    2.6213 C   0  0  0  0  0  0  0  0  0  0  0  0
    7.9440    9.0335    2.7573 C   0  0  0  0  0  0  0  0  0  0  0  0
    7.3764    9.3169    1.6799 O   0  0  0  0  0  0  0  0  0  0  0  0
    7.1749    8.8903    3.9741 N   0  0  0  0  0  0  0  0  0  0  0  0
    5.7503    9.1824    4.0895 C   0  0  0  0  0  0  0  0  0  0  0  0
    5.2655    9.7966    5.2604 C   0  0  0  0  0  0  0  0  0  0  0  0
    3.9041   10.1030    5.3997 C   0  0  0  0  0  0  0  0  0  0  0  0
    3.0033    9.7940    4.3797 C   0  0  0  0  0  0  0  0  0  0  0  0
    3.4584    9.1899    3.2151 C   0  0  0  0  0  0  0  0  0  0  0  0
    4.8101    8.8993    3.0605 C   0  0  0  0  0  0  0  0  0  0  0  0
   10.3150   10.0622    2.9200 C   0  0  0  0  0  0  0  0  0  0  0  0
   11.8181    9.7937    2.6910 C   0  0  0  0  0  0  0  0  0  0  0  0
  1  2  1  0
  2  3  1  0
  2  4  1  0
  4  5  1  0
  5  6  1  0
  6  7  1  0
  7  8  1  0
  8  9  2  0
  8 10  1  0
 10 11  1  0
 11 12  2  0
 12 13  1  0
 13 14  2  0
 14 15  1  0
 15 16  2  0
  7 17  1  0
 17 18  1  0
 18  4  1  0
 16 11  1  0
M  CHG  1   3   1
M  END
>  <EmbedRMS>  (59) 
0.24964892458419108

>  <Gold.Version>  (59) 
2020.3.0

>  <Gold.Id.Protein>  (59) 
unknown|1q8t_protein|pdb

>  <Gold.PLP.Fitness>  (59) 
55.7829

>  <Gold.PLP.PLP>  (59) 
-47.7599

>  <Gold.PLP.part.hbond>  (59) 
-2.1496

>  <Gold.PLP.part.metal>  (59) 
0.0000

>  <Gold.PLP.part.buried>  (59) 
-0.9682

>  <Gold.PLP.part.nonpolar>  (59) 
-45.4364

>  <Gold.PLP.part.repulsive>  (59) 
0.0698

>  <Gold.PLP.ligand.clash>  (59) 
0.0000

>  <Gold.PLP.ligand.torsion>  (59) 
0.9565

>  <Gold.PLP.Chemscore.Hbond>  (59) 
3.0000

>  <Gold.PLP.Chemscore.CHOScore>  (59) 
0.0000

>  <Gold.PLP.Chemscore.Metal>  (59) 
0.0000

>  <Gold.Chemscore.Hbonds>  (59) 
donor molecule, donor type, donor heavy atom, donor atom, acceptor molecule, acceptor atom, score
      L1  H     3    24       P1  2902  2.00
      L1  H     3    25       P1  2691  1.00

>  <Gold.PLP.Chemscore.Internal.Correction>  (59) 
0.9360

>  <Gold.PLP.Constraint>  (59) 
-0.0000

>  <Gold.Protein.RotatedTorsions>  (59) 
[  681  677  676  673 ] final  101.71 input -179.99 | X-H torsion
[  702  698  697  694 ] final  155.33 input  179.99 | X-H torsion
[ 2577 2569 2568 2566 ] final  -49.41 input   -0.13 | X-H torsion
[ 2891 2887 2886 2883 ] final -152.77 input  179.98 | X-H torsion
[ 3175 3171 3170 3167 ] final  -33.64 input -179.99 | X-H torsion
[ 5278 5270 5269 5267 ] final  177.98 input    0.55 | X-H torsion
[  641  637  636  633 ] final   20.17 input  179.99 | X-H torsion
[ 1886 1878 1877 1875 ] final  -39.10 input    1.60 | X-H torsion
[  965  957  956  954 ] final   34.19 input    0.45 | X-H torsion

>  <Gold.Protein.ActiveResidues>  (59) 
 LYS47   THR48   LEU49   GLY50   THR51   GLY52   SER53   PHE54   GLY55   ARG56  
 VAL57   MET58   LEU59   TYR69   ALA70   MET71   LYS72   ILE73   LEU74   GLU91  
 LEU95   VAL104  LYS105  MET118  VAL119  MET120  GLU121  TYR122  VAL123  PRO124 
 GLY125  GLY126  GLU127  MET128  PHE129  TYR164  ASP166  LEU167  LYS168  PRO169 
 GLU170  ASN171  LEU172  LEU173  ILE174  GLN181  VAL182  THR183  ASP184  PHE185 
 GLY186  PHE187  GLY200  THR201  ASN326  PHE327  TYR330  ARG18   ARG19   ASN20  
 ALA21   ILE22   HIS23  

>  <Gold.Protein.RotatedAtoms>  (59) 
    9.5904   19.4630    8.1957 H   0  0  0  0  0  0  0  0  0  0  0  0  # atno 641  bound_to 637 
   17.1308   13.1567    6.1891 H   0  0  0  0  0  0  0  0  0  0  0  0  # atno 681  bound_to 677 
   20.7003   11.6359   -1.8966 H   0  0  0  0  0  0  0  0  0  0  0  0  # atno 702  bound_to 698 
   -6.9358   15.4247   -0.5245 H   0  0  0  0  0  0  0  0  0  0  0  0  # atno 965  bound_to 957 
    1.9573   10.7870   10.3472 H   0  0  0  0  0  0  0  0  0  0  0  0  # atno 1886 bound_to 1878
   10.5063    3.3306   -3.3582 H   0  0  0  0  0  0  0  0  0  0  0  0  # atno 2577 bound_to 2569
    7.2251    6.3421    1.5698 H   0  0  0  0  0  0  0  0  0  0  0  0  # atno 2891 bound_to 2887
   19.3449    2.9662   -0.7952 H   0  0  0  0  0  0  0  0  0  0  0  0  # atno 3175 bound_to 3171
   14.3876   10.0963    9.3637 H   0  0  0  0  0  0  0  0  0  0  0  0  # atno 5278 bound_to 5270
   15.6800   12.7097    6.6703 LP  0  0  0  0  0  0  0  0  0  0  0  0  # atno 5914 bound_to 677 
   16.4635   13.9400    7.4046 LP  0  0  0  0  0  0  0  0  0  0  0  0  # atno 5915 bound_to 677 
   19.3021   11.8529   -1.1650 LP  0  0  0  0  0  0  0  0  0  0  0  0  # atno 5920 bound_to 698 
   20.6657   11.5945   -0.3046 LP  0  0  0  0  0  0  0  0  0  0  0  0  # atno 5921 bound_to 698 
   10.7622    2.0584   -2.4356 LP  0  0  0  0  0  0  0  0  0  0  0  0  # atno 5950 bound_to 2569
    9.2461    2.4990   -2.8527 LP  0  0  0  0  0  0  0  0  0  0  0  0  # atno 5951 bound_to 2569
    8.2938    6.6809    0.4386 LP  0  0  0  0  0  0  0  0  0  0  0  0  # atno 5982 bound_to 2887
    7.7770    5.1493    0.6703 LP  0  0  0  0  0  0  0  0  0  0  0  0  # atno 5983 bound_to 2887
   18.4220    2.4610    0.4001 LP  0  0  0  0  0  0  0  0  0  0  0  0  # atno 6000 bound_to 3171
   18.1074    2.0260   -1.1421 LP  0  0  0  0  0  0  0  0  0  0  0  0  # atno 6001 bound_to 3171
   12.8423   10.1569    8.9828 LP  0  0  0  0  0  0  0  0  0  0  0  0  # atno 6004 bound_to 5270
   13.3163    9.7874   10.5011 LP  0  0  0  0  0  0  0  0  0  0  0  0  # atno 6005 bound_to 5270
   10.7793   18.9438    7.2726 LP  0  0  0  0  0  0  0  0  0  0  0  0  # atno 6055 bound_to 637 
   11.0849   19.6598    8.7081 LP  0  0  0  0  0  0  0  0  0  0  0  0  # atno 6056 bound_to 637 
    0.5867   11.2048   11.0416 LP  0  0  0  0  0  0  0  0  0  0  0  0  # atno 6063 bound_to 1878
    1.7381   12.3184   10.7240 LP  0  0  0  0  0  0  0  0  0  0  0  0  # atno 6064 bound_to 1878
   -6.4349   16.4410   -1.6431 LP  0  0  0  0  0  0  0  0  0  0  0  0  # atno 6067 bound_to 957 
   -7.0684   16.9857   -0.2400 LP  0  0  0  0  0  0  0  0  0  0  0  0  # atno 6068 bound_to 957 

>  <STRIFE_LigEff_Score>  (59) 
3.09905

$$$$
unknown|pharmsElabsTestPreDocking|sdf|60|dock1
     RDKit          3D

 17 17  0  0  0  0  0  0  0  0999 V2000
    3.3008    8.6360    2.2526 C   0  0  0  0  0  0  0  0  0  0  0  0
    4.6159    8.8596    2.1970 C   0  0  0  0  0  0  0  0  0  0  0  0
    5.4951    9.1586    3.3537 C   0  0  0  0  0  0  0  0  0  0  0  0
    4.9875    9.7940    4.4376 C   0  0  0  0  0  0  0  0  0  0  0  0
    5.8004   10.2048    5.6274 C   0  0  0  0  0  0  0  0  0  0  0  0
    6.9207    8.8981    3.2947 N   0  0  0  0  0  0  0  0  0  0  0  0
    7.9515    9.2555    2.3440 C   0  0  0  0  0  0  0  0  0  0  0  0
    7.6097    9.9983    1.3880 O   0  0  0  0  0  0  0  0  0  0  0  0
    9.4223    8.9394    2.3617 C   0  0  0  0  0  0  0  0  0  0  0  0
    9.7457    7.4812    2.6403 C   0  0  0  0  0  0  0  0  0  0  0  0
   11.1967    7.1214    2.3959 C   0  0  0  0  0  0  0  0  0  0  0  0
   12.2552    8.1863    2.7006 C   0  0  0  0  0  0  0  0  0  0  0  0
   13.5976    7.9230    1.9745 C   0  0  0  0  0  0  0  0  0  0  0  0
   14.5190    9.1110    1.6972 C   0  0  0  0  0  0  0  0  0  0  0  0
   13.4441    7.0556    0.8055 N   0  0  0  0  0  0  0  0  0  0  0  0
   11.8314    9.6640    2.5124 C   0  0  0  0  0  0  0  0  0  0  0  0
   10.3797   10.0097    2.8157 C   0  0  0  0  0  0  0  0  0  0  0  0
  1  2  2  0
  2  3  1  0
  3  4  2  0
  4  5  1  0
  3  6  1  0
  6  7  1  0
  7  8  2  0
  7  9  1  0
  9 10  1  0
 10 11  1  0
 11 12  1  0
 12 13  1  0
 13 14  1  0
 13 15  1  0
 12 16  1  0
 16 17  1  0
 17  9  1  0
M  CHG  1  15   1
M  END
>  <EmbedRMS>  (60) 
0.29216731409503444

>  <Gold.Version>  (60) 
2020.3.0

>  <Gold.Id.Protein>  (60) 
unknown|1q8t_protein|pdb

>  <Gold.PLP.Fitness>  (60) 
45.0370

>  <Gold.PLP.PLP>  (60) 
-39.2785

>  <Gold.PLP.part.hbond>  (60) 
-1.7489

>  <Gold.PLP.part.metal>  (60) 
0.0000

>  <Gold.PLP.part.buried>  (60) 
-2.1530

>  <Gold.PLP.part.nonpolar>  (60) 
-35.6240

>  <Gold.PLP.part.repulsive>  (60) 
0.0562

>  <Gold.PLP.ligand.clash>  (60) 
0.0000

>  <Gold.PLP.ligand.torsion>  (60) 
2.0502

>  <Gold.PLP.Chemscore.Hbond>  (60) 
2.9600

>  <Gold.PLP.Chemscore.CHOScore>  (60) 
0.0000

>  <Gold.PLP.Chemscore.Metal>  (60) 
0.0000

>  <Gold.Chemscore.Hbonds>  (60) 
donor molecule, donor type, donor heavy atom, donor atom, acceptor molecule, acceptor atom, score
      L1  H    15    36       P1  2902  2.00
      L1  H    15    37       P1  2691  0.96

>  <Gold.PLP.Chemscore.Internal.Correction>  (60) 
0.9790

>  <Gold.PLP.Constraint>  (60) 
-0.0000

>  <Gold.Protein.RotatedTorsions>  (60) 
[  681  677  676  673 ] final -145.33 input -179.99 | X-H torsion
[  702  698  697  694 ] final    8.62 input  179.99 | X-H torsion
[ 2577 2569 2568 2566 ] final  178.85 input   -0.13 | X-H torsion
[ 2891 2887 2886 2883 ] final   54.30 input  179.98 | X-H torsion
[ 3175 3171 3170 3167 ] final -122.48 input -179.99 | X-H torsion
[ 5278 5270 5269 5267 ] final  -12.13 input    0.55 | X-H torsion
[  641  637  636  633 ] final   66.21 input  179.99 | X-H torsion
[ 1886 1878 1877 1875 ] final -168.38 input    1.60 | X-H torsion
[  965  957  956  954 ] final  -18.11 input    0.45 | X-H torsion

>  <Gold.Protein.ActiveResidues>  (60) 
 LYS47   THR48   LEU49   GLY50   THR51   GLY52   SER53   PHE54   GLY55   ARG56  
 VAL57   MET58   LEU59   TYR69   ALA70   MET71   LYS72   ILE73   LEU74   GLU91  
 LEU95   VAL104  LYS105  MET118  VAL119  MET120  GLU121  TYR122  VAL123  PRO124 
 GLY125  GLY126  GLU127  MET128  PHE129  TYR164  ASP166  LEU167  LYS168  PRO169 
 GLU170  ASN171  LEU172  LEU173  ILE174  GLN181  VAL182  THR183  ASP184  PHE185 
 GLY186  PHE187  GLY200  THR201  ASN326  PHE327  TYR330  ARG18   ARG19   ASN20  
 ALA21   ILE22   HIS23  

>  <Gold.Protein.RotatedAtoms>  (60) 
    9.9797   19.7103    8.7226 H   0  0  0  0  0  0  0  0  0  0  0  0  # atno 641  bound_to 637 
   16.5559   13.9410    7.3228 H   0  0  0  0  0  0  0  0  0  0  0  0  # atno 681  bound_to 677 
   19.4310   11.8390   -0.7577 H   0  0  0  0  0  0  0  0  0  0  0  0  # atno 702  bound_to 698 
   -6.6104   15.5163   -1.2376 H   0  0  0  0  0  0  0  0  0  0  0  0  # atno 965  bound_to 957 
    0.6108   11.3598   11.0385 H   0  0  0  0  0  0  0  0  0  0  0  0  # atno 1886 bound_to 1878
   10.5797    1.9920   -2.4233 H   0  0  0  0  0  0  0  0  0  0  0  0  # atno 2577 bound_to 2569
    8.3426    6.1986    0.2411 H   0  0  0  0  0  0  0  0  0  0  0  0  # atno 2891 bound_to 2887
   18.8306    2.7318    0.3240 H   0  0  0  0  0  0  0  0  0  0  0  0  # atno 3175 bound_to 3171
   12.7317    9.9204   10.0069 H   0  0  0  0  0  0  0  0  0  0  0  0  # atno 5278 bound_to 5270
   17.1132   13.0537    6.1235 LP  0  0  0  0  0  0  0  0  0  0  0  0  # atno 5914 bound_to 677 
   15.6355   12.7705    6.7582 LP  0  0  0  0  0  0  0  0  0  0  0  0  # atno 5915 bound_to 677 
   20.9875   11.5430   -0.5933 LP  0  0  0  0  0  0  0  0  0  0  0  0  # atno 5920 bound_to 698 
   20.3155   11.6908   -2.0742 LP  0  0  0  0  0  0  0  0  0  0  0  0  # atno 5921 bound_to 698 
    9.2374    2.6570   -2.9630 LP  0  0  0  0  0  0  0  0  0  0  0  0  # atno 5950 bound_to 2569
   10.6935    3.3099   -3.3097 LP  0  0  0  0  0  0  0  0  0  0  0  0  # atno 5951 bound_to 2569
    7.4340    5.1933    1.0781 LP  0  0  0  0  0  0  0  0  0  0  0  0  # atno 5982 bound_to 2887
    7.4607    6.7879    1.4292 LP  0  0  0  0  0  0  0  0  0  0  0  0  # atno 5983 bound_to 2887
   17.8997    1.9314   -0.6900 LP  0  0  0  0  0  0  0  0  0  0  0  0  # atno 6000 bound_to 3171
   19.1711    2.8024   -1.2299 LP  0  0  0  0  0  0  0  0  0  0  0  0  # atno 6001 bound_to 3171
   14.3208    9.8941   10.1109 LP  0  0  0  0  0  0  0  0  0  0  0  0  # atno 6004 bound_to 5270
   13.5801   10.2353    8.6962 LP  0  0  0  0  0  0  0  0  0  0  0  0  # atno 6005 bound_to 5270
   10.0443   18.9988    7.2998 LP  0  0  0  0  0  0  0  0  0  0  0  0  # atno 6055 bound_to 637 
   11.4098   19.3444    8.1260 LP  0  0  0  0  0  0  0  0  0  0  0  0  # atno 6056 bound_to 637 
    1.8649   12.2645   10.6589 LP  0  0  0  0  0  0  0  0  0  0  0  0  # atno 6063 bound_to 1878
    1.8775   10.6557   10.3789 LP  0  0  0  0  0  0  0  0  0  0  0  0  # atno 6064 bound_to 1878
   -6.6353   17.1076   -1.1890 LP  0  0  0  0  0  0  0  0  0  0  0  0  # atno 6067 bound_to 957 
   -7.2108   16.2226    0.0569 LP  0  0  0  0  0  0  0  0  0  0  0  0  # atno 6068 bound_to 957 

>  <STRIFE_LigEff_Score>  (60) 
2.649235294117647

$$$$
unknown|pharmsElabsTestPreDocking|sdf|61|dock4
     RDKit          3D

 18 19  0  0  0  0  0  0  0  0999 V2000
   14.4292    9.4945    1.1085 C   0  0  0  0  0  0  0  0  0  0  0  0
   13.6641    8.2678    1.5758 C   0  0  0  0  0  0  0  0  0  0  0  0
   13.9880    7.0364    0.8639 N   0  0  0  0  0  0  0  0  0  0  0  0
   12.1785    8.4803    1.9993 C   0  0  0  0  0  0  0  0  0  0  0  0
   11.5110    7.3833    2.8433 C   0  0  0  0  0  0  0  0  0  0  0  0
    9.9786    7.5448    2.8512 C   0  0  0  0  0  0  0  0  0  0  0  0
    9.4964    8.9779    2.6125 C   0  0  0  0  0  0  0  0  0  0  0  0
    8.0193    9.1702    2.7620 C   0  0  0  0  0  0  0  0  0  0  0  0
    7.4614    9.5548    1.7113 O   0  0  0  0  0  0  0  0  0  0  0  0
    7.2446    8.9503    3.9637 N   0  0  0  0  0  0  0  0  0  0  0  0
    5.8282    9.2707    4.1031 C   0  0  0  0  0  0  0  0  0  0  0  0
    4.9587    9.0353    3.0207 C   0  0  0  0  0  0  0  0  0  0  0  0
    3.5894    9.3199    3.1245 C   0  0  0  0  0  0  0  0  0  0  0  0
    3.0667    9.8520    4.3039 C   0  0  0  0  0  0  0  0  0  0  0  0
    3.9046   10.0910    5.3852 C   0  0  0  0  0  0  0  0  0  0  0  0
    5.2609    9.7943    5.2977 C   0  0  0  0  0  0  0  0  0  0  0  0
   10.4092   10.1614    2.8724 C   0  0  0  0  0  0  0  0  0  0  0  0
   11.9046    9.8618    2.6321 C   0  0  0  0  0  0  0  0  0  0  0  0
  1  2  1  0
  2  3  1  0
  2  4  1  0
  4  5  1  0
  5  6  1  0
  6  7  1  0
  7  8  1  0
  8  9  2  0
  8 10  1  0
 10 11  1  0
 11 12  2  0
 12 13  1  0
 13 14  2  0
 14 15  1  0
 15 16  2  0
  7 17  1  0
 17 18  1  0
 18  4  1  0
 16 11  1  0
M  CHG  1   3   1
M  END
>  <EmbedRMS>  (61) 
0.24964892458419108

>  <Gold.Version>  (61) 
2020.3.0

>  <Gold.Id.Protein>  (61) 
unknown|1q8t_protein|pdb

>  <Gold.PLP.Fitness>  (61) 
55.8660

>  <Gold.PLP.PLP>  (61) 
-47.8758

>  <Gold.PLP.part.hbond>  (61) 
-2.0000

>  <Gold.PLP.part.metal>  (61) 
0.0000

>  <Gold.PLP.part.buried>  (61) 
-1.7869

>  <Gold.PLP.part.nonpolar>  (61) 
-44.6862

>  <Gold.PLP.part.repulsive>  (61) 
0.0719

>  <Gold.PLP.ligand.clash>  (61) 
0.0000

>  <Gold.PLP.ligand.torsion>  (61) 
0.9140

>  <Gold.PLP.Chemscore.Hbond>  (61) 
2.9600

>  <Gold.PLP.Chemscore.CHOScore>  (61) 
0.0000

>  <Gold.PLP.Chemscore.Metal>  (61) 
0.0000

>  <Gold.Chemscore.Hbonds>  (61) 
donor molecule, donor type, donor heavy atom, donor atom, acceptor molecule, acceptor atom, score
      L1  H     3    23       P1  2902  1.98
      L1  H     3    24       P1  2691  0.98

>  <Gold.PLP.Chemscore.Internal.Correction>  (61) 
0.9382

>  <Gold.PLP.Constraint>  (61) 
-0.0000

>  <Gold.Protein.RotatedTorsions>  (61) 
[  681  677  676  673 ] final  -11.08 input -179.99 | X-H torsion
[  702  698  697  694 ] final  -84.43 input  179.99 | X-H torsion
[ 2577 2569 2568 2566 ] final  139.65 input   -0.13 | X-H torsion
[ 2891 2887 2886 2883 ] final   27.28 input  179.98 | X-H torsion
[ 3175 3171 3170 3167 ] final -128.69 input -179.99 | X-H torsion
[ 5278 5270 5269 5267 ] final  -58.89 input    0.55 | X-H torsion
[  641  637  636  633 ] final   13.33 input  179.99 | X-H torsion
[ 1886 1878 1877 1875 ] final  -83.42 input    1.60 | X-H torsion
[  965  957  956  954 ] final  -32.99 input    0.45 | X-H torsion

>  <Gold.Protein.ActiveResidues>  (61) 
 LYS47   THR48   LEU49   GLY50   THR51   GLY52   SER53   PHE54   GLY55   ARG56  
 VAL57   MET58   LEU59   TYR69   ALA70   MET71   LYS72   ILE73   LEU74   GLU91  
 LEU95   VAL104  LYS105  MET118  VAL119  MET120  GLU121  TYR122  VAL123  PRO124 
 GLY125  GLY126  GLU127  MET128  PHE129  TYR164  ASP166  LEU167  LYS168  PRO169 
 GLU170  ASN171  LEU172  LEU173  ILE174  GLN181  VAL182  THR183  ASP184  PHE185 
 GLY186  PHE187  GLY200  THR201  ASN326  PHE327  TYR330  ARG18   ARG19   ASN20  
 ALA21   ILE22   HIS23  

>  <Gold.Protein.RotatedAtoms>  (61) 
    9.5767   19.4155    8.1011 H   0  0  0  0  0  0  0  0  0  0  0  0  # atno 641  bound_to 637 
   15.7659   12.6971    6.5790 H   0  0  0  0  0  0  0  0  0  0  0  0  # atno 681  bound_to 677 
   20.6437   11.6160   -0.3435 H   0  0  0  0  0  0  0  0  0  0  0  0  # atno 702  bound_to 698 
   -6.5359   15.6662   -1.3982 H   0  0  0  0  0  0  0  0  0  0  0  0  # atno 965  bound_to 957 
    1.3667   10.5425   10.5659 H   0  0  0  0  0  0  0  0  0  0  0  0  # atno 1886 bound_to 1878
    9.9847    1.9105   -2.4103 H   0  0  0  0  0  0  0  0  0  0  0  0  # atno 2577 bound_to 2569
    8.2711    5.7866    0.2252 H   0  0  0  0  0  0  0  0  0  0  0  0  # atno 2891 bound_to 2887
   18.7540    2.6787    0.3511 H   0  0  0  0  0  0  0  0  0  0  0  0  # atno 3175 bound_to 3171
   13.2794    9.8171   10.4487 H   0  0  0  0  0  0  0  0  0  0  0  0  # atno 5278 bound_to 5270
   16.3550   13.9034    7.4356 LP  0  0  0  0  0  0  0  0  0  0  0  0  # atno 5914 bound_to 677 
   17.2252   13.2301    6.2290 LP  0  0  0  0  0  0  0  0  0  0  0  0  # atno 5915 bound_to 677 
   20.7251   11.6154   -1.9343 LP  0  0  0  0  0  0  0  0  0  0  0  0  # atno 5920 bound_to 698 
   19.3022   11.8529   -1.1690 LP  0  0  0  0  0  0  0  0  0  0  0  0  # atno 5921 bound_to 698 
    9.4830    3.1441   -3.2832 LP  0  0  0  0  0  0  0  0  0  0  0  0  # atno 5950 bound_to 2569
   11.0745    2.9086   -3.0031 LP  0  0  0  0  0  0  0  0  0  0  0  0  # atno 5951 bound_to 2569
    7.2270    5.4414    1.3773 LP  0  0  0  0  0  0  0  0  0  0  0  0  # atno 5982 bound_to 2887
    7.7430    6.9734    1.1467 LP  0  0  0  0  0  0  0  0  0  0  0  0  # atno 5983 bound_to 2887
   17.9253    1.9374   -0.7887 LP  0  0  0  0  0  0  0  0  0  0  0  0  # atno 6000 bound_to 3171
   19.2260    2.8523   -1.1597 LP  0  0  0  0  0  0  0  0  0  0  0  0  # atno 6001 bound_to 3171
   14.4461   10.0720    9.3949 LP  0  0  0  0  0  0  0  0  0  0  0  0  # atno 6004 bound_to 5270
   12.8785   10.1660    8.9473 LP  0  0  0  0  0  0  0  0  0  0  0  0  # atno 6005 bound_to 5270
   10.8828   18.9589    7.3135 LP  0  0  0  0  0  0  0  0  0  0  0  0  # atno 6055 bound_to 637 
   10.9957   19.6947    8.7669 LP  0  0  0  0  0  0  0  0  0  0  0  0  # atno 6056 bound_to 637 
    0.7268   11.8998   11.0984 LP  0  0  0  0  0  0  0  0  0  0  0  0  # atno 6063 bound_to 1878
    2.2197   11.8808   10.4370 LP  0  0  0  0  0  0  0  0  0  0  0  0  # atno 6064 bound_to 1878
   -6.7299   17.1901   -0.9795 LP  0  0  0  0  0  0  0  0  0  0  0  0  # atno 6067 bound_to 957 
   -7.1946   15.9823    0.0165 LP  0  0  0  0  0  0  0  0  0  0  0  0  # atno 6068 bound_to 957 

>  <STRIFE_LigEff_Score>  (61) 
3.103666666666667

$$$$
unknown|pharmsElabsTestPreDocking|sdf|62|dock2
     RDKit          3D

 17 18  0  0  0  0  0  0  0  0999 V2000
   14.5093    7.9339    2.8877 C   0  0  0  0  0  0  0  0  0  0  0  0
   13.1256    7.8674    2.2430 C   0  0  0  0  0  0  0  0  0  0  0  0
   12.9877    8.8109    1.1317 N   0  0  0  0  0  0  0  0  0  0  0  0
   11.8823    7.8532    3.1658 C   0  0  0  0  0  0  0  0  0  0  0  0
   10.6870    7.0896    2.5773 C   0  0  0  0  0  0  0  0  0  0  0  0
    9.3260    7.3990    3.1773 C   0  0  0  0  0  0  0  0  0  0  0  0
    9.1333    8.8686    3.4542 C   0  0  0  0  0  0  0  0  0  0  0  0
    7.7093    9.2564    3.7207 C   0  0  0  0  0  0  0  0  0  0  0  0
    7.5591    9.9385    4.7594 O   0  0  0  0  0  0  0  0  0  0  0  0
    6.5615    8.9179    2.9126 N   0  0  0  0  0  0  0  0  0  0  0  0
    5.2054    9.2389    3.3153 C   0  0  0  0  0  0  0  0  0  0  0  0
    4.7533    9.6144    4.5794 C   0  0  0  0  0  0  0  0  0  0  0  0
    3.3944    9.7966    4.4632 C   0  0  0  0  0  0  0  0  0  0  0  0
    2.9996    9.5489    3.2018 N   0  0  0  0  0  0  0  0  0  0  0  0
    4.0943    9.2076    2.4943 C   0  0  0  0  0  0  0  0  0  0  0  0
   10.2012    9.5494    4.2611 C   0  0  0  0  0  0  0  0  0  0  0  0
   11.5992    9.2797    3.7081 C   0  0  0  0  0  0  0  0  0  0  0  0
  1  2  1  0
  2  3  1  0
  2  4  1  0
  4  5  1  0
  5  6  1  0
  6  7  1  0
  7  8  1  0
  8  9  2  0
  8 10  1  0
 10 11  1  0
 11 12  1  0
 12 13  2  0
 13 14  1  0
 14 15  1  0
  7 16  1  0
 16 17  1  0
 17  4  1  0
 15 11  2  0
M  CHG  1   3   1
M  END
>  <EmbedRMS>  (62) 
0.3005329260886256

>  <Gold.Version>  (62) 
2020.3.0

>  <Gold.Id.Protein>  (62) 
unknown|1q8t_protein|pdb

>  <Gold.PLP.Fitness>  (62) 
50.5049

>  <Gold.PLP.PLP>  (62) 
-42.0780

>  <Gold.PLP.part.hbond>  (62) 
-2.0000

>  <Gold.PLP.part.metal>  (62) 
0.0000

>  <Gold.PLP.part.buried>  (62) 
-4.5716

>  <Gold.PLP.part.nonpolar>  (62) 
-35.5482

>  <Gold.PLP.part.repulsive>  (62) 
0.1736

>  <Gold.PLP.ligand.clash>  (62) 
0.0000

>  <Gold.PLP.ligand.torsion>  (62) 
0.5968

>  <Gold.PLP.Chemscore.Hbond>  (62) 
3.0000

>  <Gold.PLP.Chemscore.CHOScore>  (62) 
0.0000

>  <Gold.PLP.Chemscore.Metal>  (62) 
0.0000

>  <Gold.Chemscore.Hbonds>  (62) 
donor molecule, donor type, donor heavy atom, donor atom, acceptor molecule, acceptor atom, score
      L1  H     3    23       P1  2902  2.00
      L1  H    14    34       P1  1855  1.00

>  <Gold.PLP.Chemscore.Internal.Correction>  (62) 
0.6206

>  <Gold.PLP.Constraint>  (62) 
-0.0000

>  <Gold.Protein.RotatedTorsions>  (62) 
[  681  677  676  673 ] final -136.08 input -179.99 | X-H torsion
[  702  698  697  694 ] final -169.03 input  179.99 | X-H torsion
[ 2577 2569 2568 2566 ] final   84.57 input   -0.13 | X-H torsion
[ 2891 2887 2886 2883 ] final -112.24 input  179.98 | X-H torsion
[ 3175 3171 3170 3167 ] final -146.09 input -179.99 | X-H torsion
[ 5278 5270 5269 5267 ] final  102.93 input    0.55 | X-H torsion
[  641  637  636  633 ] final   53.19 input  179.99 | X-H torsion
[ 1886 1878 1877 1875 ] final  152.56 input    1.60 | X-H torsion
[  965  957  956  954 ] final  102.12 input    0.45 | X-H torsion

>  <Gold.Protein.ActiveResidues>  (62) 
 LYS47   THR48   LEU49   GLY50   THR51   GLY52   SER53   PHE54   GLY55   ARG56  
 VAL57   MET58   LEU59   TYR69   ALA70   MET71   LYS72   ILE73   LEU74   GLU91  
 LEU95   VAL104  LYS105  MET118  VAL119  MET120  GLU121  TYR122  VAL123  PRO124 
 GLY125  GLY126  GLU127  MET128  PHE129  TYR164  ASP166  LEU167  LYS168  PRO169 
 GLU170  ASN171  LEU172  LEU173  ILE174  GLN181  VAL182  THR183  ASP184  PHE185 
 GLY186  PHE187  GLY200  THR201  ASN326  PHE327  TYR330  ARG18   ARG19   ASN20  
 ALA21   ILE22   HIS23  

>  <Gold.Protein.RotatedAtoms>  (62) 
    9.8236   19.6583    8.6037 H   0  0  0  0  0  0  0  0  0  0  0  0  # atno 641  bound_to 637 
   16.4239   13.9074    7.3712 H   0  0  0  0  0  0  0  0  0  0  0  0  # atno 681  bound_to 677 
   21.0488   11.5661   -1.4788 H   0  0  0  0  0  0  0  0  0  0  0  0  # atno 702  bound_to 698 
   -7.1763   16.2284    0.0207 H   0  0  0  0  0  0  0  0  0  0  0  0  # atno 965  bound_to 957 
    0.7900   11.9309   11.0569 H   0  0  0  0  0  0  0  0  0  0  0  0  # atno 1886 bound_to 1878
    9.3518    2.3262   -2.7454 H   0  0  0  0  0  0  0  0  0  0  0  0  # atno 2577 bound_to 2569
    7.1663    5.7293    1.4911 H   0  0  0  0  0  0  0  0  0  0  0  0  # atno 2891 bound_to 2887
   18.5357    2.5198    0.3723 H   0  0  0  0  0  0  0  0  0  0  0  0  # atno 3175 bound_to 3171
   13.5001   10.2397    8.7446 H   0  0  0  0  0  0  0  0  0  0  0  0  # atno 5278 bound_to 5270
   17.1911   13.1674    6.1879 LP  0  0  0  0  0  0  0  0  0  0  0  0  # atno 5914 bound_to 677 
   15.6964   12.6923    6.6428 LP  0  0  0  0  0  0  0  0  0  0  0  0  # atno 5915 bound_to 677 
   19.4947   11.8292   -1.7084 LP  0  0  0  0  0  0  0  0  0  0  0  0  # atno 5920 bound_to 698 
   20.1065   11.6916   -0.2006 LP  0  0  0  0  0  0  0  0  0  0  0  0  # atno 5921 bound_to 698 
   10.3009    3.4167   -3.4126 LP  0  0  0  0  0  0  0  0  0  0  0  0  # atno 5950 bound_to 2569
   10.9229    2.1982   -2.5210 LP  0  0  0  0  0  0  0  0  0  0  0  0  # atno 5951 bound_to 2569
    7.9531    6.9843    0.9059 LP  0  0  0  0  0  0  0  0  0  0  0  0  # atno 5982 bound_to 2887
    8.1796    5.4908    0.2858 LP  0  0  0  0  0  0  0  0  0  0  0  0  # atno 5983 bound_to 2887
   18.0399    1.9888   -1.0447 LP  0  0  0  0  0  0  0  0  0  0  0  0  # atno 6000 bound_to 3171
   19.3412    2.9681   -0.9261 LP  0  0  0  0  0  0  0  0  0  0  0  0  # atno 6001 bound_to 3171
   12.7302    9.8821   10.0923 LP  0  0  0  0  0  0  0  0  0  0  0  0  # atno 6004 bound_to 5270
   14.3622    9.9113   10.0430 LP  0  0  0  0  0  0  0  0  0  0  0  0  # atno 6005 bound_to 5270
   10.2446   18.9561    7.2382 LP  0  0  0  0  0  0  0  0  0  0  0  0  # atno 6055 bound_to 637 
   11.3740   19.4418    8.3130 LP  0  0  0  0  0  0  0  0  0  0  0  0  # atno 6056 bound_to 637 
    2.2438   11.8228   10.4165 LP  0  0  0  0  0  0  0  0  0  0  0  0  # atno 6063 bound_to 1878
    1.3098   10.4962   10.6020 LP  0  0  0  0  0  0  0  0  0  0  0  0  # atno 6064 bound_to 1878
   -6.6162   15.4745   -1.2650 LP  0  0  0  0  0  0  0  0  0  0  0  0  # atno 6067 bound_to 957 
   -6.6338   17.1058   -1.1923 LP  0  0  0  0  0  0  0  0  0  0  0  0  # atno 6068 bound_to 957 

>  <STRIFE_LigEff_Score>  (62) 
2.970876470588235

$$$$
unknown|pharmsElabsTestPreDocking|sdf|63|dock5
     RDKit          3D

 17 17  0  0  0  0  0  0  0  0999 V2000
    5.8259   10.1279    5.6791 C   0  0  0  0  0  0  0  0  0  0  0  0
    5.0851    9.8298    4.6040 C   0  0  0  0  0  0  0  0  0  0  0  0
    3.5940   10.0910    4.6999 C   0  0  0  0  0  0  0  0  0  0  0  0
    5.6912    9.2734    3.3396 C   0  0  0  0  0  0  0  0  0  0  0  0
    4.8748    9.1405    2.2685 C   0  0  0  0  0  0  0  0  0  0  0  0
    7.1190    8.9391    3.2691 N   0  0  0  0  0  0  0  0  0  0  0  0
    8.0431    9.4051    2.2576 C   0  0  0  0  0  0  0  0  0  0  0  0
    7.6344   10.0650    1.2789 O   0  0  0  0  0  0  0  0  0  0  0  0
    9.5218    9.1574    2.2292 C   0  0  0  0  0  0  0  0  0  0  0  0
    9.8846    7.7254    1.8663 C   0  0  0  0  0  0  0  0  0  0  0  0
   11.3585    7.3899    2.0548 C   0  0  0  0  0  0  0  0  0  0  0  0
   12.2896    8.6088    1.9236 C   0  0  0  0  0  0  0  0  0  0  0  0
   13.7752    8.1282    2.0218 C   0  0  0  0  0  0  0  0  0  0  0  0
   14.0718    7.5798    3.4294 C   0  0  0  0  0  0  0  0  0  0  0  0
   14.1002    7.0997    1.0242 N   0  0  0  0  0  0  0  0  0  0  0  0
   11.9188    9.6487    3.0129 C   0  0  0  0  0  0  0  0  0  0  0  0
   10.4178   10.0020    3.1119 C   0  0  0  0  0  0  0  0  0  0  0  0
  1  2  2  0
  2  3  1  0
  2  4  1  0
  4  5  2  0
  4  6  1  0
  6  7  1  0
  7  8  2  0
  7  9  1  0
  9 10  1  0
 10 11  1  0
 11 12  1  0
 12 13  1  0
 13 14  1  0
 13 15  1  0
 12 16  1  0
 16 17  1  0
 17  9  1  0
M  CHG  1  15   1
M  END
>  <EmbedRMS>  (63) 
0.18263911859618057

>  <Gold.Version>  (63) 
2020.3.0

>  <Gold.Id.Protein>  (63) 
unknown|1q8t_protein|pdb

>  <Gold.PLP.Fitness>  (63) 
49.9983

>  <Gold.PLP.PLP>  (63) 
-42.0949

>  <Gold.PLP.part.hbond>  (63) 
-2.0000

>  <Gold.PLP.part.metal>  (63) 
0.0000

>  <Gold.PLP.part.buried>  (63) 
-2.3888

>  <Gold.PLP.part.nonpolar>  (63) 
-37.6580

>  <Gold.PLP.part.repulsive>  (63) 
0.0647

>  <Gold.PLP.ligand.clash>  (63) 
0.0000

>  <Gold.PLP.ligand.torsion>  (63) 
0.9104

>  <Gold.PLP.Chemscore.Hbond>  (63) 
3.0000

>  <Gold.PLP.Chemscore.CHOScore>  (63) 
0.0000

>  <Gold.PLP.Chemscore.Metal>  (63) 
0.0000

>  <Gold.Chemscore.Hbonds>  (63) 
donor molecule, donor type, donor heavy atom, donor atom, acceptor molecule, acceptor atom, score
      L1  H    15    36       P1  2691  1.00
      L1  H    15    37       P1  2902  2.00

>  <Gold.PLP.Chemscore.Internal.Correction>  (63) 
0.7242

>  <Gold.PLP.Constraint>  (63) 
-0.0000

>  <Gold.Protein.RotatedTorsions>  (63) 
[  681  677  676  673 ] final  -49.52 input -179.99 | X-H torsion
[  702  698  697  694 ] final  -85.22 input  179.99 | X-H torsion
[ 2577 2569 2568 2566 ] final  -27.86 input   -0.13 | X-H torsion
[ 2891 2887 2886 2883 ] final   21.86 input  179.98 | X-H torsion
[ 3175 3171 3170 3167 ] final  -67.26 input -179.99 | X-H torsion
[ 5278 5270 5269 5267 ] final  -66.22 input    0.55 | X-H torsion
[  641  637  636  633 ] final  158.87 input  179.99 | X-H torsion
[ 1886 1878 1877 1875 ] final  -19.41 input    1.60 | X-H torsion
[  965  957  956  954 ] final -175.74 input    0.45 | X-H torsion

>  <Gold.Protein.ActiveResidues>  (63) 
 LYS47   THR48   LEU49   GLY50   THR51   GLY52   SER53   PHE54   GLY55   ARG56  
 VAL57   MET58   LEU59   TYR69   ALA70   MET71   LYS72   ILE73   LEU74   GLU91  
 LEU95   VAL104  LYS105  MET118  VAL119  MET120  GLU121  TYR122  VAL123  PRO124 
 GLY125  GLY126  GLU127  MET128  PHE129  TYR164  ASP166  LEU167  LYS168  PRO169 
 GLU170  ASN171  LEU172  LEU173  ILE174  GLN181  VAL182  THR183  ASP184  PHE185 
 GLY186  PHE187  GLY200  THR201  ASN326  PHE327  TYR330  ARG18   ARG19   ASN20  
 ALA21   ILE22   HIS23  

>  <Gold.Protein.RotatedAtoms>  (63) 
   11.2393   19.5202    8.4882 H   0  0  0  0  0  0  0  0  0  0  0  0  # atno 641  bound_to 637 
   15.6136   13.0518    7.0249 H   0  0  0  0  0  0  0  0  0  0  0  0  # atno 681  bound_to 677 
   20.6546   11.6142   -0.3494 H   0  0  0  0  0  0  0  0  0  0  0  0  # atno 702  bound_to 698 
   -6.8657   17.1492   -0.6424 H   0  0  0  0  0  0  0  0  0  0  0  0  # atno 965  bound_to 957 
    2.1394   11.0302   10.3084 H   0  0  0  0  0  0  0  0  0  0  0  0  # atno 1886 bound_to 1878
   10.1779    3.3708   -3.4101 H   0  0  0  0  0  0  0  0  0  0  0  0  # atno 2577 bound_to 2569
    8.2419    5.7084    0.2402 H   0  0  0  0  0  0  0  0  0  0  0  0  # atno 2891 bound_to 2887
   19.3232    3.0176   -0.2801 H   0  0  0  0  0  0  0  0  0  0  0  0  # atno 3175 bound_to 3171
   13.3912    9.8122   10.4733 H   0  0  0  0  0  0  0  0  0  0  0  0  # atno 5278 bound_to 5270
   16.9072   13.9707    7.1602 LP  0  0  0  0  0  0  0  0  0  0  0  0  # atno 5914 bound_to 677 
   16.8332   12.7895    6.0350 LP  0  0  0  0  0  0  0  0  0  0  0  0  # atno 5915 bound_to 677 
   20.7141   11.6175   -1.9412 LP  0  0  0  0  0  0  0  0  0  0  0  0  # atno 5920 bound_to 698 
   19.3018   11.8527   -1.1559 LP  0  0  0  0  0  0  0  0  0  0  0  0  # atno 5921 bound_to 698 
   10.9920    2.2856   -2.5766 LP  0  0  0  0  0  0  0  0  0  0  0  0  # atno 5950 bound_to 2569
    9.3620    2.2295   -2.6571 LP  0  0  0  0  0  0  0  0  0  0  0  0  # atno 5951 bound_to 2569
    7.1984    5.5099    1.4269 LP  0  0  0  0  0  0  0  0  0  0  0  0  # atno 5982 bound_to 2887
    7.8022    6.9873    1.0814 LP  0  0  0  0  0  0  0  0  0  0  0  0  # atno 5983 bound_to 2887
   18.0533    2.1540    0.1410 LP  0  0  0  0  0  0  0  0  0  0  0  0  # atno 6000 bound_to 3171
   18.4990    2.2790   -1.4251 LP  0  0  0  0  0  0  0  0  0  0  0  0  # atno 6001 bound_to 3171
   14.4101   10.0992    9.2832 LP  0  0  0  0  0  0  0  0  0  0  0  0  # atno 6004 bound_to 5270
   12.7969   10.1440    9.0333 LP  0  0  0  0  0  0  0  0  0  0  0  0  # atno 6005 bound_to 5270
    9.6500   19.6099    8.4536 LP  0  0  0  0  0  0  0  0  0  0  0  0  # atno 6055 bound_to 637 
   10.4776   18.9334    7.2191 LP  0  0  0  0  0  0  0  0  0  0  0  0  # atno 6056 bound_to 637 
    0.6860   10.9126   10.9481 LP  0  0  0  0  0  0  0  0  0  0  0  0  # atno 6063 bound_to 1878
    1.4472   12.3545   10.8584 LP  0  0  0  0  0  0  0  0  0  0  0  0  # atno 6064 bound_to 1878
   -7.1223   15.6572   -0.1492 LP  0  0  0  0  0  0  0  0  0  0  0  0  # atno 6067 bound_to 957 
   -6.4548   15.9533   -1.6098 LP  0  0  0  0  0  0  0  0  0  0  0  0  # atno 6068 bound_to 957 

>  <STRIFE_LigEff_Score>  (63) 
2.9410764705882353

$$$$
unknown|pharmsElabsTestPreDocking|sdf|64|dock10
     RDKit          3D

 19 20  0  0  0  0  0  0  0  0999 V2000
   13.7949    6.6133    3.5193 C   0  0  0  0  0  0  0  0  0  0  0  0
   13.7423    7.7371    2.4655 C   0  0  0  0  0  0  0  0  0  0  0  0
   14.1027    7.1838    1.1536 N   0  0  0  0  0  0  0  0  0  0  0  0
   12.3322    8.3983    2.4575 C   0  0  0  0  0  0  0  0  0  0  0  0
   11.2644    7.3565    2.0645 C   0  0  0  0  0  0  0  0  0  0  0  0
    9.9092    8.0299    1.8981 C   0  0  0  0  0  0  0  0  0  0  0  0
    9.4861    8.6976    3.2099 C   0  0  0  0  0  0  0  0  0  0  0  0
    8.1409    9.3455    3.0539 C   0  0  0  0  0  0  0  0  0  0  0  0
    7.8942   10.4569    3.6013 O   0  0  0  0  0  0  0  0  0  0  0  0
    7.1396    8.6845    2.2801 N   0  0  0  0  0  0  0  0  0  0  0  0
    5.8324    9.2825    2.0472 C   0  0  0  0  0  0  0  0  0  0  0  0
    5.0198    9.2200    3.3014 C   0  0  0  0  0  0  0  0  0  0  0  0
    5.4122    9.6898    4.5364 C   0  0  0  0  0  0  0  0  0  0  0  0
    4.3047    9.5003    5.3412 C   0  0  0  0  0  0  0  0  0  0  0  0
    3.3000    8.9667    4.6168 N   0  0  0  0  0  0  0  0  0  0  0  0
    3.7385    8.8113    3.3785 N   0  0  0  0  0  0  0  0  0  0  0  0
    2.9255    8.2773    2.2918 C   0  0  0  0  0  0  0  0  0  0  0  0
   10.5389    9.7093    3.6932 C   0  0  0  0  0  0  0  0  0  0  0  0
   11.9268    9.0548    3.8006 C   0  0  0  0  0  0  0  0  0  0  0  0
  1  2  1  0
  2  3  1  0
  2  4  1  0
  4  5  1  0
  5  6  1  0
  6  7  1  0
  7  8  1  0
  8  9  2  0
  8 10  1  0
 10 11  1  0
 11 12  1  0
 12 13  2  0
 13 14  1  0
 14 15  2  0
 15 16  1  0
 16 17  1  0
  7 18  1  0
 18 19  1  0
 19  4  1  0
 16 12  1  0
M  CHG  1   3   1
M  END
>  <EmbedRMS>  (64) 
0.027804703519808214

>  <Gold.Version>  (64) 
2020.3.0

>  <Gold.Id.Protein>  (64) 
unknown|1q8t_protein|pdb

>  <Gold.PLP.Fitness>  (64) 
58.5770

>  <Gold.PLP.PLP>  (64) 
-45.2819

>  <Gold.PLP.part.hbond>  (64) 
-4.0000

>  <Gold.PLP.part.metal>  (64) 
0.0000

>  <Gold.PLP.part.buried>  (64) 
-3.2863

>  <Gold.PLP.part.nonpolar>  (64) 
-38.7923

>  <Gold.PLP.part.repulsive>  (64) 
0.1871

>  <Gold.PLP.ligand.clash>  (64) 
0.0000

>  <Gold.PLP.ligand.torsion>  (64) 
0.7137

>  <Gold.PLP.Chemscore.Hbond>  (64) 
4.8892

>  <Gold.PLP.Chemscore.CHOScore>  (64) 
0.0000

>  <Gold.PLP.Chemscore.Metal>  (64) 
0.0000

>  <Gold.Chemscore.Hbonds>  (64) 
donor molecule, donor type, donor heavy atom, donor atom, acceptor molecule, acceptor atom, score
      L1  H     3    25       P1  2902  2.00
      L1  H     3    26       P1  2691  1.00
      L1  H    10    33       P1  2887  1.00
      P1  H  1888  1903       L1    15  0.89

>  <Gold.PLP.Chemscore.Internal.Correction>  (64) 
0.0549

>  <Gold.PLP.Constraint>  (64) 
-0.0000

>  <Gold.Protein.RotatedTorsions>  (64) 
[  681  677  676  673 ] final -106.29 input -179.99 | X-H torsion
[  702  698  697  694 ] final    3.71 input  179.99 | X-H torsion
[ 2577 2569 2568 2566 ] final -122.28 input   -0.13 | X-H torsion
[ 2891 2887 2886 2883 ] final  -20.39 input  179.98 | X-H torsion
[ 3175 3171 3170 3167 ] final  177.42 input -179.99 | X-H torsion
[ 5278 5270 5269 5267 ] final  134.72 input    0.55 | X-H torsion
[  641  637  636  633 ] final -162.40 input  179.99 | X-H torsion
[ 1886 1878 1877 1875 ] final   75.97 input    1.60 | X-H torsion
[  965  957  956  954 ] final -115.08 input    0.45 | X-H torsion

>  <Gold.Protein.ActiveResidues>  (64) 
 LYS47   THR48   LEU49   GLY50   THR51   GLY52   SER53   PHE54   GLY55   ARG56  
 VAL57   MET58   LEU59   TYR69   ALA70   MET71   LYS72   ILE73   LEU74   GLU91  
 LEU95   VAL104  LYS105  MET118  VAL119  MET120  GLU121  TYR122  VAL123  PRO124 
 GLY125  GLY126  GLU127  MET128  PHE129  TYR164  ASP166  LEU167  LYS168  PRO169 
 GLU170  ASN171  LEU172  LEU173  ILE174  GLN181  VAL182  THR183  ASP184  PHE185 
 GLY186  PHE187  GLY200  THR201  ASN326  PHE327  TYR330  ARG18   ARG19   ASN20  
 ALA21   ILE22   HIS23  

>  <Gold.Protein.RotatedAtoms>  (64) 
   11.3537   19.2503    7.9720 H   0  0  0  0  0  0  0  0  0  0  0  0  # atno 641  bound_to 637 
   16.0177   13.6942    7.4115 H   0  0  0  0  0  0  0  0  0  0  0  0  # atno 681  bound_to 677 
   19.4656   11.8315   -0.6895 H   0  0  0  0  0  0  0  0  0  0  0  0  # atno 702  bound_to 698 
   -6.5159   16.8417   -1.4174 H   0  0  0  0  0  0  0  0  0  0  0  0  # atno 965  bound_to 957 
    1.7814   12.2517   10.6746 H   0  0  0  0  0  0  0  0  0  0  0  0  # atno 1886 bound_to 1878
   11.0692    2.6092   -2.8160 H   0  0  0  0  0  0  0  0  0  0  0  0  # atno 2577 bound_to 2569
    7.8909    5.2558    0.5384 H   0  0  0  0  0  0  0  0  0  0  0  0  # atno 2891 bound_to 2887
   18.1325    2.1932    0.1595 H   0  0  0  0  0  0  0  0  0  0  0  0  # atno 3175 bound_to 3171
   13.9764   10.2160    8.8609 H   0  0  0  0  0  0  0  0  0  0  0  0  # atno 5278 bound_to 5270
   17.3022   13.5350    6.4836 LP  0  0  0  0  0  0  0  0  0  0  0  0  # atno 5914 bound_to 677 
   16.0129   12.5490    6.3048 LP  0  0  0  0  0  0  0  0  0  0  0  0  # atno 5915 bound_to 677 
   21.0307   11.5367   -0.6614 LP  0  0  0  0  0  0  0  0  0  0  0  0  # atno 5920 bound_to 698 
   20.2359   11.7049   -2.0780 LP  0  0  0  0  0  0  0  0  0  0  0  0  # atno 5921 bound_to 698 
    9.6451    1.9876   -2.4684 LP  0  0  0  0  0  0  0  0  0  0  0  0  # atno 5950 bound_to 2569
    9.7705    3.3293   -3.3908 LP  0  0  0  0  0  0  0  0  0  0  0  0  # atno 5951 bound_to 2569
    7.1589    6.1578    1.6279 LP  0  0  0  0  0  0  0  0  0  0  0  0  # atno 5982 bound_to 2887
    8.2112    6.8157    0.5666 LP  0  0  0  0  0  0  0  0  0  0  0  0  # atno 5983 bound_to 2887
   18.4383    2.2370   -1.4026 LP  0  0  0  0  0  0  0  0  0  0  0  0  # atno 6000 bound_to 3171
   19.3672    3.0636   -0.3441 LP  0  0  0  0  0  0  0  0  0  0  0  0  # atno 6001 bound_to 3171
   12.5876    9.9996    9.6099 LP  0  0  0  0  0  0  0  0  0  0  0  0  # atno 6004 bound_to 5270
   14.0036    9.8187   10.4030 LP  0  0  0  0  0  0  0  0  0  0  0  0  # atno 6005 bound_to 5270
   10.1203   19.7761    8.8305 LP  0  0  0  0  0  0  0  0  0  0  0  0  # atno 6055 bound_to 637 
    9.8868   19.0515    7.3859 LP  0  0  0  0  0  0  0  0  0  0  0  0  # atno 6056 bound_to 637 
    1.9328   10.6978   10.3617 LP  0  0  0  0  0  0  0  0  0  0  0  0  # atno 6063 bound_to 1878
    0.5773   11.2834   11.0592 LP  0  0  0  0  0  0  0  0  0  0  0  0  # atno 6064 bound_to 1878
   -7.1842   16.5946    0.0064 LP  0  0  0  0  0  0  0  0  0  0  0  0  # atno 6067 bound_to 957 
   -6.7613   15.3398   -0.9492 LP  0  0  0  0  0  0  0  0  0  0  0  0  # atno 6068 bound_to 957 

>  <STRIFE_LigEff_Score>  (64) 
3.0829999999999997

$$$$
unknown|pharmsElabsTestPreDocking|sdf|65|dock9
     RDKit          3D

 18 19  0  0  0  0  0  0  0  0999 V2000
   14.5198    7.8105    3.1249 C   0  0  0  0  0  0  0  0  0  0  0  0
   13.2245    7.7103    2.3208 C   0  0  0  0  0  0  0  0  0  0  0  0
   13.2178    8.6142    1.1685 N   0  0  0  0  0  0  0  0  0  0  0  0
   11.8783    7.7157    3.0869 C   0  0  0  0  0  0  0  0  0  0  0  0
   10.7171    7.0895    2.3004 C   0  0  0  0  0  0  0  0  0  0  0  0
    9.3134    7.4512    2.7604 C   0  0  0  0  0  0  0  0  0  0  0  0
    9.1790    8.9057    3.1372 C   0  0  0  0  0  0  0  0  0  0  0  0
    7.7587    9.3743    3.2867 C   0  0  0  0  0  0  0  0  0  0  0  0
    7.3511   10.1024    2.3507 O   0  0  0  0  0  0  0  0  0  0  0  0
    6.8777    9.0890    4.3925 N   0  0  0  0  0  0  0  0  0  0  0  0
    5.4779    9.4621    4.3623 C   0  0  0  0  0  0  0  0  0  0  0  0
    4.7583    9.9218    5.4514 C   0  0  0  0  0  0  0  0  0  0  0  0
    3.4631   10.1258    5.0037 C   0  0  0  0  0  0  0  0  0  0  0  0
    3.4403    9.7709    3.6696 C   0  0  0  0  0  0  0  0  0  0  0  0
    4.6625    9.3540    3.2842 N   0  0  0  0  0  0  0  0  0  0  0  0
    4.9636    8.7917    1.9701 C   0  0  0  0  0  0  0  0  0  0  0  0
   10.1858    9.4396    4.1173 C   0  0  0  0  0  0  0  0  0  0  0  0
   11.6209    9.1134    3.7095 C   0  0  0  0  0  0  0  0  0  0  0  0
  1  2  1  0
  2  3  1  0
  2  4  1  0
  4  5  1  0
  5  6  1  0
  6  7  1  0
  7  8  1  0
  8  9  2  0
  8 10  1  0
 10 11  1  0
 11 12  2  0
 12 13  1  0
 13 14  2  0
 14 15  1  0
 15 16  1  0
  7 17  1  0
 17 18  1  0
 18  4  1  0
 15 11  1  0
M  CHG  1   3   1
M  END
>  <EmbedRMS>  (65) 
0.293041831892948

>  <Gold.Version>  (65) 
2020.3.0

>  <Gold.Id.Protein>  (65) 
unknown|1q8t_protein|pdb

>  <Gold.PLP.Fitness>  (65) 
55.1043

>  <Gold.PLP.PLP>  (65) 
-46.6604

>  <Gold.PLP.part.hbond>  (65) 
-1.0000

>  <Gold.PLP.part.metal>  (65) 
0.0000

>  <Gold.PLP.part.buried>  (65) 
-2.7178

>  <Gold.PLP.part.nonpolar>  (65) 
-43.2736

>  <Gold.PLP.part.repulsive>  (65) 
0.0000

>  <Gold.PLP.ligand.clash>  (65) 
0.0000

>  <Gold.PLP.ligand.torsion>  (65) 
0.6770

>  <Gold.PLP.Chemscore.Hbond>  (65) 
2.0000

>  <Gold.PLP.Chemscore.CHOScore>  (65) 
1.0000

>  <Gold.PLP.Chemscore.Metal>  (65) 
0.0000

>  <Gold.Chemscore.Hbonds>  (65) 
donor molecule, donor type, donor heavy atom, donor atom, acceptor molecule, acceptor atom, score
      L1  H     3    23       P1  2902  2.00
      L1  C    14    35       P1  1855  1.00

>  <Gold.PLP.Chemscore.Internal.Correction>  (65) 
0.7980

>  <Gold.PLP.Constraint>  (65) 
-0.0000

>  <Gold.Protein.RotatedTorsions>  (65) 
[  681  677  676  673 ] final  -68.31 input -179.99 | X-H torsion
[  702  698  697  694 ] final  -96.02 input  179.99 | X-H torsion
[ 2577 2569 2568 2566 ] final  -36.14 input   -0.13 | X-H torsion
[ 2891 2887 2886 2883 ] final  164.33 input  179.98 | X-H torsion
[ 3175 3171 3170 3167 ] final -163.07 input -179.99 | X-H torsion
[ 5278 5270 5269 5267 ] final  -50.68 input    0.55 | X-H torsion
[  641  637  636  633 ] final  -24.86 input  179.99 | X-H torsion
[ 1886 1878 1877 1875 ] final -177.54 input    1.60 | X-H torsion
[  965  957  956  954 ] final   47.56 input    0.45 | X-H torsion

>  <Gold.Protein.ActiveResidues>  (65) 
 LYS47   THR48   LEU49   GLY50   THR51   GLY52   SER53   PHE54   GLY55   ARG56  
 VAL57   MET58   LEU59   TYR69   ALA70   MET71   LYS72   ILE73   LEU74   GLU91  
 LEU95   VAL104  LYS105  MET118  VAL119  MET120  GLU121  TYR122  VAL123  PRO124 
 GLY125  GLY126  GLU127  MET128  PHE129  TYR164  ASP166  LEU167  LYS168  PRO169 
 GLU170  ASN171  LEU172  LEU173  ILE174  GLN181  VAL182  THR183  ASP184  PHE185 
 GLY186  PHE187  GLY200  THR201  ASN326  PHE327  TYR330  ARG18   ARG19   ASN20  
 ALA21   ILE22   HIS23  

>  <Gold.Protein.RotatedAtoms>  (65) 
    9.7294   19.1515    7.6009 H   0  0  0  0  0  0  0  0  0  0  0  0  # atno 641  bound_to 637 
   15.6703   13.2723    7.2085 H   0  0  0  0  0  0  0  0  0  0  0  0  # atno 681  bound_to 677 
   20.7922   11.5916   -0.4440 H   0  0  0  0  0  0  0  0  0  0  0  0  # atno 702  bound_to 698 
   -7.0126   15.5166   -0.3539 H   0  0  0  0  0  0  0  0  0  0  0  0  # atno 965  bound_to 957 
    0.6202   11.5013   11.0585 H   0  0  0  0  0  0  0  0  0  0  0  0  # atno 1886 bound_to 1878
   10.3066    3.3675   -3.3984 H   0  0  0  0  0  0  0  0  0  0  0  0  # atno 2577 bound_to 2569
    7.5580    6.8398    1.3034 H   0  0  0  0  0  0  0  0  0  0  0  0  # atno 2891 bound_to 2887
   18.3320    2.3613    0.3146 H   0  0  0  0  0  0  0  0  0  0  0  0  # atno 3175 bound_to 3171
   13.1592    9.8266   10.4051 H   0  0  0  0  0  0  0  0  0  0  0  0  # atno 5278 bound_to 5270
   17.1158   13.8883    6.9493 LP  0  0  0  0  0  0  0  0  0  0  0  0  # atno 5914 bound_to 677 
   16.5648   12.6397    6.0527 LP  0  0  0  0  0  0  0  0  0  0  0  0  # atno 5915 bound_to 677 
   20.5573   11.6468   -2.0185 LP  0  0  0  0  0  0  0  0  0  0  0  0  # atno 5920 bound_to 698 
   19.3138   11.8472   -0.9791 LP  0  0  0  0  0  0  0  0  0  0  0  0  # atno 5921 bound_to 698 
   10.9158    2.1904   -2.5161 LP  0  0  0  0  0  0  0  0  0  0  0  0  # atno 5950 bound_to 2569
    9.3027    2.3281   -2.7299 LP  0  0  0  0  0  0  0  0  0  0  0  0  # atno 5951 bound_to 2569
    8.3739    6.0416    0.1927 LP  0  0  0  0  0  0  0  0  0  0  0  0  # atno 5982 bound_to 2887
    7.3465    5.2648    1.1966 LP  0  0  0  0  0  0  0  0  0  0  0  0  # atno 5983 bound_to 2887
   18.2042    2.0838   -1.2482 LP  0  0  0  0  0  0  0  0  0  0  0  0  # atno 6000 bound_to 3171
   19.3912    3.0398   -0.6618 LP  0  0  0  0  0  0  0  0  0  0  0  0  # atno 6001 bound_to 3171
   14.4687   10.0404    9.5241 LP  0  0  0  0  0  0  0  0  0  0  0  0  # atno 6004 bound_to 5270
   12.9824   10.1877    8.8640 LP  0  0  0  0  0  0  0  0  0  0  0  0  # atno 6005 bound_to 5270
   11.3175   19.1385    7.7127 LP  0  0  0  0  0  0  0  0  0  0  0  0  # atno 6055 bound_to 637 
   10.4002   19.7931    8.8945 LP  0  0  0  0  0  0  0  0  0  0  0  0  # atno 6056 bound_to 637 
    1.9793   12.1895   10.5956 LP  0  0  0  0  0  0  0  0  0  0  0  0  # atno 6063 bound_to 1878
    1.7531   10.5817   10.4211 LP  0  0  0  0  0  0  0  0  0  0  0  0  # atno 6064 bound_to 1878
   -6.4306   16.2221   -1.6573 LP  0  0  0  0  0  0  0  0  0  0  0  0  # atno 6067 bound_to 957 
   -6.9919   17.1078   -0.4055 LP  0  0  0  0  0  0  0  0  0  0  0  0  # atno 6068 bound_to 957 

>  <STRIFE_LigEff_Score>  (65) 
3.06135

$$$$
unknown|pharmsElabsTestPreDocking|sdf|66|dock1
     RDKit          3D

 17 17  0  0  0  0  0  0  0  0999 V2000
    3.3024    8.6107    2.1522 C   0  0  0  0  0  0  0  0  0  0  0  0
    4.6067    8.8941    2.1180 C   0  0  0  0  0  0  0  0  0  0  0  0
    5.4718    9.1435    3.2969 C   0  0  0  0  0  0  0  0  0  0  0  0
    4.9539    9.7432    4.3963 C   0  0  0  0  0  0  0  0  0  0  0  0
    5.7532   10.1037    5.6113 C   0  0  0  0  0  0  0  0  0  0  0  0
    6.8960    8.8736    3.2481 N   0  0  0  0  0  0  0  0  0  0  0  0
    7.9472    9.2769    2.3389 C   0  0  0  0  0  0  0  0  0  0  0  0
    7.6291   10.0780    1.4227 O   0  0  0  0  0  0  0  0  0  0  0  0
    9.4147    8.9465    2.3642 C   0  0  0  0  0  0  0  0  0  0  0  0
    9.7228    7.4883    2.6594 C   0  0  0  0  0  0  0  0  0  0  0  0
   11.1709    7.1115    2.4231 C   0  0  0  0  0  0  0  0  0  0  0  0
   12.2390    8.1691    2.7191 C   0  0  0  0  0  0  0  0  0  0  0  0
   13.5807    7.8847    1.9997 C   0  0  0  0  0  0  0  0  0  0  0  0
   14.5457    9.0489    1.7749 C   0  0  0  0  0  0  0  0  0  0  0  0
   13.4124    7.0642    0.7994 N   0  0  0  0  0  0  0  0  0  0  0  0
   11.8304    9.6488    2.5138 C   0  0  0  0  0  0  0  0  0  0  0  0
   10.3814   10.0121    2.8092 C   0  0  0  0  0  0  0  0  0  0  0  0
  1  2  2  0
  2  3  1  0
  3  4  2  0
  4  5  1  0
  3  6  1  0
  6  7  1  0
  7  8  2  0
  7  9  1  0
  9 10  1  0
 10 11  1  0
 11 12  1  0
 12 13  1  0
 13 14  1  0
 13 15  1  0
 12 16  1  0
 16 17  1  0
 17  9  1  0
M  CHG  1  15   1
M  END
>  <EmbedRMS>  (66) 
0.29216731409503444

>  <Gold.Version>  (66) 
2020.3.0

>  <Gold.Id.Protein>  (66) 
unknown|1q8t_protein|pdb

>  <Gold.PLP.Fitness>  (66) 
45.2891

>  <Gold.PLP.PLP>  (66) 
-39.4909

>  <Gold.PLP.part.hbond>  (66) 
-1.6851

>  <Gold.PLP.part.metal>  (66) 
0.0000

>  <Gold.PLP.part.buried>  (66) 
-1.9851

>  <Gold.PLP.part.nonpolar>  (66) 
-35.4793

>  <Gold.PLP.part.repulsive>  (66) 
0.0546

>  <Gold.PLP.ligand.clash>  (66) 
0.0000

>  <Gold.PLP.ligand.torsion>  (66) 
2.0069

>  <Gold.PLP.Chemscore.Hbond>  (66) 
2.9440

>  <Gold.PLP.Chemscore.CHOScore>  (66) 
0.0000

>  <Gold.PLP.Chemscore.Metal>  (66) 
0.0000

>  <Gold.Chemscore.Hbonds>  (66) 
donor molecule, donor type, donor heavy atom, donor atom, acceptor molecule, acceptor atom, score
      L1  H    15    36       P1  2902  2.00
      L1  H    15    37       P1  2691  0.94

>  <Gold.PLP.Chemscore.Internal.Correction>  (66) 
0.9801

>  <Gold.PLP.Constraint>  (66) 
-0.0000

>  <Gold.Protein.RotatedTorsions>  (66) 
[  681  677  676  673 ] final -117.64 input -179.99 | X-H torsion
[  702  698  697  694 ] final  -80.51 input  179.99 | X-H torsion
[ 2577 2569 2568 2566 ] final   -0.21 input   -0.13 | X-H torsion
[ 2891 2887 2886 2883 ] final  110.50 input  179.98 | X-H torsion
[ 3175 3171 3170 3167 ] final  -46.29 input -179.99 | X-H torsion
[ 5278 5270 5269 5267 ] final -168.35 input    0.55 | X-H torsion
[  641  637  636  633 ] final  -20.13 input  179.99 | X-H torsion
[ 1886 1878 1877 1875 ] final -170.72 input    1.60 | X-H torsion
[  965  957  956  954 ] final -143.58 input    0.45 | X-H torsion

>  <Gold.Protein.ActiveResidues>  (66) 
 LYS47   THR48   LEU49   GLY50   THR51   GLY52   SER53   PHE54   GLY55   ARG56  
 VAL57   MET58   LEU59   TYR69   ALA70   MET71   LYS72   ILE73   LEU74   GLU91  
 LEU95   VAL104  LYS105  MET118  VAL119  MET120  GLU121  TYR122  VAL123  PRO124 
 GLY125  GLY126  GLU127  MET128  PHE129  TYR164  ASP166  LEU167  LYS168  PRO169 
 GLU170  ASN171  LEU172  LEU173  ILE174  GLN181  VAL182  THR183  ASP184  PHE185 
 GLY186  PHE187  GLY200  THR201  ASN326  PHE327  TYR330  ARG18   ARG19   ASN20  
 ALA21   ILE22   HIS23  

>  <Gold.Protein.RotatedAtoms>  (66) 
    9.6904   19.1818    7.6560 H   0  0  0  0  0  0  0  0  0  0  0  0  # atno 641  bound_to 637 
   16.1650   13.7924    7.4176 H   0  0  0  0  0  0  0  0  0  0  0  0  # atno 681  bound_to 677 
   20.5895   11.6251   -0.3166 H   0  0  0  0  0  0  0  0  0  0  0  0  # atno 702  bound_to 698 
   -6.6616   17.1005   -1.0918 H   0  0  0  0  0  0  0  0  0  0  0  0  # atno 965  bound_to 957 
    0.6112   11.3959   11.0445 H   0  0  0  0  0  0  0  0  0  0  0  0  # atno 1886 bound_to 1878
    9.7632    3.2725   -3.3723 H   0  0  0  0  0  0  0  0  0  0  0  0  # atno 2577 bound_to 2569
    8.0909    6.8658    0.6925 H   0  0  0  0  0  0  0  0  0  0  0  0  # atno 2891 bound_to 2887
   19.3657    3.0068   -0.6031 H   0  0  0  0  0  0  0  0  0  0  0  0  # atno 3175 bound_to 3171
   14.4248   10.0464    9.5677 H   0  0  0  0  0  0  0  0  0  0  0  0  # atno 5278 bound_to 5270
   17.2865   13.3983    6.3578 LP  0  0  0  0  0  0  0  0  0  0  0  0  # atno 5914 bound_to 677 
   15.8735   12.5823    6.4242 LP  0  0  0  0  0  0  0  0  0  0  0  0  # atno 5915 bound_to 677 
   20.7775   11.6054   -1.8983 LP  0  0  0  0  0  0  0  0  0  0  0  0  # atno 5920 bound_to 698 
   19.3068   11.8533   -1.2333 LP  0  0  0  0  0  0  0  0  0  0  0  0  # atno 5921 bound_to 698 
   11.1173    2.6453   -2.8172 LP  0  0  0  0  0  0  0  0  0  0  0  0  # atno 5950 bound_to 2569
    9.6734    1.9732   -2.4563 LP  0  0  0  0  0  0  0  0  0  0  0  0  # atno 5951 bound_to 2569
    8.0227    5.2980    0.4213 LP  0  0  0  0  0  0  0  0  0  0  0  0  # atno 5982 bound_to 2887
    7.1369    5.9810    1.6109 LP  0  0  0  0  0  0  0  0  0  0  0  0  # atno 5983 bound_to 2887
   18.2673    2.3381    0.3360 LP  0  0  0  0  0  0  0  0  0  0  0  0  # atno 6000 bound_to 3171
   18.2403    2.1064   -1.2802 LP  0  0  0  0  0  0  0  0  0  0  0  0  # atno 6001 bound_to 3171
   13.0141   10.1932    8.8430 LP  0  0  0  0  0  0  0  0  0  0  0  0  # atno 6004 bound_to 5270
   13.1054    9.8036   10.4262 LP  0  0  0  0  0  0  0  0  0  0  0  0  # atno 6005 bound_to 5270
   11.2809   19.1089    7.6507 LP  0  0  0  0  0  0  0  0  0  0  0  0  # atno 6055 bound_to 637 
   10.4780   19.7908    8.8985 LP  0  0  0  0  0  0  0  0  0  0  0  0  # atno 6056 bound_to 637 
    1.8953   12.2473   10.6425 LP  0  0  0  0  0  0  0  0  0  0  0  0  # atno 6063 bound_to 1878
    1.8466   10.6348   10.3890 LP  0  0  0  0  0  0  0  0  0  0  0  0  # atno 6064 bound_to 1878
   -7.2079   16.1330    0.0487 LP  0  0  0  0  0  0  0  0  0  0  0  0  # atno 6067 bound_to 957 
   -6.5842   15.5288   -1.3343 LP  0  0  0  0  0  0  0  0  0  0  0  0  # atno 6068 bound_to 957 

>  <STRIFE_LigEff_Score>  (66) 
2.664064705882353

$$$$
unknown|pharmsElabsTestPreDocking|sdf|67|dock7
     RDKit          3D

 18 19  0  0  0  0  0  0  0  0999 V2000
   13.8877    9.3656    1.8090 C   0  0  0  0  0  0  0  0  0  0  0  0
   12.9627    8.1651    1.9128 C   0  0  0  0  0  0  0  0  0  0  0  0
   13.2129    7.1034    0.9462 N   0  0  0  0  0  0  0  0  0  0  0  0
   11.4794    8.4545    2.2860 C   0  0  0  0  0  0  0  0  0  0  0  0
   10.5300    7.2628    2.5054 C   0  0  0  0  0  0  0  0  0  0  0  0
    9.0851    7.7753    2.3770 C   0  0  0  0  0  0  0  0  0  0  0  0
    8.8065    8.8874    3.4056 C   0  0  0  0  0  0  0  0  0  0  0  0
    7.4156    9.4315    3.2418 C   0  0  0  0  0  0  0  0  0  0  0  0
    7.0924   10.0735    2.2030 O   0  0  0  0  0  0  0  0  0  0  0  0
    6.4822    9.2583    4.3119 N   0  0  0  0  0  0  0  0  0  0  0  0
    5.0991    9.4575    4.1746 N   0  0  0  0  0  0  0  0  0  0  0  0
    4.2183    9.5404    5.1835 C   0  0  0  0  0  0  0  0  0  0  0  0
    2.9564    9.5833    4.7125 N   0  0  0  0  0  0  0  0  0  0  0  0
    3.0230    9.5023    3.3892 N   0  0  0  0  0  0  0  0  0  0  0  0
    4.3277    9.4181    3.0713 C   0  0  0  0  0  0  0  0  0  0  0  0
    4.7889    9.1415    1.7484 N   0  0  0  0  0  0  0  0  0  0  0  0
    9.8410   10.0277    3.3526 C   0  0  0  0  0  0  0  0  0  0  0  0
   11.2777    9.4892    3.4069 C   0  0  0  0  0  0  0  0  0  0  0  0
  1  2  1  0
  2  3  1  0
  2  4  1  0
  4  5  1  0
  5  6  1  0
  6  7  1  0
  7  8  1  0
  8  9  2  0
  8 10  1  0
 10 11  1  0
 11 12  1  0
 12 13  2  0
 13 14  1  0
 14 15  2  0
 15 16  1  0
  7 17  1  0
 17 18  1  0
 18  4  1  0
 15 11  1  0
M  CHG  1   3   1
M  END
>  <EmbedRMS>  (67) 
0.18254033061587324

>  <Gold.Version>  (67) 
2020.3.0

>  <Gold.Id.Protein>  (67) 
unknown|1q8t_protein|pdb

>  <Gold.PLP.Fitness>  (67) 
48.7388

>  <Gold.PLP.PLP>  (67) 
-37.2266

>  <Gold.PLP.part.hbond>  (67) 
-3.4460

>  <Gold.PLP.part.metal>  (67) 
0.0000

>  <Gold.PLP.part.buried>  (67) 
-4.7872

>  <Gold.PLP.part.nonpolar>  (67) 
-30.2299

>  <Gold.PLP.part.repulsive>  (67) 
0.3308

>  <Gold.PLP.ligand.clash>  (67) 
0.0000

>  <Gold.PLP.ligand.torsion>  (67) 
0.2704

>  <Gold.PLP.Chemscore.Hbond>  (67) 
3.8882

>  <Gold.PLP.Chemscore.CHOScore>  (67) 
0.0000

>  <Gold.PLP.Chemscore.Metal>  (67) 
0.0000

>  <Gold.Chemscore.Hbonds>  (67) 
donor molecule, donor type, donor heavy atom, donor atom, acceptor molecule, acceptor atom, score
      L1  H     3    23       P1  2902  2.00
      L1  H     3    24       P1  2691  0.89
      P1  H  1888  1903       L1    13  1.00

>  <Gold.PLP.Chemscore.Internal.Correction>  (67) 
0.3886

>  <Gold.PLP.Constraint>  (67) 
-0.0000

>  <Gold.Protein.RotatedTorsions>  (67) 
[  681  677  676  673 ] final   16.29 input -179.99 | X-H torsion
[  702  698  697  694 ] final  -94.60 input  179.99 | X-H torsion
[ 2577 2569 2568 2566 ] final    1.52 input   -0.13 | X-H torsion
[ 2891 2887 2886 2883 ] final   15.82 input  179.98 | X-H torsion
[ 3175 3171 3170 3167 ] final  -21.63 input -179.99 | X-H torsion
[ 5278 5270 5269 5267 ] final  109.18 input    0.55 | X-H torsion
[  641  637  636  633 ] final  -53.06 input  179.99 | X-H torsion
[ 1886 1878 1877 1875 ] final  -92.59 input    1.60 | X-H torsion
[  965  957  956  954 ] final  -36.48 input    0.45 | X-H torsion

>  <Gold.Protein.ActiveResidues>  (67) 
 LYS47   THR48   LEU49   GLY50   THR51   GLY52   SER53   PHE54   GLY55   ARG56  
 VAL57   MET58   LEU59   TYR69   ALA70   MET71   LYS72   ILE73   LEU74   GLU91  
 LEU95   VAL104  LYS105  MET118  VAL119  MET120  GLU121  TYR122  VAL123  PRO124 
 GLY125  GLY126  GLU127  MET128  PHE129  TYR164  ASP166  LEU167  LYS168  PRO169 
 GLU170  ASN171  LEU172  LEU173  ILE174  GLN181  VAL182  THR183  ASP184  PHE185 
 GLY186  PHE187  GLY200  THR201  ASN326  PHE327  TYR330  ARG18   ARG19   ASN20  
 ALA21   ILE22   HIS23  

>  <Gold.Protein.RotatedAtoms>  (67) 
   10.0548   19.0052    7.3500 H   0  0  0  0  0  0  0  0  0  0  0  0  # atno 641  bound_to 637 
   16.0599   12.5919    6.2925 H   0  0  0  0  0  0  0  0  0  0  0  0  # atno 681  bound_to 677 
   20.7752   11.5944   -0.4301 H   0  0  0  0  0  0  0  0  0  0  0  0  # atno 702  bound_to 698 
   -6.5209   15.7075   -1.4302 H   0  0  0  0  0  0  0  0  0  0  0  0  # atno 965  bound_to 957 
    1.2370   10.5555   10.6252 H   0  0  0  0  0  0  0  0  0  0  0  0  # atno 1886 bound_to 1878
    9.7395    3.2611   -3.3661 H   0  0  0  0  0  0  0  0  0  0  0  0  # atno 2577 bound_to 2569
    8.2044    5.6251    0.2638 H   0  0  0  0  0  0  0  0  0  0  0  0  # atno 2891 bound_to 2887
   19.2936    2.9060   -0.9651 H   0  0  0  0  0  0  0  0  0  0  0  0  # atno 3175 bound_to 3171
   13.5978   10.2402    8.7469 H   0  0  0  0  0  0  0  0  0  0  0  0  # atno 5278 bound_to 5270
   15.9696   13.6794    7.4523 LP  0  0  0  0  0  0  0  0  0  0  0  0  # atno 5914 bound_to 677 
   17.3011   13.5648    6.5138 LP  0  0  0  0  0  0  0  0  0  0  0  0  # atno 5915 bound_to 677 
   20.5786   11.6429   -2.0101 LP  0  0  0  0  0  0  0  0  0  0  0  0  # atno 5920 bound_to 698 
   19.3104   11.8482   -1.0021 LP  0  0  0  0  0  0  0  0  0  0  0  0  # atno 5921 bound_to 698 
   11.1180    2.6687   -2.8333 LP  0  0  0  0  0  0  0  0  0  0  0  0  # atno 5950 bound_to 2569
    9.6976    1.9619   -2.4466 LP  0  0  0  0  0  0  0  0  0  0  0  0  # atno 5951 bound_to 2569
    7.1725    5.5919    1.4765 LP  0  0  0  0  0  0  0  0  0  0  0  0  # atno 5982 bound_to 2887
    7.8677    6.9929    1.0069 LP  0  0  0  0  0  0  0  0  0  0  0  0  # atno 5983 bound_to 2887
   18.5786    2.5795    0.4197 LP  0  0  0  0  0  0  0  0  0  0  0  0  # atno 6000 bound_to 3171
   18.0049    1.9709   -0.9829 LP  0  0  0  0  0  0  0  0  0  0  0  0  # atno 6001 bound_to 3171
   12.6807    9.9032   10.0047 LP  0  0  0  0  0  0  0  0  0  0  0  0  # atno 6004 bound_to 5270
   14.3090    9.8897   10.1282 LP  0  0  0  0  0  0  0  0  0  0  0  0  # atno 6005 bound_to 5270
   11.4104   19.3389    8.1154 LP  0  0  0  0  0  0  0  0  0  0  0  0  # atno 6055 bound_to 637 
    9.9647   19.7468    8.7560 LP  0  0  0  0  0  0  0  0  0  0  0  0  # atno 6056 bound_to 637 
    0.8141   12.0214   11.0807 LP  0  0  0  0  0  0  0  0  0  0  0  0  # atno 6063 bound_to 1878
    2.2690   11.7455   10.3922 LP  0  0  0  0  0  0  0  0  0  0  0  0  # atno 6064 bound_to 1878
   -6.7531   17.2006   -0.9282 LP  0  0  0  0  0  0  0  0  0  0  0  0  # atno 6067 bound_to 957 
   -7.1872   15.9283   -0.0011 LP  0  0  0  0  0  0  0  0  0  0  0  0  # atno 6068 bound_to 957 

>  <STRIFE_LigEff_Score>  (67) 
2.707711111111111

$$$$
unknown|pharmsElabsTestPreDocking|sdf|68|dock2
     RDKit          3D

 19 19  0  0  0  0  0  0  0  0999 V2000
    3.2980    8.7254    1.2902 C   0  0  0  0  0  0  0  0  0  0  0  0
    4.0526    8.8432    2.5309 N   0  0  0  0  0  0  0  0  0  0  0  0
    5.2636    9.2975    2.5336 C   0  0  0  0  0  0  0  0  0  0  0  0
    6.0415    9.4074    3.7939 C   0  0  0  0  0  0  0  0  0  0  0  0
    7.4600    9.0876    3.7756 N   0  0  0  0  0  0  0  0  0  0  0  0
    8.2837    9.4068    2.6340 C   0  0  0  0  0  0  0  0  0  0  0  0
    7.7798   10.0481    1.6792 O   0  0  0  0  0  0  0  0  0  0  0  0
    9.7405    9.0690    2.4710 C   0  0  0  0  0  0  0  0  0  0  0  0
   10.0789    7.5780    2.5705 C   0  0  0  0  0  0  0  0  0  0  0  0
   11.5910    7.2654    2.5766 C   0  0  0  0  0  0  0  0  0  0  0  0
   12.3914    8.3757    1.8772 C   0  0  0  0  0  0  0  0  0  0  0  0
   13.8651    8.0651    1.4678 C   0  0  0  0  0  0  0  0  0  0  0  0
   14.7510    9.2518    1.1281 C   0  0  0  0  0  0  0  0  0  0  0  0
   14.1000    6.8746    0.6574 N   0  0  0  0  0  0  0  0  0  0  0  0
   12.2291    9.6983    2.6536 C   0  0  0  0  0  0  0  0  0  0  0  0
   10.7608   10.1191    2.8793 C   0  0  0  0  0  0  0  0  0  0  0  0
    5.4296    9.8397    4.9332 C   0  0  0  0  0  0  0  0  0  0  0  0
    6.2036   10.1107    6.1977 C   0  0  0  0  0  0  0  0  0  0  0  0
    3.9420   10.1021    4.9898 C   0  0  0  0  0  0  0  0  0  0  0  0
  1  2  1  0
  2  3  2  0
  3  4  1  0
  4  5  1  0
  5  6  1  0
  6  7  2  0
  6  8  1  0
  8  9  1  0
  9 10  1  0
 10 11  1  0
 11 12  1  0
 12 13  1  0
 12 14  1  0
 11 15  1  0
 15 16  1  0
  4 17  2  0
 17 18  1  0
 17 19  1  0
 16  8  1  0
M  CHG  1  14   1
M  END
>  <EmbedRMS>  (68) 
0.2433123505485836

>  <Gold.Version>  (68) 
2020.3.0

>  <Gold.Id.Protein>  (68) 
unknown|1q8t_protein|pdb

>  <Gold.PLP.Fitness>  (68) 
47.9654

>  <Gold.PLP.PLP>  (68) 
-39.4117

>  <Gold.PLP.part.hbond>  (68) 
-2.0000

>  <Gold.PLP.part.metal>  (68) 
0.0000

>  <Gold.PLP.part.buried>  (68) 
-3.8837

>  <Gold.PLP.part.nonpolar>  (68) 
-34.0677

>  <Gold.PLP.part.repulsive>  (68) 
0.1469

>  <Gold.PLP.ligand.clash>  (68) 
0.0000

>  <Gold.PLP.ligand.torsion>  (68) 
1.1617

>  <Gold.PLP.Chemscore.Hbond>  (68) 
3.0000

>  <Gold.PLP.Chemscore.CHOScore>  (68) 
0.0000

>  <Gold.PLP.Chemscore.Metal>  (68) 
0.0000

>  <Gold.Chemscore.Hbonds>  (68) 
donor molecule, donor type, donor heavy atom, donor atom, acceptor molecule, acceptor atom, score
      L1  H    14    35       P1  2691  1.00
      L1  H    14    36       P1  2902  2.00

>  <Gold.PLP.Chemscore.Internal.Correction>  (68) 
1.8771

>  <Gold.PLP.Constraint>  (68) 
-0.0000

>  <Gold.Protein.RotatedTorsions>  (68) 
[  681  677  676  673 ] final -158.74 input -179.99 | X-H torsion
[  702  698  697  694 ] final    7.66 input  179.99 | X-H torsion
[ 2577 2569 2568 2566 ] final   16.02 input   -0.13 | X-H torsion
[ 2891 2887 2886 2883 ] final   14.58 input  179.98 | X-H torsion
[ 3175 3171 3170 3167 ] final   60.72 input -179.99 | X-H torsion
[ 5278 5270 5269 5267 ] final  121.10 input    0.55 | X-H torsion
[  641  637  636  633 ] final  130.02 input  179.99 | X-H torsion
[ 1886 1878 1877 1875 ] final  -21.25 input    1.60 | X-H torsion
[  965  957  956  954 ] final  -12.18 input    0.45 | X-H torsion

>  <Gold.Protein.ActiveResidues>  (68) 
 LYS47   THR48   LEU49   GLY50   THR51   GLY52   SER53   PHE54   GLY55   ARG56  
 VAL57   MET58   LEU59   TYR69   ALA70   MET71   LYS72   ILE73   LEU74   GLU91  
 LEU95   VAL104  LYS105  MET118  VAL119  MET120  GLU121  TYR122  VAL123  PRO124 
 GLY125  GLY126  GLU127  MET128  PHE129  TYR164  ASP166  LEU167  LYS168  PRO169 
 GLU170  ASN171  LEU172  LEU173  ILE174  GLN181  VAL182  THR183  ASP184  PHE185 
 GLY186  PHE187  GLY200  THR201  ASN326  PHE327  TYR330  ARG18   ARG19   ASN20  
 ALA21   ILE22   HIS23  

>  <Gold.Protein.RotatedAtoms>  (68) 
   10.9247   19.6778    8.7624 H   0  0  0  0  0  0  0  0  0  0  0  0  # atno 641  bound_to 637 
   16.7404   13.9589    7.2262 H   0  0  0  0  0  0  0  0  0  0  0  0  # atno 681  bound_to 677 
   19.4373   11.8376   -0.7442 H   0  0  0  0  0  0  0  0  0  0  0  0  # atno 702  bound_to 698 
   -6.6440   15.4702   -1.1646 H   0  0  0  0  0  0  0  0  0  0  0  0  # atno 965  bound_to 957 
    2.1255   11.0049   10.3102 H   0  0  0  0  0  0  0  0  0  0  0  0  # atno 1886 bound_to 1878
    9.5584    3.1441   -3.2981 H   0  0  0  0  0  0  0  0  0  0  0  0  # atno 2577 bound_to 2569
    8.1960    5.6086    0.2695 H   0  0  0  0  0  0  0  0  0  0  0  0  # atno 2891 bound_to 2887
   18.4186    2.2090   -1.3383 H   0  0  0  0  0  0  0  0  0  0  0  0  # atno 3175 bound_to 3171
   13.7809   10.2340    8.7796 H   0  0  0  0  0  0  0  0  0  0  0  0  # atno 5278 bound_to 5270
   16.9698   12.8995    6.0594 LP  0  0  0  0  0  0  0  0  0  0  0  0  # atno 5914 bound_to 677 
   15.5845   12.9059    6.9240 LP  0  0  0  0  0  0  0  0  0  0  0  0  # atno 5915 bound_to 677 
   20.9964   11.5417   -0.6063 LP  0  0  0  0  0  0  0  0  0  0  0  0  # atno 5920 bound_to 698 
   20.3000   11.6935   -2.0755 LP  0  0  0  0  0  0  0  0  0  0  0  0  # atno 5921 bound_to 698 
   11.0906    2.8619   -2.9695 LP  0  0  0  0  0  0  0  0  0  0  0  0  # atno 5950 bound_to 2569
    9.9157    1.8918   -2.3820 LP  0  0  0  0  0  0  0  0  0  0  0  0  # atno 5951 bound_to 2569
    7.1680    5.6094    1.4859 LP  0  0  0  0  0  0  0  0  0  0  0  0  # atno 5982 bound_to 2887
    7.8810    6.9928    0.9915 LP  0  0  0  0  0  0  0  0  0  0  0  0  # atno 5983 bound_to 2887
   19.3774    3.0642   -0.3975 LP  0  0  0  0  0  0  0  0  0  0  0  0  # atno 6000 bound_to 3171
   18.1269    2.2198    0.2270 LP  0  0  0  0  0  0  0  0  0  0  0  0  # atno 6001 bound_to 3171
   12.6147    9.9467    9.8256 LP  0  0  0  0  0  0  0  0  0  0  0  0  # atno 6004 bound_to 5270
   14.1824    9.8527   10.2729 LP  0  0  0  0  0  0  0  0  0  0  0  0  # atno 6005 bound_to 5270
    9.5280   19.4091    8.0469 LP  0  0  0  0  0  0  0  0  0  0  0  0  # atno 6055 bound_to 637 
   10.9310   18.9683    7.3371 LP  0  0  0  0  0  0  0  0  0  0  0  0  # atno 6056 bound_to 637 
    0.6727   10.9380   10.9582 LP  0  0  0  0  0  0  0  0  0  0  0  0  # atno 6063 bound_to 1878
    1.4751   12.3558   10.8463 LP  0  0  0  0  0  0  0  0  0  0  0  0  # atno 6064 bound_to 1878
   -6.6007   17.0586   -1.2660 LP  0  0  0  0  0  0  0  0  0  0  0  0  # atno 6067 bound_to 957 
   -7.2099   16.3202    0.0570 LP  0  0  0  0  0  0  0  0  0  0  0  0  # atno 6068 bound_to 957 

>  <STRIFE_LigEff_Score>  (68) 
2.5244947368421053

$$$$
unknown|pharmsElabsTestPreDocking|sdf|69|dock10
     RDKit          3D

 17 18  0  0  0  0  0  0  0  0999 V2000
   13.7207    9.8547    1.0911 C   0  0  0  0  0  0  0  0  0  0  0  0
   13.4979    8.5402    1.8388 C   0  0  0  0  0  0  0  0  0  0  0  0
   13.6756    7.3890    0.9432 N   0  0  0  0  0  0  0  0  0  0  0  0
   12.2374    8.4079    2.7161 C   0  0  0  0  0  0  0  0  0  0  0  0
   11.2726    7.2114    2.4994 C   0  0  0  0  0  0  0  0  0  0  0  0
    9.8301    7.5795    2.1849 C   0  0  0  0  0  0  0  0  0  0  0  0
    9.3211    8.6871    3.1051 C   0  0  0  0  0  0  0  0  0  0  0  0
    7.8545    8.9294    2.8724 C   0  0  0  0  0  0  0  0  0  0  0  0
    7.4256    9.0880    1.6969 O   0  0  0  0  0  0  0  0  0  0  0  0
    6.9680    9.0008    3.9979 N   0  0  0  0  0  0  0  0  0  0  0  0
    5.5511    9.2053    3.9299 C   0  0  0  0  0  0  0  0  0  0  0  0
    4.7137    8.9613    2.8523 C   0  0  0  0  0  0  0  0  0  0  0  0
    3.4688    9.3305    3.3117 C   0  0  0  0  0  0  0  0  0  0  0  0
    3.5805    9.7617    4.5803 N   0  0  0  0  0  0  0  0  0  0  0  0
    4.8426    9.6901    4.9663 N   0  0  0  0  0  0  0  0  0  0  0  0
   10.1155    9.9610    2.8386 C   0  0  0  0  0  0  0  0  0  0  0  0
   11.6064    9.7771    3.1151 C   0  0  0  0  0  0  0  0  0  0  0  0
  1  2  1  0
  2  3  1  0
  2  4  1  0
  4  5  1  0
  5  6  1  0
  6  7  1  0
  7  8  1  0
  8  9  2  0
  8 10  1  0
 10 11  1  0
 11 12  1  0
 12 13  2  0
 13 14  1  0
 14 15  1  0
  7 16  1  0
 16 17  1  0
 17  4  1  0
 15 11  2  0
M  CHG  1   3   1
M  END
>  <EmbedRMS>  (69) 
0.20783527019262546

>  <Gold.Version>  (69) 
2020.3.0

>  <Gold.Id.Protein>  (69) 
unknown|1q8t_protein|pdb

>  <Gold.PLP.Fitness>  (69) 
44.7535

>  <Gold.PLP.PLP>  (69) 
-35.5548

>  <Gold.PLP.part.hbond>  (69) 
-2.8634

>  <Gold.PLP.part.metal>  (69) 
0.0000

>  <Gold.PLP.part.buried>  (69) 
-5.0524

>  <Gold.PLP.part.nonpolar>  (69) 
-28.0644

>  <Gold.PLP.part.repulsive>  (69) 
0.1631

>  <Gold.PLP.ligand.clash>  (69) 
0.0000

>  <Gold.PLP.ligand.torsion>  (69) 
1.5373

>  <Gold.PLP.Chemscore.Hbond>  (69) 
2.9600

>  <Gold.PLP.Chemscore.CHOScore>  (69) 
1.0000

>  <Gold.PLP.Chemscore.Metal>  (69) 
0.0000

>  <Gold.Chemscore.Hbonds>  (69) 
donor molecule, donor type, donor heavy atom, donor atom, acceptor molecule, acceptor atom, score
      L1  H     3    22       P1  2902  2.00
      L1  H     3    23       P1  2691  0.96
      L1  C    13    33       P1  1855  1.00

>  <Gold.PLP.Chemscore.Internal.Correction>  (69) 
0.3933

>  <Gold.PLP.Constraint>  (69) 
-0.0000

>  <Gold.Protein.RotatedTorsions>  (69) 
[  681  677  676  673 ] final    5.70 input -179.99 | X-H torsion
[  702  698  697  694 ] final   64.83 input  179.99 | X-H torsion
[ 2577 2569 2568 2566 ] final -105.99 input   -0.13 | X-H torsion
[ 2891 2887 2886 2883 ] final   39.33 input  179.98 | X-H torsion
[ 3175 3171 3170 3167 ] final   91.48 input -179.99 | X-H torsion
[ 5278 5270 5269 5267 ] final  123.55 input    0.55 | X-H torsion
[  641  637  636  633 ] final  -67.35 input  179.99 | X-H torsion
[ 1886 1878 1877 1875 ] final   56.18 input    1.60 | X-H torsion
[  965  957  956  954 ] final   10.62 input    0.45 | X-H torsion

>  <Gold.Protein.ActiveResidues>  (69) 
 LYS47   THR48   LEU49   GLY50   THR51   GLY52   SER53   PHE54   GLY55   ARG56  
 VAL57   MET58   LEU59   TYR69   ALA70   MET71   LYS72   ILE73   LEU74   GLU91  
 LEU95   VAL104  LYS105  MET118  VAL119  MET120  GLU121  TYR122  VAL123  PRO124 
 GLY125  GLY126  GLU127  MET128  PHE129  TYR164  ASP166  LEU167  LYS168  PRO169 
 GLU170  ASN171  LEU172  LEU173  ILE174  GLN181  VAL182  THR183  ASP184  PHE185 
 GLY186  PHE187  GLY200  THR201  ASN326  PHE327  TYR330  ARG18   ARG19   ASN20  
 ALA21   ILE22   HIS23  

>  <Gold.Protein.RotatedAtoms>  (69) 
   10.2633   18.9606    7.2854 H   0  0  0  0  0  0  0  0  0  0  0  0  # atno 641  bound_to 637 
   15.9320   12.6150    6.3946 H   0  0  0  0  0  0  0  0  0  0  0  0  # atno 681  bound_to 677 
   19.4803   11.8465   -1.6007 H   0  0  0  0  0  0  0  0  0  0  0  0  # atno 702  bound_to 698 
   -6.7861   15.3757   -0.8545 H   0  0  0  0  0  0  0  0  0  0  0  0  # atno 965  bound_to 957 
    2.0125   12.0942   10.5458 H   0  0  0  0  0  0  0  0  0  0  0  0  # atno 1886 bound_to 1878
   11.0527    2.8166   -2.9612 H   0  0  0  0  0  0  0  0  0  0  0  0  # atno 2577 bound_to 2569
    8.3186    5.9681    0.2136 H   0  0  0  0  0  0  0  0  0  0  0  0  # atno 2891 bound_to 2887
   18.0995    2.0108   -1.0474 H   0  0  0  0  0  0  0  0  0  0  0  0  # atno 3175 bound_to 3171
   13.8174   10.2316    8.7908 H   0  0  0  0  0  0  0  0  0  0  0  0  # atno 5278 bound_to 5270
   16.1106   13.7805    7.4651 LP  0  0  0  0  0  0  0  0  0  0  0  0  # atno 5914 bound_to 677 
   17.2946   13.4394    6.3935 LP  0  0  0  0  0  0  0  0  0  0  0  0  # atno 5915 bound_to 677 
   20.2055   11.6739   -0.1930 LP  0  0  0  0  0  0  0  0  0  0  0  0  # atno 5920 bound_to 698 
   21.0457   11.5519   -1.5879 LP  0  0  0  0  0  0  0  0  0  0  0  0  # atno 5921 bound_to 698 
    9.8841    1.8988   -2.3892 LP  0  0  0  0  0  0  0  0  0  0  0  0  # atno 5950 bound_to 2569
    9.5489    3.1999   -3.3172 LP  0  0  0  0  0  0  0  0  0  0  0  0  # atno 5951 bound_to 2569
    7.3071    5.3100    1.2530 LP  0  0  0  0  0  0  0  0  0  0  0  0  # atno 5982 bound_to 2887
    7.6128    6.9138    1.2832 LP  0  0  0  0  0  0  0  0  0  0  0  0  # atno 5983 bound_to 2887
   19.3523    2.9811   -0.8900 LP  0  0  0  0  0  0  0  0  0  0  0  0  # atno 6000 bound_to 3171
   18.4879    2.5115    0.4134 LP  0  0  0  0  0  0  0  0  0  0  0  0  # atno 6001 bound_to 3171
   12.6059    9.9560    9.7873 LP  0  0  0  0  0  0  0  0  0  0  0  0  # atno 6004 bound_to 5270
   14.1526    9.8459   10.2993 LP  0  0  0  0  0  0  0  0  0  0  0  0  # atno 6005 bound_to 5270
   11.3714   19.4458    8.3206 LP  0  0  0  0  0  0  0  0  0  0  0  0  # atno 6055 bound_to 637 
    9.7841   19.6868    8.6188 LP  0  0  0  0  0  0  0  0  0  0  0  0  # atno 6056 bound_to 637 
    1.6632   10.5434   10.4543 LP  0  0  0  0  0  0  0  0  0  0  0  0  # atno 6063 bound_to 1878
    0.6036   11.6036   11.1022 LP  0  0  0  0  0  0  0  0  0  0  0  0  # atno 6064 bound_to 1878
   -6.4927   16.7973   -1.5088 LP  0  0  0  0  0  0  0  0  0  0  0  0  # atno 6067 bound_to 957 
   -7.1683   16.6810   -0.0267 LP  0  0  0  0  0  0  0  0  0  0  0  0  # atno 6068 bound_to 957 

>  <STRIFE_LigEff_Score>  (69) 
2.6325588235294117

$$$$
unknown|pharmsElabsTestPreDocking|sdf|70|dock9
     RDKit          3D

 16 16  0  0  0  0  0  0  0  0999 V2000
    3.6093   10.1031    5.0201 C   0  0  0  0  0  0  0  0  0  0  0  0
    5.0770    9.7973    5.2998 C   0  0  0  0  0  0  0  0  0  0  0  0
    5.8838    9.8226    4.0233 C   0  0  0  0  0  0  0  0  0  0  0  0
    5.2976   10.2390    2.9884 O   0  0  0  0  0  0  0  0  0  0  0  0
    7.2839    9.4405    3.9390 N   0  0  0  0  0  0  0  0  0  0  0  0
    8.0595    9.4632    2.7202 C   0  0  0  0  0  0  0  0  0  0  0  0
    7.5063    9.7356    1.6312 O   0  0  0  0  0  0  0  0  0  0  0  0
    9.5272    9.1684    2.5992 C   0  0  0  0  0  0  0  0  0  0  0  0
    9.8262    7.7329    2.1937 C   0  0  0  0  0  0  0  0  0  0  0  0
   11.2968    7.3469    2.3015 C   0  0  0  0  0  0  0  0  0  0  0  0
   12.2610    8.5368    2.1444 C   0  0  0  0  0  0  0  0  0  0  0  0
   13.7332    8.0062    2.1599 C   0  0  0  0  0  0  0  0  0  0  0  0
   14.0271    7.2708    3.4801 C   0  0  0  0  0  0  0  0  0  0  0  0
   14.0192    7.1079    1.0327 N   0  0  0  0  0  0  0  0  0  0  0  0
   11.9792    9.5670    3.2684 C   0  0  0  0  0  0  0  0  0  0  0  0
   10.4974    9.9685    3.4460 C   0  0  0  0  0  0  0  0  0  0  0  0
  1  2  1  0
  2  3  1  0
  3  4  2  0
  3  5  1  0
  5  6  1  0
  6  7  2  0
  6  8  1  0
  8  9  1  0
  9 10  1  0
 10 11  1  0
 11 12  1  0
 12 13  1  0
 12 14  1  0
 11 15  1  0
 15 16  1  0
 16  8  1  0
M  CHG  1  14   1
M  END
>  <EmbedRMS>  (70) 
0.18838598457925643

>  <Gold.Version>  (70) 
2020.3.0

>  <Gold.Id.Protein>  (70) 
unknown|1q8t_protein|pdb

>  <Gold.PLP.Fitness>  (70) 
45.8632

>  <Gold.PLP.PLP>  (70) 
-37.0144

>  <Gold.PLP.part.hbond>  (70) 
-2.0000

>  <Gold.PLP.part.metal>  (70) 
0.0000

>  <Gold.PLP.part.buried>  (70) 
-4.2138

>  <Gold.PLP.part.nonpolar>  (70) 
-30.4957

>  <Gold.PLP.part.repulsive>  (70) 
0.0620

>  <Gold.PLP.ligand.clash>  (70) 
0.0000

>  <Gold.PLP.ligand.torsion>  (70) 
0.4172

>  <Gold.PLP.Chemscore.Hbond>  (70) 
3.0000

>  <Gold.PLP.Chemscore.CHOScore>  (70) 
0.0000

>  <Gold.PLP.Chemscore.Metal>  (70) 
0.0000

>  <Gold.Chemscore.Hbonds>  (70) 
donor molecule, donor type, donor heavy atom, donor atom, acceptor molecule, acceptor atom, score
      L1  H    14    34       P1  2902  2.00
      L1  H    14    35       P1  2691  1.00

>  <Gold.PLP.Chemscore.Internal.Correction>  (70) 
0.6832

>  <Gold.PLP.Constraint>  (70) 
-0.0000

>  <Gold.Protein.RotatedTorsions>  (70) 
[  681  677  676  673 ] final   41.03 input -179.99 | X-H torsion
[  702  698  697  694 ] final -149.07 input  179.99 | X-H torsion
[ 2577 2569 2568 2566 ] final   99.48 input   -0.13 | X-H torsion
[ 2891 2887 2886 2883 ] final -107.73 input  179.98 | X-H torsion
[ 3175 3171 3170 3167 ] final   79.64 input -179.99 | X-H torsion
[ 5278 5270 5269 5267 ] final -132.39 input    0.55 | X-H torsion
[  641  637  636  633 ] final  -86.91 input  179.99 | X-H torsion
[ 1886 1878 1877 1875 ] final -137.07 input    1.60 | X-H torsion
[  965  957  956  954 ] final  146.74 input    0.45 | X-H torsion

>  <Gold.Protein.ActiveResidues>  (70) 
 LYS47   THR48   LEU49   GLY50   THR51   GLY52   SER53   PHE54   GLY55   ARG56  
 VAL57   MET58   LEU59   TYR69   ALA70   MET71   LYS72   ILE73   LEU74   GLU91  
 LEU95   VAL104  LYS105  MET118  VAL119  MET120  GLU121  TYR122  VAL123  PRO124 
 GLY125  GLY126  GLU127  MET128  PHE129  TYR164  ASP166  LEU167  LYS168  PRO169 
 GLU170  ASN171  LEU172  LEU173  ILE174  GLN181  VAL182  THR183  ASP184  PHE185 
 GLY186  PHE187  GLY200  THR201  ASN326  PHE327  TYR330  ARG18   ARG19   ASN20  
 ALA21   ILE22   HIS23  

>  <Gold.Protein.RotatedAtoms>  (70) 
   10.5664   18.9387    7.2757 H   0  0  0  0  0  0  0  0  0  0  0  0  # atno 641  bound_to 637 
   16.3997   12.6281    6.1179 H   0  0  0  0  0  0  0  0  0  0  0  0  # atno 681  bound_to 677 
   21.1144   11.5486   -1.1756 H   0  0  0  0  0  0  0  0  0  0  0  0  # atno 702  bound_to 698 
   -7.0762   16.8683   -0.1859 H   0  0  0  0  0  0  0  0  0  0  0  0  # atno 965  bound_to 957 
    0.7339   10.9113   10.9077 H   0  0  0  0  0  0  0  0  0  0  0  0  # atno 1886 bound_to 1878
    9.4673    2.1647   -2.6247 H   0  0  0  0  0  0  0  0  0  0  0  0  # atno 2577 bound_to 2569
    7.1779    5.6660    1.4626 H   0  0  0  0  0  0  0  0  0  0  0  0  # atno 2891 bound_to 2887
   18.2084    2.0737   -1.1828 H   0  0  0  0  0  0  0  0  0  0  0  0  # atno 3175 bound_to 3171
   14.2837    9.9169   10.0867 H   0  0  0  0  0  0  0  0  0  0  0  0  # atno 5278 bound_to 5270
   15.7097   13.3949    7.3312 LP  0  0  0  0  0  0  0  0  0  0  0  0  # atno 5914 bound_to 677 
   17.2033   13.8111    6.8186 LP  0  0  0  0  0  0  0  0  0  0  0  0  # atno 5915 bound_to 677 
   19.7324   11.7913   -1.9295 LP  0  0  0  0  0  0  0  0  0  0  0  0  # atno 5920 bound_to 698 
   19.7998   11.7479   -0.2985 LP  0  0  0  0  0  0  0  0  0  0  0  0  # atno 5921 bound_to 698 
   10.0568    3.4087   -3.4250 LP  0  0  0  0  0  0  0  0  0  0  0  0  # atno 5950 bound_to 2569
   11.0454    2.3762   -2.6356 LP  0  0  0  0  0  0  0  0  0  0  0  0  # atno 5951 bound_to 2569
    7.9057    6.9914    0.9625 LP  0  0  0  0  0  0  0  0  0  0  0  0  # atno 5982 bound_to 2887
    8.2148    5.5504    0.2593 LP  0  0  0  0  0  0  0  0  0  0  0  0  # atno 5983 bound_to 2887
   19.3876    3.0314   -0.7056 LP  0  0  0  0  0  0  0  0  0  0  0  0  # atno 6000 bound_to 3171
   18.3380    2.3950    0.3714 LP  0  0  0  0  0  0  0  0  0  0  0  0  # atno 6001 bound_to 3171
   13.5757   10.2353    8.6960 LP  0  0  0  0  0  0  0  0  0  0  0  0  # atno 6004 bound_to 5270
   12.6922    9.8977   10.0272 LP  0  0  0  0  0  0  0  0  0  0  0  0  # atno 6005 bound_to 5270
   11.2287   19.5825    8.5726 LP  0  0  0  0  0  0  0  0  0  0  0  0  # atno 6055 bound_to 637 
    9.6075   19.5732    8.3770 LP  0  0  0  0  0  0  0  0  0  0  0  0  # atno 6056 bound_to 637 
    1.4119   12.3515   10.8734 LP  0  0  0  0  0  0  0  0  0  0  0  0  # atno 6063 bound_to 1878
    2.2008   11.0408   10.3021 LP  0  0  0  0  0  0  0  0  0  0  0  0  # atno 6064 bound_to 1878
   -6.9090   15.3468   -0.6244 LP  0  0  0  0  0  0  0  0  0  0  0  0  # atno 6067 bound_to 957 
   -6.4465   16.5596   -1.6153 LP  0  0  0  0  0  0  0  0  0  0  0  0  # atno 6068 bound_to 957 

>  <STRIFE_LigEff_Score>  (70) 
2.86645

$$$$
unknown|pharmsElabsTestPreDocking|sdf|71|dock3
     RDKit          3D

 17 18  0  0  0  0  0  0  0  0999 V2000
   13.4059    7.4305    3.8562 C   0  0  0  0  0  0  0  0  0  0  0  0
   13.1200    8.2145    2.5602 C   0  0  0  0  0  0  0  0  0  0  0  0
   13.4933    7.3876    1.4053 N   0  0  0  0  0  0  0  0  0  0  0  0
   11.6246    8.6474    2.5148 C   0  0  0  0  0  0  0  0  0  0  0  0
   10.7147    7.4038    2.5877 C   0  0  0  0  0  0  0  0  0  0  0  0
    9.2607    7.8042    2.3834 C   0  0  0  0  0  0  0  0  0  0  0  0
    8.8269    8.7955    3.4684 C   0  0  0  0  0  0  0  0  0  0  0  0
    7.3886    9.1783    3.2746 C   0  0  0  0  0  0  0  0  0  0  0  0
    7.0174    9.6946    2.1858 O   0  0  0  0  0  0  0  0  0  0  0  0
    6.4604    8.9519    4.3438 N   0  0  0  0  0  0  0  0  0  0  0  0
    5.0851    9.2349    4.2804 N   0  0  0  0  0  0  0  0  0  0  0  0
    4.2261    9.5392    5.2698 C   0  0  0  0  0  0  0  0  0  0  0  0
    3.0004    9.7199    4.7478 N   0  0  0  0  0  0  0  0  0  0  0  0
    3.1357    9.5213    3.4428 N   0  0  0  0  0  0  0  0  0  0  0  0
    4.3941    9.2276    3.1572 N   0  0  0  0  0  0  0  0  0  0  0  0
    9.7339   10.0378    3.4906 C   0  0  0  0  0  0  0  0  0  0  0  0
   11.2130    9.6404    3.6300 C   0  0  0  0  0  0  0  0  0  0  0  0
  1  2  1  0
  2  3  1  0
  2  4  1  0
  4  5  1  0
  5  6  1  0
  6  7  1  0
  7  8  1  0
  8  9  2  0
  8 10  1  0
 10 11  1  0
 11 12  1  0
 12 13  2  0
 13 14  1  0
 14 15  2  0
  7 16  1  0
 16 17  1  0
 17  4  1  0
 15 11  1  0
M  CHG  1   3   1
M  END
>  <EmbedRMS>  (71) 
0.030620254940186248

>  <Gold.Version>  (71) 
2020.3.0

>  <Gold.Id.Protein>  (71) 
unknown|1q8t_protein|pdb

>  <Gold.PLP.Fitness>  (71) 
47.2001

>  <Gold.PLP.PLP>  (71) 
-35.6013

>  <Gold.PLP.part.hbond>  (71) 
-3.4703

>  <Gold.PLP.part.metal>  (71) 
0.0000

>  <Gold.PLP.part.buried>  (71) 
-6.7611

>  <Gold.PLP.part.nonpolar>  (71) 
-25.9513

>  <Gold.PLP.part.repulsive>  (71) 
0.3214

>  <Gold.PLP.ligand.clash>  (71) 
0.0000

>  <Gold.PLP.ligand.torsion>  (71) 
0.2227

>  <Gold.PLP.Chemscore.Hbond>  (71) 
4.0000

>  <Gold.PLP.Chemscore.CHOScore>  (71) 
0.0000

>  <Gold.PLP.Chemscore.Metal>  (71) 
0.0000

>  <Gold.Chemscore.Hbonds>  (71) 
donor molecule, donor type, donor heavy atom, donor atom, acceptor molecule, acceptor atom, score
      L1  H     3    22       P1  2691  1.00
      L1  H     3    24       P1  2902  2.00
      P1  H  1888  1903       L1    13  1.00

>  <Gold.PLP.Chemscore.Internal.Correction>  (71) 
0.0442

>  <Gold.PLP.Constraint>  (71) 
-0.0000

>  <Gold.Protein.RotatedTorsions>  (71) 
[  681  677  676  673 ] final   35.06 input -179.99 | X-H torsion
[  702  698  697  694 ] final   -9.55 input  179.99 | X-H torsion
[ 2577 2569 2568 2566 ] final  -61.13 input   -0.13 | X-H torsion
[ 2891 2887 2886 2883 ] final   42.95 input  179.98 | X-H torsion
[ 3175 3171 3170 3167 ] final  176.32 input -179.99 | X-H torsion
[ 5278 5270 5269 5267 ] final   76.54 input    0.55 | X-H torsion
[  641  637  636  633 ] final -124.42 input  179.99 | X-H torsion
[ 1886 1878 1877 1875 ] final  -65.04 input    1.60 | X-H torsion
[  965  957  956  954 ] final   30.84 input    0.45 | X-H torsion

>  <Gold.Protein.ActiveResidues>  (71) 
 LYS47   THR48   LEU49   GLY50   THR51   GLY52   SER53   PHE54   GLY55   ARG56  
 VAL57   MET58   LEU59   TYR69   ALA70   MET71   LYS72   ILE73   LEU74   GLU91  
 LEU95   VAL104  LYS105  MET118  VAL119  MET120  GLU121  TYR122  VAL123  PRO124 
 GLY125  GLY126  GLU127  MET128  PHE129  TYR164  ASP166  LEU167  LYS168  PRO169 
 GLU170  ASN171  LEU172  LEU173  ILE174  GLN181  VAL182  THR183  ASP184  PHE185 
 GLY186  PHE187  GLY200  THR201  ASN326  PHE327  TYR330  ARG18   ARG19   ASN20  
 ALA21   ILE22   HIS23  

>  <Gold.Protein.RotatedAtoms>  (71) 
   11.0875   19.0264    7.5044 H   0  0  0  0  0  0  0  0  0  0  0  0  # atno 641  bound_to 637 
   16.3148   12.6079    6.1505 H   0  0  0  0  0  0  0  0  0  0  0  0  # atno 681  bound_to 677 
   19.5860   11.8070   -0.5231 H   0  0  0  0  0  0  0  0  0  0  0  0  # atno 702  bound_to 698 
   -6.9153   15.4087   -0.5698 H   0  0  0  0  0  0  0  0  0  0  0  0  # atno 965  bound_to 957 
    1.6281   10.5843   10.4577 H   0  0  0  0  0  0  0  0  0  0  0  0  # atno 1886 bound_to 1878
   10.6683    3.2671   -3.3022 H   0  0  0  0  0  0  0  0  0  0  0  0  # atno 2577 bound_to 2569
    8.3281    6.0240    0.2161 H   0  0  0  0  0  0  0  0  0  0  0  0  # atno 2891 bound_to 2887
   18.1228    2.1846    0.1482 H   0  0  0  0  0  0  0  0  0  0  0  0  # atno 3175 bound_to 3171
   13.1052   10.2103    8.8473 H   0  0  0  0  0  0  0  0  0  0  0  0  # atno 5278 bound_to 5270
   15.7616   13.4679    7.3714 LP  0  0  0  0  0  0  0  0  0  0  0  0  # atno 5914 bound_to 677 
   17.2408   13.7595    6.7441 LP  0  0  0  0  0  0  0  0  0  0  0  0  # atno 5915 bound_to 677 
   21.1170   11.5252   -0.8608 LP  0  0  0  0  0  0  0  0  0  0  0  0  # atno 5920 bound_to 698 
   20.0229   11.7422   -2.0535 LP  0  0  0  0  0  0  0  0  0  0  0  0  # atno 5921 bound_to 698 
   10.6003    1.9676   -2.3845 LP  0  0  0  0  0  0  0  0  0  0  0  0  # atno 5950 bound_to 2569
    9.2374    2.6567   -2.9628 LP  0  0  0  0  0  0  0  0  0  0  0  0  # atno 5951 bound_to 2569
    7.3354    5.2767    1.2123 LP  0  0  0  0  0  0  0  0  0  0  0  0  # atno 5982 bound_to 2887
    7.5746    6.8884    1.3213 LP  0  0  0  0  0  0  0  0  0  0  0  0  # atno 5983 bound_to 2887
   18.4524    2.2467   -1.4084 LP  0  0  0  0  0  0  0  0  0  0  0  0  # atno 6000 bound_to 3171
   19.3632    3.0630   -0.3264 LP  0  0  0  0  0  0  0  0  0  0  0  0  # atno 6001 bound_to 3171
   13.0352    9.8124   10.3879 LP  0  0  0  0  0  0  0  0  0  0  0  0  # atno 6004 bound_to 5270
   14.4727   10.0120    9.6393 LP  0  0  0  0  0  0  0  0  0  0  0  0  # atno 6005 bound_to 5270
   10.7325   19.7625    8.8709 LP  0  0  0  0  0  0  0  0  0  0  0  0  # atno 6055 bound_to 637 
    9.5550   19.3009    7.8379 LP  0  0  0  0  0  0  0  0  0  0  0  0  # atno 6056 bound_to 637 
    0.6085   11.6230   11.1034 LP  0  0  0  0  0  0  0  0  0  0  0  0  # atno 6063 bound_to 1878
    2.0629   12.1135   10.5458 LP  0  0  0  0  0  0  0  0  0  0  0  0  # atno 6064 bound_to 1878
   -6.4393   16.4948   -1.6324 LP  0  0  0  0  0  0  0  0  0  0  0  0  # atno 6067 bound_to 957 
   -7.0855   16.9487   -0.2030 LP  0  0  0  0  0  0  0  0  0  0  0  0  # atno 6068 bound_to 957 

>  <STRIFE_LigEff_Score>  (71) 
2.776476470588235

$$$$
unknown|pharmsElabsTestPreDocking|sdf|72|dock8
     RDKit          3D

 13 13  0  0  0  0  0  0  0  0999 V2000
    4.8334    8.9698    2.9149 C   0  0  0  0  0  0  0  0  0  0  0  0
    6.2247    8.9796    2.4566 N   0  0  0  0  0  0  0  0  0  0  0  0
    7.2911    9.0376    3.4149 C   0  0  0  0  0  0  0  0  0  0  0  0
    7.0110    9.1622    4.6329 O   0  0  0  0  0  0  0  0  0  0  0  0
    8.7534    8.9353    3.0972 C   0  0  0  0  0  0  0  0  0  0  0  0
    9.2986    7.5064    3.0293 C   0  0  0  0  0  0  0  0  0  0  0  0
   10.8326    7.4157    2.8925 C   0  0  0  0  0  0  0  0  0  0  0  0
   11.4090    8.6872    2.2498 C   0  0  0  0  0  0  0  0  0  0  0  0
   12.8679    8.6286    1.7010 C   0  0  0  0  0  0  0  0  0  0  0  0
   13.4309    9.9073    1.1040 C   0  0  0  0  0  0  0  0  0  0  0  0
   13.2817    7.4036    1.0250 N   0  0  0  0  0  0  0  0  0  0  0  0
   11.1380    9.8982    3.1656 C   0  0  0  0  0  0  0  0  0  0  0  0
    9.6514   10.0804    3.5388 C   0  0  0  0  0  0  0  0  0  0  0  0
  1  2  1  0
  2  3  1  0
  3  4  2  0
  3  5  1  0
  5  6  1  0
  6  7  1  0
  7  8  1  0
  8  9  1  0
  9 10  1  0
  9 11  1  0
  8 12  1  0
 12 13  1  0
 13  5  1  0
M  CHG  1  11   1
M  END
>  <EmbedRMS>  (72) 
0.29639754771625826

>  <Gold.Version>  (72) 
2020.3.0

>  <Gold.Id.Protein>  (72) 
unknown|1q8t_protein|pdb

>  <Gold.PLP.Fitness>  (72) 
34.4991

>  <Gold.PLP.PLP>  (72) 
-26.2900

>  <Gold.PLP.part.hbond>  (72) 
-2.0000

>  <Gold.PLP.part.metal>  (72) 
0.0000

>  <Gold.PLP.part.buried>  (72) 
-2.6846

>  <Gold.PLP.part.nonpolar>  (72) 
-20.6070

>  <Gold.PLP.part.repulsive>  (72) 
0.0484

>  <Gold.PLP.ligand.clash>  (72) 
0.0000

>  <Gold.PLP.ligand.torsion>  (72) 
0.5379

>  <Gold.PLP.Chemscore.Hbond>  (72) 
2.7520

>  <Gold.PLP.Chemscore.CHOScore>  (72) 
0.0000

>  <Gold.PLP.Chemscore.Metal>  (72) 
0.0000

>  <Gold.Chemscore.Hbonds>  (72) 
donor molecule, donor type, donor heavy atom, donor atom, acceptor molecule, acceptor atom, score
      L1  H    11    29       P1  2691  0.75
      L1  H    11    30       P1  2902  2.00

>  <Gold.PLP.Chemscore.Internal.Correction>  (72) 
1.0290

>  <Gold.PLP.Constraint>  (72) 
-0.0000

>  <Gold.Protein.RotatedTorsions>  (72) 
[  681  677  676  673 ] final  -94.32 input -179.99 | X-H torsion
[  702  698  697  694 ] final -103.06 input  179.99 | X-H torsion
[ 2577 2569 2568 2566 ] final  -90.88 input   -0.13 | X-H torsion
[ 2891 2887 2886 2883 ] final -144.14 input  179.98 | X-H torsion
[ 3175 3171 3170 3167 ] final    0.83 input -179.99 | X-H torsion
[ 5278 5270 5269 5267 ] final -106.33 input    0.55 | X-H torsion
[  641  637  636  633 ] final   62.27 input  179.99 | X-H torsion
[ 1886 1878 1877 1875 ] final -117.70 input    1.60 | X-H torsion
[  965  957  956  954 ] final   71.89 input    0.45 | X-H torsion

>  <Gold.Protein.ActiveResidues>  (72) 
 LYS47   THR48   LEU49   GLY50   THR51   GLY52   SER53   PHE54   GLY55   ARG56  
 VAL57   MET58   LEU59   TYR69   ALA70   MET71   LYS72   ILE73   LEU74   GLU91  
 LEU95   VAL104  LYS105  MET118  VAL119  MET120  GLU121  TYR122  VAL123  PRO124 
 GLY125  GLY126  GLU127  MET128  PHE129  TYR164  ASP166  LEU167  LYS168  PRO169 
 GLU170  ASN171  LEU172  LEU173  ILE174  GLN181  VAL182  THR183  ASP184  PHE185 
 GLY186  PHE187  GLY200  THR201  ASN326  PHE327  TYR330  ARG18   ARG19   ASN20  
 ALA21   ILE22   HIS23  

>  <Gold.Protein.RotatedAtoms>  (72) 
    9.9294   19.6964    8.6900 H   0  0  0  0  0  0  0  0  0  0  0  0  # atno 641  bound_to 637 
   15.8800   13.5728    7.3765 H   0  0  0  0  0  0  0  0  0  0  0  0  # atno 681  bound_to 677 
   20.8717   11.5790   -0.5192 H   0  0  0  0  0  0  0  0  0  0  0  0  # atno 702  bound_to 698 
   -7.1210   15.7835   -0.1102 H   0  0  0  0  0  0  0  0  0  0  0  0  # atno 965  bound_to 957 
    0.9169   10.7020   10.7914 H   0  0  0  0  0  0  0  0  0  0  0  0  # atno 1886 bound_to 1878
   10.9745    2.9963   -3.0917 H   0  0  0  0  0  0  0  0  0  0  0  0  # atno 2577 bound_to 2569
    7.1885    6.2129    1.5813 H   0  0  0  0  0  0  0  0  0  0  0  0  # atno 2891 bound_to 2887
   19.1241    2.7464   -1.2250 H   0  0  0  0  0  0  0  0  0  0  0  0  # atno 3175 bound_to 3171
   13.9941    9.8465   10.3596 H   0  0  0  0  0  0  0  0  0  0  0  0  # atno 5278 bound_to 5270
   17.2822   13.6676    6.6274 LP  0  0  0  0  0  0  0  0  0  0  0  0  # atno 5914 bound_to 677 
   16.1778   12.5441    6.1978 LP  0  0  0  0  0  0  0  0  0  0  0  0  # atno 5915 bound_to 677 
   20.4482   11.6668   -2.0522 LP  0  0  0  0  0  0  0  0  0  0  0  0  # atno 5920 bound_to 698 
   19.3392   11.8405   -0.8662 LP  0  0  0  0  0  0  0  0  0  0  0  0  # atno 5921 bound_to 698 
   10.1274    1.8697   -2.3512 LP  0  0  0  0  0  0  0  0  0  0  0  0  # atno 5950 bound_to 2569
    9.3878    3.0397   -3.2177 LP  0  0  0  0  0  0  0  0  0  0  0  0  # atno 5951 bound_to 2569
    8.2387    6.7782    0.5258 LP  0  0  0  0  0  0  0  0  0  0  0  0  # atno 5982 bound_to 2887
    7.8706    5.1879    0.5711 LP  0  0  0  0  0  0  0  0  0  0  0  0  # atno 5983 bound_to 2887
   18.8723    2.7875    0.3468 LP  0  0  0  0  0  0  0  0  0  0  0  0  # atno 6000 bound_to 3171
   17.8895    1.9309   -0.6365 LP  0  0  0  0  0  0  0  0  0  0  0  0  # atno 6001 bound_to 3171
   13.9848   10.2116    8.8093 LP  0  0  0  0  0  0  0  0  0  0  0  0  # atno 6004 bound_to 5270
   12.5878    9.9954    9.6268 LP  0  0  0  0  0  0  0  0  0  0  0  0  # atno 6005 bound_to 5270
   10.1031   18.9837    7.2768 LP  0  0  0  0  0  0  0  0  0  0  0  0  # atno 6055 bound_to 637 
   11.4040   19.3740    8.1834 LP  0  0  0  0  0  0  0  0  0  0  0  0  # atno 6056 bound_to 637 
    1.1268   12.2685   10.9850 LP  0  0  0  0  0  0  0  0  0  0  0  0  # atno 6063 bound_to 1878
    2.2933   11.3441   10.3130 LP  0  0  0  0  0  0  0  0  0  0  0  0  # atno 6064 bound_to 1878
   -6.4763   15.8382   -1.5650 LP  0  0  0  0  0  0  0  0  0  0  0  0  # atno 6067 bound_to 957 
   -6.8320   17.2106   -0.7545 LP  0  0  0  0  0  0  0  0  0  0  0  0  # atno 6068 bound_to 957 

>  <STRIFE_LigEff_Score>  (72) 
2.653776923076923

$$$$
unknown|pharmsElabsTestPreDocking|sdf|73|dock7
     RDKit          3D

 18 18  0  0  0  0  0  0  0  0999 V2000
    5.1929    9.2011    1.3728 C   0  0  0  0  0  0  0  0  0  0  0  0
    4.7665    9.0945    2.6341 C   0  0  0  0  0  0  0  0  0  0  0  0
    3.2969    8.8919    2.9047 C   0  0  0  0  0  0  0  0  0  0  0  0
    5.7277    9.3233    3.7532 C   0  0  0  0  0  0  0  0  0  0  0  0
    5.3645   10.0934    4.7962 C   0  0  0  0  0  0  0  0  0  0  0  0
    6.2781   10.3980    5.9427 C   0  0  0  0  0  0  0  0  0  0  0  0
    7.0811    8.8302    3.6791 N   0  0  0  0  0  0  0  0  0  0  0  0
    8.0701    9.2914    2.7507 C   0  0  0  0  0  0  0  0  0  0  0  0
    7.7571   10.0892    1.8217 O   0  0  0  0  0  0  0  0  0  0  0  0
    9.4983    8.8230    2.9018 C   0  0  0  0  0  0  0  0  0  0  0  0
    9.9194    8.0491    1.6585 C   0  0  0  0  0  0  0  0  0  0  0  0
   11.3069    7.4467    1.7894 C   0  0  0  0  0  0  0  0  0  0  0  0
   12.3424    8.3432    2.4945 C   0  0  0  0  0  0  0  0  0  0  0  0
   13.8399    8.1133    2.0831 C   0  0  0  0  0  0  0  0  0  0  0  0
   14.8143    7.7816    3.2234 C   0  0  0  0  0  0  0  0  0  0  0  0
   13.9761    7.1306    1.0019 N   0  0  0  0  0  0  0  0  0  0  0  0
   11.9257    9.7350    3.0146 C   0  0  0  0  0  0  0  0  0  0  0  0
   10.4172   10.0280    3.1304 C   0  0  0  0  0  0  0  0  0  0  0  0
  1  2  2  0
  2  3  1  0
  2  4  1  0
  4  5  2  0
  5  6  1  0
  4  7  1  0
  7  8  1  0
  8  9  2  0
  8 10  1  0
 10 11  1  0
 11 12  1  0
 12 13  1  0
 13 14  1  0
 14 15  1  0
 14 16  1  0
 13 17  1  0
 17 18  1  0
 18 10  1  0
M  CHG  1  16   1
M  END
>  <EmbedRMS>  (73) 
0.16480955270904202

>  <Gold.Version>  (73) 
2020.3.0

>  <Gold.Id.Protein>  (73) 
unknown|1q8t_protein|pdb

>  <Gold.PLP.Fitness>  (73) 
47.5170

>  <Gold.PLP.PLP>  (73) 
-41.6254

>  <Gold.PLP.part.hbond>  (73) 
-2.0000

>  <Gold.PLP.part.metal>  (73) 
0.0000

>  <Gold.PLP.part.buried>  (73) 
-3.1654

>  <Gold.PLP.part.nonpolar>  (73) 
-36.7914

>  <Gold.PLP.part.repulsive>  (73) 
0.0599

>  <Gold.PLP.ligand.clash>  (73) 
0.0000

>  <Gold.PLP.ligand.torsion>  (73) 
2.3223

>  <Gold.PLP.Chemscore.Hbond>  (73) 
3.0000

>  <Gold.PLP.Chemscore.CHOScore>  (73) 
0.0000

>  <Gold.PLP.Chemscore.Metal>  (73) 
0.0000

>  <Gold.Chemscore.Hbonds>  (73) 
donor molecule, donor type, donor heavy atom, donor atom, acceptor molecule, acceptor atom, score
      L1  H    16    40       P1  2691  1.00
      L1  H    16    41       P1  2902  2.00

>  <Gold.PLP.Chemscore.Internal.Correction>  (73) 
1.5361

>  <Gold.PLP.Constraint>  (73) 
-0.0000

>  <Gold.Protein.RotatedTorsions>  (73) 
[  681  677  676  673 ] final  -81.20 input -179.99 | X-H torsion
[  702  698  697  694 ] final  -81.67 input  179.99 | X-H torsion
[ 2577 2569 2568 2566 ] final -108.90 input   -0.13 | X-H torsion
[ 2891 2887 2886 2883 ] final   19.02 input  179.98 | X-H torsion
[ 3175 3171 3170 3167 ] final   -1.34 input -179.99 | X-H torsion
[ 5278 5270 5269 5267 ] final -165.13 input    0.55 | X-H torsion
[  641  637  636  633 ] final  166.96 input  179.99 | X-H torsion
[ 1886 1878 1877 1875 ] final   23.18 input    1.60 | X-H torsion
[  965  957  956  954 ] final  131.87 input    0.45 | X-H torsion

>  <Gold.Protein.ActiveResidues>  (73) 
 LYS47   THR48   LEU49   GLY50   THR51   GLY52   SER53   PHE54   GLY55   ARG56  
 VAL57   MET58   LEU59   TYR69   ALA70   MET71   LYS72   ILE73   LEU74   GLU91  
 LEU95   VAL104  LYS105  MET118  VAL119  MET120  GLU121  TYR122  VAL123  PRO124 
 GLY125  GLY126  GLU127  MET128  PHE129  TYR164  ASP166  LEU167  LYS168  PRO169 
 GLU170  ASN171  LEU172  LEU173  ILE174  GLN181  VAL182  THR183  ASP184  PHE185 
 GLY186  PHE187  GLY200  THR201  ASN326  PHE327  TYR330  ARG18   ARG19   ASN20  
 ALA21   ILE22   HIS23  

>  <Gold.Protein.RotatedAtoms>  (73) 
   11.2955   19.4663    8.3887 H   0  0  0  0  0  0  0  0  0  0  0  0  # atno 641  bound_to 637 
   15.7570   13.4252    7.3063 H   0  0  0  0  0  0  0  0  0  0  0  0  # atno 681  bound_to 677 
   20.6057   11.6224   -0.3242 H   0  0  0  0  0  0  0  0  0  0  0  0  # atno 702  bound_to 698 
   -7.1322   16.6775   -0.0668 H   0  0  0  0  0  0  0  0  0  0  0  0  # atno 965  bound_to 957 
    2.2353   11.6699   10.3752 H   0  0  0  0  0  0  0  0  0  0  0  0  # atno 1886 bound_to 1878
   11.0609    2.7802   -2.9353 H   0  0  0  0  0  0  0  0  0  0  0  0  # atno 2577 bound_to 2569
    8.2249    5.6686    0.2504 H   0  0  0  0  0  0  0  0  0  0  0  0  # atno 2891 bound_to 2887
   19.1442    2.7641   -1.2040 H   0  0  0  0  0  0  0  0  0  0  0  0  # atno 3175 bound_to 3171
   14.4262   10.0343    9.6166 H   0  0  0  0  0  0  0  0  0  0  0  0  # atno 5278 bound_to 5270
   17.2183   13.7925    6.7908 LP  0  0  0  0  0  0  0  0  0  0  0  0  # atno 5914 bound_to 677 
   16.3712   12.5747    6.1082 LP  0  0  0  0  0  0  0  0  0  0  0  0  # atno 5915 bound_to 677 
   20.7623   11.6084   -1.9093 LP  0  0  0  0  0  0  0  0  0  0  0  0  # atno 5920 bound_to 698 
   19.3050   11.8533   -1.2143 LP  0  0  0  0  0  0  0  0  0  0  0  0  # atno 5921 bound_to 698 
    9.8391    1.9104   -2.4005 LP  0  0  0  0  0  0  0  0  0  0  0  0  # atno 5950 bound_to 2569
    9.5852    3.2266   -3.3331 LP  0  0  0  0  0  0  0  0  0  0  0  0  # atno 5951 bound_to 2569
    7.1854    5.5478    1.4510 LP  0  0  0  0  0  0  0  0  0  0  0  0  # atno 5982 bound_to 2887
    7.8331    6.9912    1.0465 LP  0  0  0  0  0  0  0  0  0  0  0  0  # atno 5983 bound_to 2887
   18.8447    2.7689    0.3599 LP  0  0  0  0  0  0  0  0  0  0  0  0  # atno 6000 bound_to 3171
   17.8959    1.9310   -0.6718 LP  0  0  0  0  0  0  0  0  0  0  0  0  # atno 6001 bound_to 3171
   13.0593   10.2003    8.8162 LP  0  0  0  0  0  0  0  0  0  0  0  0  # atno 6004 bound_to 5270
   13.0587    9.8092   10.4016 LP  0  0  0  0  0  0  0  0  0  0  0  0  # atno 6005 bound_to 5270
    9.7234   19.6571    8.5540 LP  0  0  0  0  0  0  0  0  0  0  0  0  # atno 6055 bound_to 637 
   10.3450   18.9430    7.2235 LP  0  0  0  0  0  0  0  0  0  0  0  0  # atno 6056 bound_to 637 
    1.1722   10.5211   10.6669 LP  0  0  0  0  0  0  0  0  0  0  0  0  # atno 6063 bound_to 1878
    0.8600   12.0726   11.0692 LP  0  0  0  0  0  0  0  0  0  0  0  0  # atno 6064 bound_to 1878
   -6.8084   15.3272   -0.8460 LP  0  0  0  0  0  0  0  0  0  0  0  0  # atno 6067 bound_to 957 
   -6.4881   16.7801   -1.5193 LP  0  0  0  0  0  0  0  0  0  0  0  0  # atno 6068 bound_to 957 

>  <STRIFE_LigEff_Score>  (73) 
2.6398333333333337

$$$$
unknown|pharmsElabsTestPreDocking|sdf|74|dock3
     RDKit          3D

 17 18  0  0  0  0  0  0  0  0999 V2000
   14.1659    9.2359    1.4065 C   0  0  0  0  0  0  0  0  0  0  0  0
   13.3912    8.0470    1.9751 C   0  0  0  0  0  0  0  0  0  0  0  0
   13.1125    7.0527    0.9299 N   0  0  0  0  0  0  0  0  0  0  0  0
   12.1555    8.3363    2.8498 C   0  0  0  0  0  0  0  0  0  0  0  0
   11.1738    7.1853    3.1974 C   0  0  0  0  0  0  0  0  0  0  0  0
    9.7262    7.4099    2.7858 C   0  0  0  0  0  0  0  0  0  0  0  0
    9.2544    8.8180    3.1425 C   0  0  0  0  0  0  0  0  0  0  0  0
    7.7840    8.9656    2.8598 C   0  0  0  0  0  0  0  0  0  0  0  0
    7.3655    8.8964    1.6719 O   0  0  0  0  0  0  0  0  0  0  0  0
    6.8813    9.2080    3.9480 N   0  0  0  0  0  0  0  0  0  0  0  0
    5.4597    9.3495    3.8345 C   0  0  0  0  0  0  0  0  0  0  0  0
    4.6339    8.8182    2.8558 C   0  0  0  0  0  0  0  0  0  0  0  0
    3.3773    9.2570    3.2105 C   0  0  0  0  0  0  0  0  0  0  0  0
    3.4718    9.9976    4.3287 N   0  0  0  0  0  0  0  0  0  0  0  0
    4.7337   10.0606    4.7167 N   0  0  0  0  0  0  0  0  0  0  0  0
   10.0526    9.8319    2.3301 C   0  0  0  0  0  0  0  0  0  0  0  0
   11.5491    9.7555    2.6262 C   0  0  0  0  0  0  0  0  0  0  0  0
  1  2  1  0
  2  3  1  0
  2  4  1  0
  4  5  1  0
  5  6  1  0
  6  7  1  0
  7  8  1  0
  8  9  2  0
  8 10  1  0
 10 11  1  0
 11 12  1  0
 12 13  2  0
 13 14  1  0
 14 15  1  0
  7 16  1  0
 16 17  1  0
 17  4  1  0
 15 11  2  0
M  CHG  1   3   1
M  END
>  <EmbedRMS>  (74) 
0.20783527019262546

>  <Gold.Version>  (74) 
2020.3.0

>  <Gold.Id.Protein>  (74) 
unknown|1q8t_protein|pdb

>  <Gold.PLP.Fitness>  (74) 
45.8229

>  <Gold.PLP.PLP>  (74) 
-33.8902

>  <Gold.PLP.part.hbond>  (74) 
-2.4874

>  <Gold.PLP.part.metal>  (74) 
0.0000

>  <Gold.PLP.part.buried>  (74) 
-4.5493

>  <Gold.PLP.part.nonpolar>  (74) 
-27.3557

>  <Gold.PLP.part.repulsive>  (74) 
0.1686

>  <Gold.PLP.ligand.clash>  (74) 
0.0000

>  <Gold.PLP.ligand.torsion>  (74) 
0.9753

>  <Gold.PLP.Chemscore.Hbond>  (74) 
3.4960

>  <Gold.PLP.Chemscore.CHOScore>  (74) 
0.9970

>  <Gold.PLP.Chemscore.Metal>  (74) 
0.0000

>  <Gold.Chemscore.Hbonds>  (74) 
donor molecule, donor type, donor heavy atom, donor atom, acceptor molecule, acceptor atom, score
      L1  H     3    22       P1  2902  1.95
      L1  H     3    23       P1  2691  0.54
      P1  H  2887  2891       L1     9  1.00
      L1  C    13    33       P1  1855  1.00

>  <Gold.PLP.Chemscore.Internal.Correction>  (74) 
0.4043

>  <Gold.PLP.Constraint>  (74) 
-0.0000

>  <Gold.Protein.RotatedTorsions>  (74) 
[  681  677  676  673 ] final  149.11 input -179.99 | X-H torsion
[  702  698  697  694 ] final   -7.72 input  179.99 | X-H torsion
[ 2577 2569 2568 2566 ] final  -20.74 input   -0.13 | X-H torsion
[ 2891 2887 2886 2883 ] final  159.57 input  179.98 | X-H torsion
[ 3175 3171 3170 3167 ] final  -63.36 input -179.99 | X-H torsion
[ 5278 5270 5269 5267 ] final  -51.09 input    0.55 | X-H torsion
[  641  637  636  633 ] final   -0.75 input  179.99 | X-H torsion
[ 1886 1878 1877 1875 ] final   42.10 input    1.60 | X-H torsion
[  965  957  956  954 ] final -142.54 input    0.45 | X-H torsion

>  <Gold.Protein.ActiveResidues>  (74) 
 LYS47   THR48   LEU49   GLY50   THR51   GLY52   SER53   PHE54   GLY55   ARG56  
 VAL57   MET58   LEU59   TYR69   ALA70   MET71   LYS72   ILE73   LEU74   GLU91  
 LEU95   VAL104  LYS105  MET118  VAL119  MET120  GLU121  TYR122  VAL123  PRO124 
 GLY125  GLY126  GLU127  MET128  PHE129  TYR164  ASP166  LEU167  LYS168  PRO169 
 GLU170  ASN171  LEU172  LEU173  ILE174  GLN181  VAL182  THR183  ASP184  PHE185 
 GLY186  PHE187  GLY200  THR201  ASN326  PHE327  TYR330  ARG18   ARG19   ASN20  
 ALA21   ILE22   HIS23  

>  <Gold.Protein.RotatedAtoms>  (74) 
    9.5884   19.3153    7.9062 H   0  0  0  0  0  0  0  0  0  0  0  0  # atno 641  bound_to 637 
   17.2215   13.6914    6.6630 H   0  0  0  0  0  0  0  0  0  0  0  0  # atno 681  bound_to 677 
   19.5672   11.8107   -0.5443 H   0  0  0  0  0  0  0  0  0  0  0  0  # atno 702  bound_to 698 
   -6.6555   17.0943   -1.1056 H   0  0  0  0  0  0  0  0  0  0  0  0  # atno 965  bound_to 957 
    2.1364   11.9328   10.4637 H   0  0  0  0  0  0  0  0  0  0  0  0  # atno 1886 bound_to 1878
   10.0672    3.3613   -3.4117 H   0  0  0  0  0  0  0  0  0  0  0  0  # atno 2577 bound_to 2569
    7.6054    6.8724    1.2564 H   0  0  0  0  0  0  0  0  0  0  0  0  # atno 2891 bound_to 2887
   19.3382    3.0210   -0.3390 H   0  0  0  0  0  0  0  0  0  0  0  0  # atno 3175 bound_to 3171
   13.1650    9.8260   10.4077 H   0  0  0  0  0  0  0  0  0  0  0  0  # atno 5278 bound_to 5270
   16.2274   12.5485    6.1714 LP  0  0  0  0  0  0  0  0  0  0  0  0  # atno 5914 bound_to 677 
   15.8206   13.5384    7.4048 LP  0  0  0  0  0  0  0  0  0  0  0  0  # atno 5915 bound_to 677 
   21.1078   11.5263   -0.8322 LP  0  0  0  0  0  0  0  0  0  0  0  0  # atno 5920 bound_to 698 
   20.0519   11.7372   -2.0599 LP  0  0  0  0  0  0  0  0  0  0  0  0  # atno 5921 bound_to 698 
   11.0440    2.3734   -2.6338 LP  0  0  0  0  0  0  0  0  0  0  0  0  # atno 5950 bound_to 2569
    9.4266    2.1516   -2.5983 LP  0  0  0  0  0  0  0  0  0  0  0  0  # atno 5951 bound_to 2569
    8.3615    5.9645    0.1885 LP  0  0  0  0  0  0  0  0  0  0  0  0  # atno 5982 bound_to 2887
    7.3090    5.3076    1.2503 LP  0  0  0  0  0  0  0  0  0  0  0  0  # atno 5983 bound_to 2887
   18.0880    2.1854    0.1847 LP  0  0  0  0  0  0  0  0  0  0  0  0  # atno 6000 bound_to 3171
   18.4485    2.2440   -1.4069 LP  0  0  0  0  0  0  0  0  0  0  0  0  # atno 6001 bound_to 3171
   14.4681   10.0420    9.5177 LP  0  0  0  0  0  0  0  0  0  0  0  0  # atno 6004 bound_to 5270
   12.9770   10.1867    8.8678 LP  0  0  0  0  0  0  0  0  0  0  0  0  # atno 6005 bound_to 5270
   11.0763   19.0077    7.4302 LP  0  0  0  0  0  0  0  0  0  0  0  0  # atno 6055 bound_to 637 
   10.7900   19.7515    8.8555 LP  0  0  0  0  0  0  0  0  0  0  0  0  # atno 6056 bound_to 637 
    1.4534   10.4964   10.5387 LP  0  0  0  0  0  0  0  0  0  0  0  0  # atno 6063 bound_to 1878
    0.6830   11.8206   11.1042 LP  0  0  0  0  0  0  0  0  0  0  0  0  # atno 6064 bound_to 1878
   -7.2087   16.1500    0.0508 LP  0  0  0  0  0  0  0  0  0  0  0  0  # atno 6067 bound_to 957 
   -6.5899   15.5183   -1.3220 LP  0  0  0  0  0  0  0  0  0  0  0  0  # atno 6068 bound_to 957 

>  <STRIFE_LigEff_Score>  (74) 
2.695464705882353

$$$$
unknown|pharmsElabsTestPreDocking|sdf|75|dock2
     RDKit          3D

 18 19  0  0  0  0  0  0  0  0999 V2000
   14.8596    7.8919    3.4212 C   0  0  0  0  0  0  0  0  0  0  0  0
   13.9033    8.2488    2.2732 C   0  0  0  0  0  0  0  0  0  0  0  0
   14.0367    7.2745    1.1843 N   0  0  0  0  0  0  0  0  0  0  0  0
   12.4057    8.4967    2.6693 C   0  0  0  0  0  0  0  0  0  0  0  0
   11.4101    7.4030    2.2402 C   0  0  0  0  0  0  0  0  0  0  0  0
    9.9916    7.8860    2.0119 C   0  0  0  0  0  0  0  0  0  0  0  0
    9.5506    8.9146    3.0476 C   0  0  0  0  0  0  0  0  0  0  0  0
    8.1020    9.2569    2.8171 C   0  0  0  0  0  0  0  0  0  0  0  0
    7.7599    9.7599    1.7132 O   0  0  0  0  0  0  0  0  0  0  0  0
    7.1471    9.0332    3.8654 N   0  0  0  0  0  0  0  0  0  0  0  0
    5.7275    9.2806    3.8169 C   0  0  0  0  0  0  0  0  0  0  0  0
    5.1054    9.8248    4.9509 C   0  0  0  0  0  0  0  0  0  0  0  0
    3.7368   10.0869    4.9488 C   0  0  0  0  0  0  0  0  0  0  0  0
    2.9890    9.8035    3.8081 C   0  0  0  0  0  0  0  0  0  0  0  0
    3.5936    9.2774    2.7142 N   0  0  0  0  0  0  0  0  0  0  0  0
    4.9232    9.0115    2.6870 C   0  0  0  0  0  0  0  0  0  0  0  0
   10.4021   10.1857    2.9503 C   0  0  0  0  0  0  0  0  0  0  0  0
   11.9209    9.9508    2.8465 C   0  0  0  0  0  0  0  0  0  0  0  0
  1  2  1  0
  2  3  1  0
  2  4  1  0
  4  5  1  0
  5  6  1  0
  6  7  1  0
  7  8  1  0
  8  9  2  0
  8 10  1  0
 10 11  1  0
 11 12  2  0
 12 13  1  0
 13 14  2  0
 14 15  1  0
 15 16  2  0
  7 17  1  0
 17 18  1  0
 18  4  1  0
 16 11  1  0
M  CHG  1   3   1
M  END
>  <EmbedRMS>  (75) 
0.16496192233382964

>  <Gold.Version>  (75) 
2020.3.0

>  <Gold.Id.Protein>  (75) 
unknown|1q8t_protein|pdb

>  <Gold.PLP.Fitness>  (75) 
51.7870

>  <Gold.PLP.PLP>  (75) 
-42.4072

>  <Gold.PLP.part.hbond>  (75) 
-2.0000

>  <Gold.PLP.part.metal>  (75) 
0.0000

>  <Gold.PLP.part.buried>  (75) 
-3.2372

>  <Gold.PLP.part.nonpolar>  (75) 
-37.4568

>  <Gold.PLP.part.repulsive>  (75) 
0.1262

>  <Gold.PLP.ligand.clash>  (75) 
0.0000

>  <Gold.PLP.ligand.torsion>  (75) 
1.5349

>  <Gold.PLP.Chemscore.Hbond>  (75) 
3.0000

>  <Gold.PLP.Chemscore.CHOScore>  (75) 
0.9615

>  <Gold.PLP.Chemscore.Metal>  (75) 
0.0000

>  <Gold.Chemscore.Hbonds>  (75) 
donor molecule, donor type, donor heavy atom, donor atom, acceptor molecule, acceptor atom, score
      L1  H     3    24       P1  2902  2.00
      L1  H     3    25       P1  2691  1.00
      L1  C    14    35       P1  1855  0.96

>  <Gold.PLP.Chemscore.Internal.Correction>  (75) 
0.5653

>  <Gold.PLP.Constraint>  (75) 
-0.0000

>  <Gold.Protein.RotatedTorsions>  (75) 
[  681  677  676  673 ] final  -87.23 input -179.99 | X-H torsion
[  702  698  697  694 ] final -159.26 input  179.99 | X-H torsion
[ 2577 2569 2568 2566 ] final    7.40 input   -0.13 | X-H torsion
[ 2891 2887 2886 2883 ] final  129.09 input  179.98 | X-H torsion
[ 3175 3171 3170 3167 ] final  132.53 input -179.99 | X-H torsion
[ 5278 5270 5269 5267 ] final  103.13 input    0.55 | X-H torsion
[  641  637  636  633 ] final -144.18 input  179.99 | X-H torsion
[ 1886 1878 1877 1875 ] final  166.60 input    1.60 | X-H torsion
[  965  957  956  954 ] final  -15.80 input    0.45 | X-H torsion

>  <Gold.Protein.ActiveResidues>  (75) 
 LYS47   THR48   LEU49   GLY50   THR51   GLY52   SER53   PHE54   GLY55   ARG56  
 VAL57   MET58   LEU59   TYR69   ALA70   MET71   LYS72   ILE73   LEU74   GLU91  
 LEU95   VAL104  LYS105  MET118  VAL119  MET120  GLU121  TYR122  VAL123  PRO124 
 GLY125  GLY126  GLU127  MET128  PHE129  TYR164  ASP166  LEU167  LYS168  PRO169 
 GLU170  ASN171  LEU172  LEU173  ILE174  GLN181  VAL182  THR183  ASP184  PHE185 
 GLY186  PHE187  GLY200  THR201  ASN326  PHE327  TYR330  ARG18   ARG19   ASN20  
 ALA21   ILE22   HIS23  

>  <Gold.Protein.RotatedAtoms>  (75) 
   11.2693   19.1309    7.7290 H   0  0  0  0  0  0  0  0  0  0  0  0  # atno 641  bound_to 637 
   15.8095   13.4945    7.3425 H   0  0  0  0  0  0  0  0  0  0  0  0  # atno 681  bound_to 677 
   21.0940   11.5553   -1.3334 H   0  0  0  0  0  0  0  0  0  0  0  0  # atno 702  bound_to 698 
   -6.6233   15.4973   -1.2097 H   0  0  0  0  0  0  0  0  0  0  0  0  # atno 965  bound_to 957 
    0.6850   11.7393   11.0706 H   0  0  0  0  0  0  0  0  0  0  0  0  # atno 1886 bound_to 1878
    9.6619    3.2181   -3.3419 H   0  0  0  0  0  0  0  0  0  0  0  0  # atno 2577 bound_to 2569
    7.9181    6.9435    0.9113 H   0  0  0  0  0  0  0  0  0  0  0  0  # atno 2891 bound_to 2887
   17.9220    1.9579   -0.4472 H   0  0  0  0  0  0  0  0  0  0  0  0  # atno 3175 bound_to 3171
   13.5033   10.2398    8.7445 H   0  0  0  0  0  0  0  0  0  0  0  0  # atno 5278 bound_to 5270
   17.2530   13.7382    6.7155 LP  0  0  0  0  0  0  0  0  0  0  0  0  # atno 5914 bound_to 677 
   16.2812   12.5560    6.1455 LP  0  0  0  0  0  0  0  0  0  0  0  0  # atno 5915 bound_to 677 
   19.6015   11.8125   -1.8271 LP  0  0  0  0  0  0  0  0  0  0  0  0  # atno 5920 bound_to 698 
   19.9521   11.7197   -0.2349 LP  0  0  0  0  0  0  0  0  0  0  0  0  # atno 5921 bound_to 698 
   11.1141    2.7480   -2.8887 LP  0  0  0  0  0  0  0  0  0  0  0  0  # atno 5950 bound_to 2569
    9.7832    1.9279   -2.4168 LP  0  0  0  0  0  0  0  0  0  0  0  0  # atno 5951 bound_to 2569
    8.1902    5.5079    0.2776 LP  0  0  0  0  0  0  0  0  0  0  0  0  # atno 5982 bound_to 2887
    7.1513    5.6894    1.5244 LP  0  0  0  0  0  0  0  0  0  0  0  0  # atno 5983 bound_to 2887
   19.0134    2.6681   -1.3637 LP  0  0  0  0  0  0  0  0  0  0  0  0  # atno 6000 bound_to 3171
   19.0135    2.8802    0.2554 LP  0  0  0  0  0  0  0  0  0  0  0  0  # atno 6001 bound_to 3171
   12.7284    9.8828   10.0895 LP  0  0  0  0  0  0  0  0  0  0  0  0  # atno 6004 bound_to 5270
   14.3606    9.9105   10.0459 LP  0  0  0  0  0  0  0  0  0  0  0  0  # atno 6005 bound_to 5270
   10.4113   19.7930    8.8954 LP  0  0  0  0  0  0  0  0  0  0  0  0  # atno 6055 bound_to 637 
    9.6847   19.1603    7.5769 LP  0  0  0  0  0  0  0  0  0  0  0  0  # atno 6056 bound_to 637 
    2.1432   12.0152   10.4937 LP  0  0  0  0  0  0  0  0  0  0  0  0  # atno 6063 bound_to 1878
    1.5211   10.5054   10.5104 LP  0  0  0  0  0  0  0  0  0  0  0  0  # atno 6064 bound_to 1878
   -6.6215   17.0895   -1.2196 LP  0  0  0  0  0  0  0  0  0  0  0  0  # atno 6067 bound_to 957 
   -7.2109   16.2607    0.0580 LP  0  0  0  0  0  0  0  0  0  0  0  0  # atno 6068 bound_to 957 

>  <STRIFE_LigEff_Score>  (75) 
2.8770555555555557

$$$$
unknown|pharmsElabsTestPreDocking|sdf|76|dock5
     RDKit          3D

 17 18  0  0  0  0  0  0  0  0999 V2000
   13.3966    7.4376    3.8236 C   0  0  0  0  0  0  0  0  0  0  0  0
   13.0977    8.1803    2.5063 C   0  0  0  0  0  0  0  0  0  0  0  0
   13.4295    7.3051    1.3745 N   0  0  0  0  0  0  0  0  0  0  0  0
   11.6103    8.6412    2.4768 C   0  0  0  0  0  0  0  0  0  0  0  0
   10.6790    7.4116    2.4536 C   0  0  0  0  0  0  0  0  0  0  0  0
    9.2342    7.8505    2.2636 C   0  0  0  0  0  0  0  0  0  0  0  0
    8.8052    8.7709    3.4112 C   0  0  0  0  0  0  0  0  0  0  0  0
    7.3756    9.1914    3.2308 C   0  0  0  0  0  0  0  0  0  0  0  0
    7.0250    9.7886    2.1771 O   0  0  0  0  0  0  0  0  0  0  0  0
    6.4323    8.9073    4.2726 N   0  0  0  0  0  0  0  0  0  0  0  0
    5.0627    9.2179    4.2159 N   0  0  0  0  0  0  0  0  0  0  0  0
    4.2273    9.5929    5.2012 C   0  0  0  0  0  0  0  0  0  0  0  0
    2.9972    9.7741    4.6896 N   0  0  0  0  0  0  0  0  0  0  0  0
    3.1063    9.5049    3.3948 N   0  0  0  0  0  0  0  0  0  0  0  0
    4.3530    9.1680    3.1055 N   0  0  0  0  0  0  0  0  0  0  0  0
    9.7325    9.9927    3.5292 C   0  0  0  0  0  0  0  0  0  0  0  0
   11.2032    9.5608    3.6549 C   0  0  0  0  0  0  0  0  0  0  0  0
  1  2  1  0
  2  3  1  0
  2  4  1  0
  4  5  1  0
  5  6  1  0
  6  7  1  0
  7  8  1  0
  8  9  2  0
  8 10  1  0
 10 11  1  0
 11 12  1  0
 12 13  2  0
 13 14  1  0
 14 15  2  0
  7 16  1  0
 16 17  1  0
 17  4  1  0
 15 11  1  0
M  CHG  1   3   1
M  END
>  <EmbedRMS>  (76) 
0.030620254940186248

>  <Gold.Version>  (76) 
2020.3.0

>  <Gold.Id.Protein>  (76) 
unknown|1q8t_protein|pdb

>  <Gold.PLP.Fitness>  (76) 
47.0021

>  <Gold.PLP.PLP>  (76) 
-35.5760

>  <Gold.PLP.part.hbond>  (76) 
-3.4817

>  <Gold.PLP.part.metal>  (76) 
0.0000

>  <Gold.PLP.part.buried>  (76) 
-6.3932

>  <Gold.PLP.part.nonpolar>  (76) 
-26.1328

>  <Gold.PLP.part.repulsive>  (76) 
0.3285

>  <Gold.PLP.ligand.clash>  (76) 
0.0000

>  <Gold.PLP.ligand.torsion>  (76) 
0.3014

>  <Gold.PLP.Chemscore.Hbond>  (76) 
4.0000

>  <Gold.PLP.Chemscore.CHOScore>  (76) 
0.0000

>  <Gold.PLP.Chemscore.Metal>  (76) 
0.0000

>  <Gold.Chemscore.Hbonds>  (76) 
donor molecule, donor type, donor heavy atom, donor atom, acceptor molecule, acceptor atom, score
      L1  H     3    22       P1  2691  1.00
      L1  H     3    24       P1  2902  2.00
      P1  H  1888  1903       L1    13  1.00

>  <Gold.PLP.Chemscore.Internal.Correction>  (76) 
0.0288

>  <Gold.PLP.Constraint>  (76) 
-0.0000

>  <Gold.Protein.RotatedTorsions>  (76) 
[  681  677  676  673 ] final   -0.74 input -179.99 | X-H torsion
[  702  698  697  694 ] final   23.92 input  179.99 | X-H torsion
[ 2577 2569 2568 2566 ] final -152.71 input   -0.13 | X-H torsion
[ 2891 2887 2886 2883 ] final   33.53 input  179.98 | X-H torsion
[ 3175 3171 3170 3167 ] final -117.54 input -179.99 | X-H torsion
[ 5278 5270 5269 5267 ] final  -61.33 input    0.55 | X-H torsion
[  641  637  636  633 ] final  119.93 input  179.99 | X-H torsion
[ 1886 1878 1877 1875 ] final   83.55 input    1.60 | X-H torsion
[  965  957  956  954 ] final  133.83 input    0.45 | X-H torsion

>  <Gold.Protein.ActiveResidues>  (76) 
 LYS47   THR48   LEU49   GLY50   THR51   GLY52   SER53   PHE54   GLY55   ARG56  
 VAL57   MET58   LEU59   TYR69   ALA70   MET71   LYS72   ILE73   LEU74   GLU91  
 LEU95   VAL104  LYS105  MET118  VAL119  MET120  GLU121  TYR122  VAL123  PRO124 
 GLY125  GLY126  GLU127  MET128  PHE129  TYR164  ASP166  LEU167  LYS168  PRO169 
 GLU170  ASN171  LEU172  LEU173  ILE174  GLN181  VAL182  THR183  ASP184  PHE185 
 GLY186  PHE187  GLY200  THR201  ASN326  PHE327  TYR330  ARG18   ARG19   ASN20  
 ALA21   ILE22   HIS23  

>  <Gold.Protein.RotatedAtoms>  (76) 
   10.7829   19.7150    8.8198 H   0  0  0  0  0  0  0  0  0  0  0  0  # atno 641  bound_to 637 
   15.8624   12.6402    6.4627 H   0  0  0  0  0  0  0  0  0  0  0  0  # atno 681  bound_to 677 
   19.3621   11.8556   -0.9855 H   0  0  0  0  0  0  0  0  0  0  0  0  # atno 702  bound_to 698 
   -7.1260   16.7045   -0.0798 H   0  0  0  0  0  0  0  0  0  0  0  0  # atno 965  bound_to 957 
    1.6803   12.2869   10.7251 H   0  0  0  0  0  0  0  0  0  0  0  0  # atno 1886 bound_to 1878
   10.9115    2.2402   -2.5713 H   0  0  0  0  0  0  0  0  0  0  0  0  # atno 2577 bound_to 2569
    8.2988    5.8797    0.2155 H   0  0  0  0  0  0  0  0  0  0  0  0  # atno 2891 bound_to 2887
   18.8899    2.7721    0.2954 H   0  0  0  0  0  0  0  0  0  0  0  0  # atno 3175 bound_to 3171
   13.3162    9.8151   10.4584 H   0  0  0  0  0  0  0  0  0  0  0  0  # atno 5278 bound_to 5270
   16.2022   13.8335    7.4610 LP  0  0  0  0  0  0  0  0  0  0  0  0  # atno 5914 bound_to 677 
   17.2764   13.3599    6.3259 LP  0  0  0  0  0  0  0  0  0  0  0  0  # atno 5915 bound_to 677 
   20.8192   11.5693   -0.4090 LP  0  0  0  0  0  0  0  0  0  0  0  0  # atno 5920 bound_to 698 
   20.5563   11.6470   -2.0189 LP  0  0  0  0  0  0  0  0  0  0  0  0  # atno 5921 bound_to 698 
    9.3251    2.2864   -2.6993 LP  0  0  0  0  0  0  0  0  0  0  0  0  # atno 5950 bound_to 2569
   10.2565    3.4192   -3.4176 LP  0  0  0  0  0  0  0  0  0  0  0  0  # atno 5951 bound_to 2569
    7.2658    5.3695    1.3151 LP  0  0  0  0  0  0  0  0  0  0  0  0  # atno 5982 bound_to 2887
    7.6750    6.9474    1.2192 LP  0  0  0  0  0  0  0  0  0  0  0  0  # atno 5983 bound_to 2887
   17.8855    1.9313   -0.6100 LP  0  0  0  0  0  0  0  0  0  0  0  0  # atno 6000 bound_to 3171
   19.1228    2.7601   -1.2798 LP  0  0  0  0  0  0  0  0  0  0  0  0  # atno 6001 bound_to 3171
   14.4358   10.0812    9.3573 LP  0  0  0  0  0  0  0  0  0  0  0  0  # atno 6004 bound_to 5270
   12.8502   10.1590    8.9747 LP  0  0  0  0  0  0  0  0  0  0  0  0  # atno 6005 bound_to 5270
    9.5406   19.3334    7.9000 LP  0  0  0  0  0  0  0  0  0  0  0  0  # atno 6055 bound_to 637 
   11.0676   19.0048    7.4236 LP  0  0  0  0  0  0  0  0  0  0  0  0  # atno 6056 bound_to 637 
    2.0220   10.7810   10.3366 LP  0  0  0  0  0  0  0  0  0  0  0  0  # atno 6063 bound_to 1878
    0.5944   11.1632   11.0312 LP  0  0  0  0  0  0  0  0  0  0  0  0  # atno 6064 bound_to 1878
   -6.8217   15.3262   -0.8166 LP  0  0  0  0  0  0  0  0  0  0  0  0  # atno 6067 bound_to 957 
   -6.4813   16.7527   -1.5348 LP  0  0  0  0  0  0  0  0  0  0  0  0  # atno 6068 bound_to 957 

>  <STRIFE_LigEff_Score>  (76) 
2.7648294117647056

$$$$
unknown|pharmsElabsTestPreDocking|sdf|77|dock8
     RDKit          3D

 13 13  0  0  0  0  0  0  0  0999 V2000
    5.0557    9.1442    2.7392 C   0  0  0  0  0  0  0  0  0  0  0  0
    6.4594    9.1582    2.3202 N   0  0  0  0  0  0  0  0  0  0  0  0
    7.4988    9.0627    3.3049 C   0  0  0  0  0  0  0  0  0  0  0  0
    7.1876    9.0512    4.5216 O   0  0  0  0  0  0  0  0  0  0  0  0
    8.9655    8.9460    3.0137 C   0  0  0  0  0  0  0  0  0  0  0  0
    9.4901    7.5111    2.9171 C   0  0  0  0  0  0  0  0  0  0  0  0
   11.0251    7.3999    2.8085 C   0  0  0  0  0  0  0  0  0  0  0  0
   11.6338    8.6794    2.2131 C   0  0  0  0  0  0  0  0  0  0  0  0
   13.1026    8.6128    1.6921 C   0  0  0  0  0  0  0  0  0  0  0  0
   13.6826    9.8874    1.1028 C   0  0  0  0  0  0  0  0  0  0  0  0
   13.5235    7.3842    1.0271 N   0  0  0  0  0  0  0  0  0  0  0  0
   11.3626    9.8688    3.1566 C   0  0  0  0  0  0  0  0  0  0  0  0
    9.8717   10.0642    3.5048 C   0  0  0  0  0  0  0  0  0  0  0  0
  1  2  1  0
  2  3  1  0
  3  4  2  0
  3  5  1  0
  5  6  1  0
  6  7  1  0
  7  8  1  0
  8  9  1  0
  9 10  1  0
  9 11  1  0
  8 12  1  0
 12 13  1  0
 13  5  1  0
M  CHG  1  11   1
M  END
>  <EmbedRMS>  (77) 
0.29639754771625826

>  <Gold.Version>  (77) 
2020.3.0

>  <Gold.Id.Protein>  (77) 
unknown|1q8t_protein|pdb

>  <Gold.PLP.Fitness>  (77) 
34.1903

>  <Gold.PLP.PLP>  (77) 
-25.9274

>  <Gold.PLP.part.hbond>  (77) 
-2.0000

>  <Gold.PLP.part.metal>  (77) 
0.0000

>  <Gold.PLP.part.buried>  (77) 
-3.1992

>  <Gold.PLP.part.nonpolar>  (77) 
-20.3102

>  <Gold.PLP.part.repulsive>  (77) 
0.0533

>  <Gold.PLP.ligand.clash>  (77) 
0.0000

>  <Gold.PLP.ligand.torsion>  (77) 
0.5590

>  <Gold.PLP.Chemscore.Hbond>  (77) 
2.7840

>  <Gold.PLP.Chemscore.CHOScore>  (77) 
0.0000

>  <Gold.PLP.Chemscore.Metal>  (77) 
0.0000

>  <Gold.Chemscore.Hbonds>  (77) 
donor molecule, donor type, donor heavy atom, donor atom, acceptor molecule, acceptor atom, score
      L1  H    11    28       P1  2691  0.78
      L1  H    11    29       P1  2902  2.00

>  <Gold.PLP.Chemscore.Internal.Correction>  (77) 
1.0290

>  <Gold.PLP.Constraint>  (77) 
-0.0000

>  <Gold.Protein.RotatedTorsions>  (77) 
[  681  677  676  673 ] final    0.82 input -179.99 | X-H torsion
[  702  698  697  694 ] final   10.39 input  179.99 | X-H torsion
[ 2577 2569 2568 2566 ] final   93.12 input   -0.13 | X-H torsion
[ 2891 2887 2886 2883 ] final  137.49 input  179.98 | X-H torsion
[ 3175 3171 3170 3167 ] final   11.56 input -179.99 | X-H torsion
[ 5278 5270 5269 5267 ] final  107.24 input    0.55 | X-H torsion
[  641  637  636  633 ] final -139.42 input  179.99 | X-H torsion
[ 1886 1878 1877 1875 ] final  110.57 input    1.60 | X-H torsion
[  965  957  956  954 ] final   47.68 input    0.45 | X-H torsion

>  <Gold.Protein.ActiveResidues>  (77) 
 LYS47   THR48   LEU49   GLY50   THR51   GLY52   SER53   PHE54   GLY55   ARG56  
 VAL57   MET58   LEU59   TYR69   ALA70   MET71   LYS72   ILE73   LEU74   GLU91  
 LEU95   VAL104  LYS105  MET118  VAL119  MET120  GLU121  TYR122  VAL123  PRO124 
 GLY125  GLY126  GLU127  MET128  PHE129  TYR164  ASP166  LEU167  LYS168  PRO169 
 GLU170  ASN171  LEU172  LEU173  ILE174  GLN181  VAL182  THR183  ASP184  PHE185 
 GLY186  PHE187  GLY200  THR201  ASN326  PHE327  TYR330  ARG18   ARG19   ASN20  
 ALA21   ILE22   HIS23  

>  <Gold.Protein.RotatedAtoms>  (77) 
   11.2335   19.1029    7.6702 H   0  0  0  0  0  0  0  0  0  0  0  0  # atno 641  bound_to 637 
   15.8786   12.6333    6.4459 H   0  0  0  0  0  0  0  0  0  0  0  0  # atno 681  bound_to 677 
   19.4200   11.8414   -0.7829 H   0  0  0  0  0  0  0  0  0  0  0  0  # atno 702  bound_to 698 
   -7.0132   15.5176   -0.3525 H   0  0  0  0  0  0  0  0  0  0  0  0  # atno 965  bound_to 957 
    1.2975   12.2882   10.8941 H   0  0  0  0  0  0  0  0  0  0  0  0  # atno 1886 bound_to 1878
    9.4117    2.2303   -2.6744 H   0  0  0  0  0  0  0  0  0  0  0  0  # atno 2577 bound_to 2569
    7.8330    6.9486    1.0111 H   0  0  0  0  0  0  0  0  0  0  0  0  # atno 2891 bound_to 2887
   19.0155    2.6544   -1.3130 H   0  0  0  0  0  0  0  0  0  0  0  0  # atno 3175 bound_to 3171
   13.5674   10.2403    8.7451 H   0  0  0  0  0  0  0  0  0  0  0  0  # atno 5278 bound_to 5270
   16.1797   13.8213    7.4628 LP  0  0  0  0  0  0  0  0  0  0  0  0  # atno 5914 bound_to 677 
   17.2818   13.3793    6.3418 LP  0  0  0  0  0  0  0  0  0  0  0  0  # atno 5915 bound_to 677 
   20.9707   11.5456   -0.5699 LP  0  0  0  0  0  0  0  0  0  0  0  0  # atno 5920 bound_to 698 
   20.3438   11.6857   -2.0712 LP  0  0  0  0  0  0  0  0  0  0  0  0  # atno 5921 bound_to 698 
   10.1608    3.4185   -3.4242 LP  0  0  0  0  0  0  0  0  0  0  0  0  # atno 5950 bound_to 2569
   11.0000    2.2974   -2.5842 LP  0  0  0  0  0  0  0  0  0  0  0  0  # atno 5951 bound_to 2569
    8.2520    5.6233    0.2336 LP  0  0  0  0  0  0  0  0  0  0  0  0  # atno 5982 bound_to 2887
    7.1790    5.5686    1.4634 LP  0  0  0  0  0  0  0  0  0  0  0  0  # atno 5983 bound_to 2887
   19.0023    2.8730    0.2643 LP  0  0  0  0  0  0  0  0  0  0  0  0  # atno 6000 bound_to 3171
   17.8739    1.9422   -0.4614 LP  0  0  0  0  0  0  0  0  0  0  0  0  # atno 6001 bound_to 3171
   12.6950    9.8965   10.0325 LP  0  0  0  0  0  0  0  0  0  0  0  0  # atno 6004 bound_to 5270
   14.3265    9.8963   10.1023 LP  0  0  0  0  0  0  0  0  0  0  0  0  # atno 6005 bound_to 5270
   10.4895   19.7902    8.8986 LP  0  0  0  0  0  0  0  0  0  0  0  0  # atno 6055 bound_to 637 
    9.6442   19.1926    7.6357 LP  0  0  0  0  0  0  0  0  0  0  0  0  # atno 6056 bound_to 637 
    2.2484   11.1572   10.3009 LP  0  0  0  0  0  0  0  0  0  0  0  0  # atno 6063 bound_to 1878
    0.7710   10.7856   10.8889 LP  0  0  0  0  0  0  0  0  0  0  0  0  # atno 6064 bound_to 1878
   -6.4307   16.2201   -1.6572 LP  0  0  0  0  0  0  0  0  0  0  0  0  # atno 6067 bound_to 957 
   -6.9911   17.1088   -0.4071 LP  0  0  0  0  0  0  0  0  0  0  0  0  # atno 6068 bound_to 957 

>  <STRIFE_LigEff_Score>  (77) 
2.630023076923077

$$$$
unknown|pharmsElabsTestPreDocking|sdf|78|dock2
     RDKit          3D

 16 16  0  0  0  0  0  0  0  0999 V2000
    4.5989    9.3954    2.5392 C   0  0  0  0  0  0  0  0  0  0  0  0
    5.3426    9.8883    3.7552 C   0  0  0  0  0  0  0  0  0  0  0  0
    4.5301    9.9374    5.0555 C   0  0  0  0  0  0  0  0  0  0  0  0
    3.6004    8.8082    5.0343 N   0  0  0  0  0  0  0  0  0  0  0  0
    6.7445    9.4990    3.8121 N   0  0  0  0  0  0  0  0  0  0  0  0
    7.6901    9.3988    2.7482 C   0  0  0  0  0  0  0  0  0  0  0  0
    7.4079    9.8617    1.6112 O   0  0  0  0  0  0  0  0  0  0  0  0
    9.1010    8.9682    3.0688 C   0  0  0  0  0  0  0  0  0  0  0  0
    9.4862    7.7249    2.2696 C   0  0  0  0  0  0  0  0  0  0  0  0
   10.8568    7.1969    2.6743 C   0  0  0  0  0  0  0  0  0  0  0  0
   11.9722    8.2657    2.8278 C   0  0  0  0  0  0  0  0  0  0  0  0
   13.2614    8.1549    1.9887 C   0  0  0  0  0  0  0  0  0  0  0  0
   13.8503    9.4372    1.4009 C   0  0  0  0  0  0  0  0  0  0  0  0
   13.1731    7.1017    0.9678 N   0  0  0  0  0  0  0  0  0  0  0  0
   11.5222    9.7333    3.0971 C   0  0  0  0  0  0  0  0  0  0  0  0
   10.0813   10.0927    2.7392 C   0  0  0  0  0  0  0  0  0  0  0  0
  1  2  1  0
  2  3  1  0
  3  4  1  0
  2  5  1  0
  5  6  1  0
  6  7  2  0
  6  8  1  0
  8  9  1  0
  9 10  1  0
 10 11  1  0
 11 12  1  0
 12 13  1  0
 12 14  1  0
 11 15  1  0
 15 16  1  0
 16  8  1  0
M  CHG  2   4   1  14   1
M  END
>  <EmbedRMS>  (78) 
0.3005344476337905

>  <Gold.Version>  (78) 
2020.3.0

>  <Gold.Id.Protein>  (78) 
unknown|1q8t_protein|pdb

>  <Gold.PLP.Fitness>  (78) 
40.9415

>  <Gold.PLP.PLP>  (78) 
-32.9385

>  <Gold.PLP.part.hbond>  (78) 
-2.7012

>  <Gold.PLP.part.metal>  (78) 
0.0000

>  <Gold.PLP.part.buried>  (78) 
-2.7792

>  <Gold.PLP.part.nonpolar>  (78) 
-27.7746

>  <Gold.PLP.part.repulsive>  (78) 
0.1437

>  <Gold.PLP.ligand.clash>  (78) 
0.0000

>  <Gold.PLP.ligand.torsion>  (78) 
2.0216

>  <Gold.PLP.Chemscore.Hbond>  (78) 
3.6960

>  <Gold.PLP.Chemscore.CHOScore>  (78) 
0.0000

>  <Gold.PLP.Chemscore.Metal>  (78) 
0.0000

>  <Gold.Chemscore.Hbonds>  (78) 
donor molecule, donor type, donor heavy atom, donor atom, acceptor molecule, acceptor atom, score
      L1  H     4    25       P1  1891  0.99
      L1  H    14    37       P1  2902  2.00
      L1  H    14    38       P1  2691  0.70

>  <Gold.PLP.Chemscore.Internal.Correction>  (78) 
0.9582

>  <Gold.PLP.Constraint>  (78) 
-0.0000

>  <Gold.Protein.RotatedTorsions>  (78) 
[  681  677  676  673 ] final  147.03 input -179.99 | X-H torsion
[  702  698  697  694 ] final   57.40 input  179.99 | X-H torsion
[ 2577 2569 2568 2566 ] final   76.93 input   -0.13 | X-H torsion
[ 2891 2887 2886 2883 ] final   96.22 input  179.98 | X-H torsion
[ 3175 3171 3170 3167 ] final   71.57 input -179.99 | X-H torsion
[ 5278 5270 5269 5267 ] final -127.11 input    0.55 | X-H torsion
[  641  637  636  633 ] final   39.15 input  179.99 | X-H torsion
[ 1886 1878 1877 1875 ] final   46.91 input    1.60 | X-H torsion
[  965  957  956  954 ] final  164.20 input    0.45 | X-H torsion

>  <Gold.Protein.ActiveResidues>  (78) 
 LYS47   THR48   LEU49   GLY50   THR51   GLY52   SER53   PHE54   GLY55   ARG56  
 VAL57   MET58   LEU59   TYR69   ALA70   MET71   LYS72   ILE73   LEU74   GLU91  
 LEU95   VAL104  LYS105  MET118  VAL119  MET120  GLU121  TYR122  VAL123  PRO124 
 GLY125  GLY126  GLU127  MET128  PHE129  TYR164  ASP166  LEU167  LYS168  PRO169 
 GLU170  ASN171  LEU172  LEU173  ILE174  GLN181  VAL182  THR183  ASP184  PHE185 
 GLY186  PHE187  GLY200  THR201  ASN326  PHE327  TYR330  ARG18   ARG19   ASN20  
 ALA21   ILE22   HIS23  

>  <Gold.Protein.RotatedAtoms>  (78) 
    9.6927   19.5844    8.4447 H   0  0  0  0  0  0  0  0  0  0  0  0  # atno 641  bound_to 637 
   17.2291   13.6714    6.6384 H   0  0  0  0  0  0  0  0  0  0  0  0  # atno 681  bound_to 677 
   19.4269   11.8540   -1.4977 H   0  0  0  0  0  0  0  0  0  0  0  0  # atno 702  bound_to 698 
   -6.9876   17.0401   -0.3768 H   0  0  0  0  0  0  0  0  0  0  0  0  # atno 965  bound_to 957 
    2.0985   11.9919   10.4905 H   0  0  0  0  0  0  0  0  0  0  0  0  # atno 1886 bound_to 1878
    9.3138    2.4179   -2.8118 H   0  0  0  0  0  0  0  0  0  0  0  0  # atno 2577 bound_to 2569
    8.2001    6.7487    0.5379 H   0  0  0  0  0  0  0  0  0  0  0  0  # atno 2891 bound_to 2887
   18.2935    2.1267   -1.2591 H   0  0  0  0  0  0  0  0  0  0  0  0  # atno 3175 bound_to 3171
   14.2359    9.9003   10.1520 H   0  0  0  0  0  0  0  0  0  0  0  0  # atno 5278 bound_to 5270
   16.1971   12.5455    6.1872 LP  0  0  0  0  0  0  0  0  0  0  0  0  # atno 5914 bound_to 677 
   15.8429   13.5625    7.4148 LP  0  0  0  0  0  0  0  0  0  0  0  0  # atno 5915 bound_to 677 
   20.3258   11.6527   -0.1981 LP  0  0  0  0  0  0  0  0  0  0  0  0  # atno 5920 bound_to 698 
   20.9815   11.5653   -1.6911 LP  0  0  0  0  0  0  0  0  0  0  0  0  # atno 5921 bound_to 698 
   10.4239    3.4005   -3.3924 LP  0  0  0  0  0  0  0  0  0  0  0  0  # atno 5950 bound_to 2569
   10.8400    2.1179   -2.4713 LP  0  0  0  0  0  0  0  0  0  0  0  0  # atno 5951 bound_to 2569
    7.8745    5.1900    0.5671 LP  0  0  0  0  0  0  0  0  0  0  0  0  # atno 5982 bound_to 2887
    7.1702    6.2124    1.6279 LP  0  0  0  0  0  0  0  0  0  0  0  0  # atno 5983 bound_to 2887
   19.3934    3.0528   -0.5748 LP  0  0  0  0  0  0  0  0  0  0  0  0  # atno 6000 bound_to 3171
   18.2426    2.3178    0.3209 LP  0  0  0  0  0  0  0  0  0  0  0  0  # atno 6001 bound_to 3171
   13.6623   10.2342    8.7041 LP  0  0  0  0  0  0  0  0  0  0  0  0  # atno 6004 bound_to 5270
   12.6560    9.9163    9.9503 LP  0  0  0  0  0  0  0  0  0  0  0  0  # atno 6005 bound_to 5270
   10.4732   18.9335    7.2190 LP  0  0  0  0  0  0  0  0  0  0  0  0  # atno 6055 bound_to 637 
   11.2833   19.5422    8.4996 LP  0  0  0  0  0  0  0  0  0  0  0  0  # atno 6056 bound_to 637 
    1.5258   10.5063   10.5085 LP  0  0  0  0  0  0  0  0  0  0  0  0  # atno 6063 bound_to 1878
    0.6504   11.7485   11.1063 LP  0  0  0  0  0  0  0  0  0  0  0  0  # atno 6064 bound_to 1878
   -7.0190   15.4482   -0.3806 LP  0  0  0  0  0  0  0  0  0  0  0  0  # atno 6067 bound_to 957 
   -6.4297   16.2772   -1.6581 LP  0  0  0  0  0  0  0  0  0  0  0  0  # atno 6068 bound_to 957 

>  <STRIFE_LigEff_Score>  (78) 
2.55884375

$$$$
unknown|pharmsElabsTestPreDocking|sdf|79|dock5
     RDKit          3D

 18 19  0  0  0  0  0  0  0  0999 V2000
   14.7634    7.3247    3.5003 C   0  0  0  0  0  0  0  0  0  0  0  0
   13.8887    7.9480    2.4022 C   0  0  0  0  0  0  0  0  0  0  0  0
   13.9998    7.1672    1.1649 N   0  0  0  0  0  0  0  0  0  0  0  0
   12.3966    8.2427    2.7874 C   0  0  0  0  0  0  0  0  0  0  0  0
   11.3637    7.2083    2.3033 C   0  0  0  0  0  0  0  0  0  0  0  0
    9.9697    7.7580    2.0748 C   0  0  0  0  0  0  0  0  0  0  0  0
    9.5558    8.7641    3.1432 C   0  0  0  0  0  0  0  0  0  0  0  0
    8.1260    9.1748    2.9066 C   0  0  0  0  0  0  0  0  0  0  0  0
    7.8330    9.7891    1.8459 O   0  0  0  0  0  0  0  0  0  0  0  0
    7.1336    8.8869    3.9032 N   0  0  0  0  0  0  0  0  0  0  0  0
    5.7244    9.1853    3.8396 C   0  0  0  0  0  0  0  0  0  0  0  0
    5.0846    9.6380    5.0036 C   0  0  0  0  0  0  0  0  0  0  0  0
    3.7253    9.9449    4.9891 C   0  0  0  0  0  0  0  0  0  0  0  0
    3.0048    9.7980    3.8058 C   0  0  0  0  0  0  0  0  0  0  0  0
    3.6264    9.3600    2.6831 N   0  0  0  0  0  0  0  0  0  0  0  0
    4.9475    9.0536    2.6670 C   0  0  0  0  0  0  0  0  0  0  0  0
   10.4600   10.0015    3.1063 C   0  0  0  0  0  0  0  0  0  0  0  0
   11.9693    9.7078    3.0139 C   0  0  0  0  0  0  0  0  0  0  0  0
  1  2  1  0
  2  3  1  0
  2  4  1  0
  4  5  1  0
  5  6  1  0
  6  7  1  0
  7  8  1  0
  8  9  2  0
  8 10  1  0
 10 11  1  0
 11 12  2  0
 12 13  1  0
 13 14  2  0
 14 15  1  0
 15 16  2  0
  7 17  1  0
 17 18  1  0
 18  4  1  0
 16 11  1  0
M  CHG  1   3   1
M  END
>  <EmbedRMS>  (79) 
0.16496192233382964

>  <Gold.Version>  (79) 
2020.3.0

>  <Gold.Id.Protein>  (79) 
unknown|1q8t_protein|pdb

>  <Gold.PLP.Fitness>  (79) 
52.6764

>  <Gold.PLP.PLP>  (79) 
-43.2043

>  <Gold.PLP.part.hbond>  (79) 
-2.0000

>  <Gold.PLP.part.metal>  (79) 
0.0000

>  <Gold.PLP.part.buried>  (79) 
-2.5215

>  <Gold.PLP.part.nonpolar>  (79) 
-38.6718

>  <Gold.PLP.part.repulsive>  (79) 
0.1351

>  <Gold.PLP.ligand.clash>  (79) 
0.0000

>  <Gold.PLP.ligand.torsion>  (79) 
1.5084

>  <Gold.PLP.Chemscore.Hbond>  (79) 
3.0000

>  <Gold.PLP.Chemscore.CHOScore>  (79) 
0.9774

>  <Gold.PLP.Chemscore.Metal>  (79) 
0.0000

>  <Gold.Chemscore.Hbonds>  (79) 
donor molecule, donor type, donor heavy atom, donor atom, acceptor molecule, acceptor atom, score
      L1  H     3    23       P1  2691  1.00
      L1  H     3    25       P1  2902  2.00
      L1  C    14    35       P1  1855  0.98

>  <Gold.PLP.Chemscore.Internal.Correction>  (79) 
0.5567

>  <Gold.PLP.Constraint>  (79) 
-0.0000

>  <Gold.Protein.RotatedTorsions>  (79) 
[  681  677  676  673 ] final   39.37 input -179.99 | X-H torsion
[  702  698  697  694 ] final  -72.64 input  179.99 | X-H torsion
[ 2577 2569 2568 2566 ] final  -95.29 input   -0.13 | X-H torsion
[ 2891 2887 2886 2883 ] final  109.46 input  179.98 | X-H torsion
[ 3175 3171 3170 3167 ] final  136.48 input -179.99 | X-H torsion
[ 5278 5270 5269 5267 ] final   99.05 input    0.55 | X-H torsion
[  641  637  636  633 ] final -103.67 input  179.99 | X-H torsion
[ 1886 1878 1877 1875 ] final  -61.10 input    1.60 | X-H torsion
[  965  957  956  954 ] final  171.58 input    0.45 | X-H torsion

>  <Gold.Protein.ActiveResidues>  (79) 
 LYS47   THR48   LEU49   GLY50   THR51   GLY52   SER53   PHE54   GLY55   ARG56  
 VAL57   MET58   LEU59   TYR69   ALA70   MET71   LYS72   ILE73   LEU74   GLU91  
 LEU95   VAL104  LYS105  MET118  VAL119  MET120  GLU121  TYR122  VAL123  PRO124 
 GLY125  GLY126  GLU127  MET128  PHE129  TYR164  ASP166  LEU167  LYS168  PRO169 
 GLU170  ASN171  LEU172  LEU173  ILE174  GLN181  VAL182  THR183  ASP184  PHE185 
 GLY186  PHE187  GLY200  THR201  ASN326  PHE327  TYR330  ARG18   ARG19   ASN20  
 ALA21   ILE22   HIS23  

>  <Gold.Protein.RotatedAtoms>  (79) 
   10.8187   18.9576    7.3403 H   0  0  0  0  0  0  0  0  0  0  0  0  # atno 641  bound_to 637 
   16.3761   12.6218    6.1263 H   0  0  0  0  0  0  0  0  0  0  0  0  # atno 681  bound_to 677 
   20.4756   11.6445   -0.2744 H   0  0  0  0  0  0  0  0  0  0  0  0  # atno 702  bound_to 698 
   -6.9446   17.0921   -0.4702 H   0  0  0  0  0  0  0  0  0  0  0  0  # atno 965  bound_to 957 
    1.6826   10.6048   10.4373 H   0  0  0  0  0  0  0  0  0  0  0  0  # atno 1886 bound_to 1878
   11.0033    2.9459   -3.0546 H   0  0  0  0  0  0  0  0  0  0  0  0  # atno 2577 bound_to 2569
    8.0997    6.8589    0.6807 H   0  0  0  0  0  0  0  0  0  0  0  0  # atno 2891 bound_to 2887
   17.9237    1.9671   -0.3863 H   0  0  0  0  0  0  0  0  0  0  0  0  # atno 3175 bound_to 3171
   13.4396   10.2381    8.7484 H   0  0  0  0  0  0  0  0  0  0  0  0  # atno 5278 bound_to 5270
   15.7234   13.4153    7.3430 LP  0  0  0  0  0  0  0  0  0  0  0  0  # atno 5914 bound_to 677 
   17.2145   13.7974    6.7980 LP  0  0  0  0  0  0  0  0  0  0  0  0  # atno 5915 bound_to 677 
   20.8750   11.5866   -1.8153 LP  0  0  0  0  0  0  0  0  0  0  0  0  # atno 5920 bound_to 698 
   19.3292   11.8518   -1.3607 LP  0  0  0  0  0  0  0  0  0  0  0  0  # atno 5921 bound_to 698 
   10.0553    1.8727   -2.3585 LP  0  0  0  0  0  0  0  0  0  0  0  0  # atno 5950 bound_to 2569
    9.4296    3.0898   -3.2495 LP  0  0  0  0  0  0  0  0  0  0  0  0  # atno 5951 bound_to 2569
    8.0123    5.2884    0.4310 LP  0  0  0  0  0  0  0  0  0  0  0  0  # atno 5982 bound_to 2887
    7.1380    5.9979    1.6137 LP  0  0  0  0  0  0  0  0  0  0  0  0  # atno 5983 bound_to 2887
   18.9673    2.6305   -1.3895 LP  0  0  0  0  0  0  0  0  0  0  0  0  # atno 6000 bound_to 3171
   19.0579    2.9080    0.2171 LP  0  0  0  0  0  0  0  0  0  0  0  0  # atno 6001 bound_to 3171
   12.7658    9.8698   10.1438 LP  0  0  0  0  0  0  0  0  0  0  0  0  # atno 6004 bound_to 5270
   14.3903    9.9253    9.9875 LP  0  0  0  0  0  0  0  0  0  0  0  0  # atno 6005 bound_to 5270
   11.0357   19.6800    8.7424 LP  0  0  0  0  0  0  0  0  0  0  0  0  # atno 6055 bound_to 637 
    9.5349   19.4559    8.1393 LP  0  0  0  0  0  0  0  0  0  0  0  0  # atno 6056 bound_to 637 
    0.5939   11.5599   11.0990 LP  0  0  0  0  0  0  0  0  0  0  0  0  # atno 6063 bound_to 1878
    2.0202   12.1551   10.5717 LP  0  0  0  0  0  0  0  0  0  0  0  0  # atno 6064 bound_to 1878
   -7.0606   15.5146   -0.2879 LP  0  0  0  0  0  0  0  0  0  0  0  0  # atno 6067 bound_to 957 
   -6.4334   16.1561   -1.6524 LP  0  0  0  0  0  0  0  0  0  0  0  0  # atno 6068 bound_to 957 

>  <STRIFE_LigEff_Score>  (79) 
2.9264666666666668

$$$$
unknown|pharmsElabsTestPreDocking|sdf|80|dock9
     RDKit          3D

 17 17  0  0  0  0  0  0  0  0999 V2000
   14.7814    9.0624    1.3888 C   0  0  0  0  0  0  0  0  0  0  0  0
   13.8706    7.8825    1.6831 C   0  0  0  0  0  0  0  0  0  0  0  0
   14.0858    6.7166    0.8327 N   0  0  0  0  0  0  0  0  0  0  0  0
   12.4014    8.2083    2.0958 C   0  0  0  0  0  0  0  0  0  0  0  0
   11.6290    7.1464    2.8942 C   0  0  0  0  0  0  0  0  0  0  0  0
   10.1140    7.4391    2.8912 C   0  0  0  0  0  0  0  0  0  0  0  0
    9.7540    8.9129    2.6834 C   0  0  0  0  0  0  0  0  0  0  0  0
    8.2977    9.2401    2.8532 C   0  0  0  0  0  0  0  0  0  0  0  0
    8.0529   10.2435    3.5675 O   0  0  0  0  0  0  0  0  0  0  0  0
    7.1949    8.5052    2.3052 N   0  0  0  0  0  0  0  0  0  0  0  0
    5.8908    8.8982    2.6731 N   0  0  0  0  0  0  0  0  0  0  0  0
    5.5494    9.1495    3.8986 C   0  0  0  0  0  0  0  0  0  0  0  0
    4.2073    9.5564    4.2256 N   0  0  0  0  0  0  0  0  0  0  0  0
    3.8084    9.8428    5.6020 C   0  0  0  0  0  0  0  0  0  0  0  0
    3.2514    9.6796    3.2039 N   0  0  0  0  0  0  0  0  0  0  0  0
   10.7670   10.0045    2.9912 C   0  0  0  0  0  0  0  0  0  0  0  0
   12.2367    9.5849    2.7716 C   0  0  0  0  0  0  0  0  0  0  0  0
  1  2  1  0
  2  3  1  0
  2  4  1  0
  4  5  1  0
  5  6  1  0
  6  7  1  0
  7  8  1  0
  8  9  2  0
  8 10  1  0
 10 11  1  0
 11 12  2  0
 12 13  1  0
 13 14  1  0
 13 15  1  0
  7 16  1  0
 16 17  1  0
 17  4  1  0
M  CHG  1   3   1
M  END
>  <EmbedRMS>  (80) 
0.2570984896337683

>  <Gold.Version>  (80) 
2020.3.0

>  <Gold.Id.Protein>  (80) 
unknown|1q8t_protein|pdb

>  <Gold.PLP.Fitness>  (80) 
46.7436

>  <Gold.PLP.PLP>  (80) 
-35.8224

>  <Gold.PLP.part.hbond>  (80) 
-3.2508

>  <Gold.PLP.part.metal>  (80) 
0.0000

>  <Gold.PLP.part.buried>  (80) 
-4.5516

>  <Gold.PLP.part.nonpolar>  (80) 
-29.7923

>  <Gold.PLP.part.repulsive>  (80) 
0.1018

>  <Gold.PLP.ligand.clash>  (80) 
0.0000

>  <Gold.PLP.ligand.torsion>  (80) 
0.9618

>  <Gold.PLP.Chemscore.Hbond>  (80) 
3.9500

>  <Gold.PLP.Chemscore.CHOScore>  (80) 
0.0000

>  <Gold.PLP.Chemscore.Metal>  (80) 
0.0000

>  <Gold.Chemscore.Hbonds>  (80) 
donor molecule, donor type, donor heavy atom, donor atom, acceptor molecule, acceptor atom, score
      L1  H     3    23       P1  2902  2.00
      L1  H     3    24       P1  2691  1.00
      L1  H    10    31       P1  2887  0.95

>  <Gold.PLP.Chemscore.Internal.Correction>  (80) 
0.9948

>  <Gold.PLP.Constraint>  (80) 
-0.0000

>  <Gold.Protein.RotatedTorsions>  (80) 
[  681  677  676  673 ] final  119.46 input -179.99 | X-H torsion
[  702  698  697  694 ] final -178.24 input  179.99 | X-H torsion
[ 2577 2569 2568 2566 ] final  -39.70 input   -0.13 | X-H torsion
[ 2891 2887 2886 2883 ] final    8.60 input  179.98 | X-H torsion
[ 3175 3171 3170 3167 ] final -130.06 input -179.99 | X-H torsion
[ 5278 5270 5269 5267 ] final  165.18 input    0.55 | X-H torsion
[  641  637  636  633 ] final  -41.84 input  179.99 | X-H torsion
[ 1886 1878 1877 1875 ] final -161.25 input    1.60 | X-H torsion
[  965  957  956  954 ] final -172.36 input    0.45 | X-H torsion

>  <Gold.Protein.ActiveResidues>  (80) 
 LYS47   THR48   LEU49   GLY50   THR51   GLY52   SER53   PHE54   GLY55   ARG56  
 VAL57   MET58   LEU59   TYR69   ALA70   MET71   LYS72   ILE73   LEU74   GLU91  
 LEU95   VAL104  LYS105  MET118  VAL119  MET120  GLU121  TYR122  VAL123  PRO124 
 GLY125  GLY126  GLU127  MET128  PHE129  TYR164  ASP166  LEU167  LYS168  PRO169 
 GLU170  ASN171  LEU172  LEU173  ILE174  GLN181  VAL182  THR183  ASP184  PHE185 
 GLY186  PHE187  GLY200  THR201  ASN326  PHE327  TYR330  ARG18   ARG19   ASN20  
 ALA21   ILE22   HIS23  

>  <Gold.Protein.RotatedAtoms>  (80) 
    9.9085   19.0552    7.4320 H   0  0  0  0  0  0  0  0  0  0  0  0  # atno 641  bound_to 637 
   17.2286   13.3681    6.3381 H   0  0  0  0  0  0  0  0  0  0  0  0  # atno 681  bound_to 677 
   20.9846   11.5800   -1.6068 H   0  0  0  0  0  0  0  0  0  0  0  0  # atno 702  bound_to 698 
   -6.8440   17.1573   -0.6899 H   0  0  0  0  0  0  0  0  0  0  0  0  # atno 965  bound_to 957 
    0.6180   11.2508   11.0168 H   0  0  0  0  0  0  0  0  0  0  0  0  # atno 1886 bound_to 1878
   10.3614    3.3614   -3.3902 H   0  0  0  0  0  0  0  0  0  0  0  0  # atno 2577 bound_to 2569
    8.1528    5.5320    0.3012 H   0  0  0  0  0  0  0  0  0  0  0  0  # atno 2891 bound_to 2887
   18.7370    2.6667    0.3557 H   0  0  0  0  0  0  0  0  0  0  0  0  # atno 3175 bound_to 3171
   14.3087   10.1394    9.1853 H   0  0  0  0  0  0  0  0  0  0  0  0  # atno 5278 bound_to 5270
   15.8413   12.5952    6.4569 LP  0  0  0  0  0  0  0  0  0  0  0  0  # atno 5914 bound_to 677 
   16.1993   13.8320    7.4613 LP  0  0  0  0  0  0  0  0  0  0  0  0  # atno 5915 bound_to 677 
   19.4134   11.8411   -1.5813 LP  0  0  0  0  0  0  0  0  0  0  0  0  # atno 5920 bound_to 698 
   20.2553   11.6651   -0.1932 LP  0  0  0  0  0  0  0  0  0  0  0  0  # atno 5921 bound_to 698 
   10.8781    2.1522   -2.4923 LP  0  0  0  0  0  0  0  0  0  0  0  0  # atno 5950 bound_to 2569
    9.2827    2.3727   -2.7623 LP  0  0  0  0  0  0  0  0  0  0  0  0  # atno 5951 bound_to 2569
    7.1501    5.6967    1.5275 LP  0  0  0  0  0  0  0  0  0  0  0  0  # atno 5982 bound_to 2887
    7.9443    6.9861    0.9165 LP  0  0  0  0  0  0  0  0  0  0  0  0  # atno 5983 bound_to 2887
   17.9320    1.9396   -0.8101 LP  0  0  0  0  0  0  0  0  0  0  0  0  # atno 6000 bound_to 3171
   19.2372    2.8627   -1.1432 LP  0  0  0  0  0  0  0  0  0  0  0  0  # atno 6001 bound_to 3171
   12.7166   10.1153    9.1461 LP  0  0  0  0  0  0  0  0  0  0  0  0  # atno 6004 bound_to 5270
   13.5251    9.7835   10.5255 LP  0  0  0  0  0  0  0  0  0  0  0  0  # atno 6005 bound_to 5270
   11.4002   19.2557    7.9514 LP  0  0  0  0  0  0  0  0  0  0  0  0  # atno 6055 bound_to 637 
   10.1289   19.7773    8.8337 LP  0  0  0  0  0  0  0  0  0  0  0  0  # atno 6056 bound_to 637 
    1.7682   12.3080   10.7089 LP  0  0  0  0  0  0  0  0  0  0  0  0  # atno 6063 bound_to 1878
    1.9666   10.7269   10.3518 LP  0  0  0  0  0  0  0  0  0  0  0  0  # atno 6064 bound_to 1878
   -7.1364   15.7006   -0.1174 LP  0  0  0  0  0  0  0  0  0  0  0  0  # atno 6067 bound_to 957 
   -6.4635   15.9014   -1.5916 LP  0  0  0  0  0  0  0  0  0  0  0  0  # atno 6068 bound_to 957 

>  <STRIFE_LigEff_Score>  (80) 
2.749623529411765

$$$$
unknown|pharmsElabsTestPreDocking|sdf|81|dock4
     RDKit          3D

 17 18  0  0  0  0  0  0  0  0999 V2000
   14.5209    7.8854    3.0205 C   0  0  0  0  0  0  0  0  0  0  0  0
   13.1472    7.8979    2.3517 C   0  0  0  0  0  0  0  0  0  0  0  0
   13.0499    8.9200    1.3076 N   0  0  0  0  0  0  0  0  0  0  0  0
   11.8885    7.8491    3.2521 C   0  0  0  0  0  0  0  0  0  0  0  0
   10.7071    7.0994    2.6194 C   0  0  0  0  0  0  0  0  0  0  0  0
    9.3346    7.3839    3.2056 C   0  0  0  0  0  0  0  0  0  0  0  0
    9.1301    8.8432    3.5253 C   0  0  0  0  0  0  0  0  0  0  0  0
    7.6999    9.2162    3.7796 C   0  0  0  0  0  0  0  0  0  0  0  0
    7.5235    9.8311    4.8554 O   0  0  0  0  0  0  0  0  0  0  0  0
    6.5731    8.9324    2.9224 N   0  0  0  0  0  0  0  0  0  0  0  0
    5.2072    9.2300    3.3099 C   0  0  0  0  0  0  0  0  0  0  0  0
    4.7320    9.5795    4.5730 C   0  0  0  0  0  0  0  0  0  0  0  0
    3.3727    9.7466    4.4395 C   0  0  0  0  0  0  0  0  0  0  0  0
    2.9996    9.5144    3.1686 N   0  0  0  0  0  0  0  0  0  0  0  0
    4.1088    9.1981    2.4722 C   0  0  0  0  0  0  0  0  0  0  0  0
   10.1809    9.5026    4.3716 C   0  0  0  0  0  0  0  0  0  0  0  0
   11.5893    9.2566    3.8343 C   0  0  0  0  0  0  0  0  0  0  0  0
  1  2  1  0
  2  3  1  0
  2  4  1  0
  4  5  1  0
  5  6  1  0
  6  7  1  0
  7  8  1  0
  8  9  2  0
  8 10  1  0
 10 11  1  0
 11 12  1  0
 12 13  2  0
 13 14  1  0
 14 15  1  0
  7 16  1  0
 16 17  1  0
 17  4  1  0
 15 11  2  0
M  CHG  1   3   1
M  END
>  <EmbedRMS>  (81) 
0.3005329260886256

>  <Gold.Version>  (81) 
2020.3.0

>  <Gold.Id.Protein>  (81) 
unknown|1q8t_protein|pdb

>  <Gold.PLP.Fitness>  (81) 
50.0460

>  <Gold.PLP.PLP>  (81) 
-41.9027

>  <Gold.PLP.part.hbond>  (81) 
-2.0000

>  <Gold.PLP.part.metal>  (81) 
0.0000

>  <Gold.PLP.part.buried>  (81) 
-4.5181

>  <Gold.PLP.part.nonpolar>  (81) 
-35.6345

>  <Gold.PLP.part.repulsive>  (81) 
0.1782

>  <Gold.PLP.ligand.clash>  (81) 
0.0000

>  <Gold.PLP.ligand.torsion>  (81) 
0.6655

>  <Gold.PLP.Chemscore.Hbond>  (81) 
2.9520

>  <Gold.PLP.Chemscore.CHOScore>  (81) 
0.0000

>  <Gold.PLP.Chemscore.Metal>  (81) 
0.0000

>  <Gold.Chemscore.Hbonds>  (81) 
donor molecule, donor type, donor heavy atom, donor atom, acceptor molecule, acceptor atom, score
      L1  H     3    22       P1  2902  1.95
      L1  H    14    34       P1  1855  1.00

>  <Gold.PLP.Chemscore.Internal.Correction>  (81) 
0.6183

>  <Gold.PLP.Constraint>  (81) 
-0.0000

>  <Gold.Protein.RotatedTorsions>  (81) 
[  681  677  676  673 ] final   12.82 input -179.99 | X-H torsion
[  702  698  697  694 ] final -110.67 input  179.99 | X-H torsion
[ 2577 2569 2568 2566 ] final -112.72 input   -0.13 | X-H torsion
[ 2891 2887 2886 2883 ] final  -29.75 input  179.98 | X-H torsion
[ 3175 3171 3170 3167 ] final -130.52 input -179.99 | X-H torsion
[ 5278 5270 5269 5267 ] final   78.86 input    0.55 | X-H torsion
[  641  637  636  633 ] final  147.11 input  179.99 | X-H torsion
[ 1886 1878 1877 1875 ] final  123.16 input    1.60 | X-H torsion
[  965  957  956  954 ] final  -70.19 input    0.45 | X-H torsion

>  <Gold.Protein.ActiveResidues>  (81) 
 LYS47   THR48   LEU49   GLY50   THR51   GLY52   SER53   PHE54   GLY55   ARG56  
 VAL57   MET58   LEU59   TYR69   ALA70   MET71   LYS72   ILE73   LEU74   GLU91  
 LEU95   VAL104  LYS105  MET118  VAL119  MET120  GLU121  TYR122  VAL123  PRO124 
 GLY125  GLY126  GLU127  MET128  PHE129  TYR164  ASP166  LEU167  LYS168  PRO169 
 GLU170  ASN171  LEU172  LEU173  ILE174  GLN181  VAL182  THR183  ASP184  PHE185 
 GLY186  PHE187  GLY200  THR201  ASN326  PHE327  TYR330  ARG18   ARG19   ASN20  
 ALA21   ILE22   HIS23  

>  <Gold.Protein.RotatedAtoms>  (81) 
   11.1306   19.5922    8.6173 H   0  0  0  0  0  0  0  0  0  0  0  0  # atno 641  bound_to 637 
   16.0164   12.5969    6.3244 H   0  0  0  0  0  0  0  0  0  0  0  0  # atno 681  bound_to 677 
   20.9467   11.5675   -0.6108 H   0  0  0  0  0  0  0  0  0  0  0  0  # atno 702  bound_to 698 
   -6.4367   16.1891   -1.6052 H   0  0  0  0  0  0  0  0  0  0  0  0  # atno 965  bound_to 957 
    1.1242   12.2231   10.9594 H   0  0  0  0  0  0  0  0  0  0  0  0  # atno 1886 bound_to 1878
   11.0682    2.7317   -2.9011 H   0  0  0  0  0  0  0  0  0  0  0  0  # atno 2577 bound_to 2569
    7.7951    5.2079    0.6379 H   0  0  0  0  0  0  0  0  0  0  0  0  # atno 2891 bound_to 2887
   18.7312    2.6626    0.3572 H   0  0  0  0  0  0  0  0  0  0  0  0  # atno 3175 bound_to 3171
   13.1375   10.2145    8.8313 H   0  0  0  0  0  0  0  0  0  0  0  0  # atno 5278 bound_to 5270
   16.0143   13.7143    7.4592 LP  0  0  0  0  0  0  0  0  0  0  0  0  # atno 5914 bound_to 677 
   17.3022   13.5247    6.4733 LP  0  0  0  0  0  0  0  0  0  0  0  0  # atno 5915 bound_to 677 
   20.3268   11.6887   -2.0731 LP  0  0  0  0  0  0  0  0  0  0  0  0  # atno 5920 bound_to 698 
   19.3818   11.8307   -0.7490 LP  0  0  0  0  0  0  0  0  0  0  0  0  # atno 5921 bound_to 698 
    9.7813    1.9285   -2.4174 LP  0  0  0  0  0  0  0  0  0  0  0  0  # atno 5950 bound_to 2569
    9.6353    3.2595   -3.3522 LP  0  0  0  0  0  0  0  0  0  0  0  0  # atno 5951 bound_to 2569
    7.1951    6.3072    1.6217 LP  0  0  0  0  0  0  0  0  0  0  0  0  # atno 5982 bound_to 2887
    8.2758    6.7167    0.4680 LP  0  0  0  0  0  0  0  0  0  0  0  0  # atno 5983 bound_to 2887
   17.9344    1.9404   -0.8172 LP  0  0  0  0  0  0  0  0  0  0  0  0  # atno 6000 bound_to 3171
   19.2409    2.8662   -1.1376 LP  0  0  0  0  0  0  0  0  0  0  0  0  # atno 6001 bound_to 3171
   13.0032    9.8170   10.3677 LP  0  0  0  0  0  0  0  0  0  0  0  0  # atno 6004 bound_to 5270
   14.4708   10.0028    9.6763 LP  0  0  0  0  0  0  0  0  0  0  0  0  # atno 6005 bound_to 5270
    9.5727   19.5328    8.2942 LP  0  0  0  0  0  0  0  0  0  0  0  0  # atno 6055 bound_to 637 
   10.6694   18.9346    7.2426 LP  0  0  0  0  0  0  0  0  0  0  0  0  # atno 6056 bound_to 637 
    2.2952   11.3581   10.3146 LP  0  0  0  0  0  0  0  0  0  0  0  0  # atno 6063 bound_to 1878
    0.9067   10.6532   10.8065 LP  0  0  0  0  0  0  0  0  0  0  0  0  # atno 6064 bound_to 1878
   -6.9780   17.1241   -0.4357 LP  0  0  0  0  0  0  0  0  0  0  0  0  # atno 6067 bound_to 957 
   -7.0510   15.4976   -0.3093 LP  0  0  0  0  0  0  0  0  0  0  0  0  # atno 6068 bound_to 957 

>  <STRIFE_LigEff_Score>  (81) 
2.9438823529411766

$$$$
unknown|pharmsElabsTestPreDocking|sdf|82|dock8
     RDKit          3D

 17 18  0  0  0  0  0  0  0  0999 V2000
   14.6919    7.9828    2.9960 C   0  0  0  0  0  0  0  0  0  0  0  0
   13.3636    7.9085    2.2446 C   0  0  0  0  0  0  0  0  0  0  0  0
   13.3010    8.8641    1.1368 N   0  0  0  0  0  0  0  0  0  0  0  0
   12.0525    7.8685    3.0673 C   0  0  0  0  0  0  0  0  0  0  0  0
   10.9166    7.0975    2.3791 C   0  0  0  0  0  0  0  0  0  0  0  0
    9.5091    7.3835    2.8744 C   0  0  0  0  0  0  0  0  0  0  0  0
    9.2764    8.8473    3.1511 C   0  0  0  0  0  0  0  0  0  0  0  0
    7.8311    9.2147    3.3099 C   0  0  0  0  0  0  0  0  0  0  0  0
    7.6209   10.0516    4.2166 O   0  0  0  0  0  0  0  0  0  0  0  0
    6.7247    8.7011    2.5372 N   0  0  0  0  0  0  0  0  0  0  0  0
    5.3449    9.0279    2.8431 C   0  0  0  0  0  0  0  0  0  0  0  0
    4.8126    9.4401    4.0638 C   0  0  0  0  0  0  0  0  0  0  0  0
    3.4632    9.6121    3.8562 C   0  0  0  0  0  0  0  0  0  0  0  0
    3.1498    9.3238    2.5806 N   0  0  0  0  0  0  0  0  0  0  0  0
    4.2881    8.9660    1.9549 C   0  0  0  0  0  0  0  0  0  0  0  0
   10.2694    9.5313    4.0463 C   0  0  0  0  0  0  0  0  0  0  0  0
   11.7096    9.2850    3.6012 C   0  0  0  0  0  0  0  0  0  0  0  0
  1  2  1  0
  2  3  1  0
  2  4  1  0
  4  5  1  0
  5  6  1  0
  6  7  1  0
  7  8  1  0
  8  9  2  0
  8 10  1  0
 10 11  1  0
 11 12  1  0
 12 13  2  0
 13 14  1  0
 14 15  1  0
  7 16  1  0
 16 17  1  0
 17  4  1  0
 15 11  2  0
M  CHG  1   3   1
M  END
>  <EmbedRMS>  (82) 
0.3005329260886256

>  <Gold.Version>  (82) 
2020.3.0

>  <Gold.Id.Protein>  (82) 
unknown|1q8t_protein|pdb

>  <Gold.PLP.Fitness>  (82) 
48.9248

>  <Gold.PLP.PLP>  (82) 
-40.0751

>  <Gold.PLP.part.hbond>  (82) 
-2.4208

>  <Gold.PLP.part.metal>  (82) 
0.0000

>  <Gold.PLP.part.buried>  (82) 
-4.6071

>  <Gold.PLP.part.nonpolar>  (82) 
-33.0904

>  <Gold.PLP.part.repulsive>  (82) 
0.0935

>  <Gold.PLP.ligand.clash>  (82) 
0.0000

>  <Gold.PLP.ligand.torsion>  (82) 
0.7346

>  <Gold.PLP.Chemscore.Hbond>  (82) 
3.2326

>  <Gold.PLP.Chemscore.CHOScore>  (82) 
0.0000

>  <Gold.PLP.Chemscore.Metal>  (82) 
0.0000

>  <Gold.Chemscore.Hbonds>  (82) 
donor molecule, donor type, donor heavy atom, donor atom, acceptor molecule, acceptor atom, score
      L1  H     3    22       P1  2902  1.98
      L1  H    10    31       P1  2887  0.25
      L1  H    14    34       P1  1855  1.00

>  <Gold.PLP.Chemscore.Internal.Correction>  (82) 
0.6211

>  <Gold.PLP.Constraint>  (82) 
-0.0000

>  <Gold.Protein.RotatedTorsions>  (82) 
[  681  677  676  673 ] final  -14.50 input -179.99 | X-H torsion
[  702  698  697  694 ] final   52.48 input  179.99 | X-H torsion
[ 2577 2569 2568 2566 ] final -142.91 input   -0.13 | X-H torsion
[ 2891 2887 2886 2883 ] final  -14.92 input  179.98 | X-H torsion
[ 3175 3171 3170 3167 ] final   80.11 input -179.99 | X-H torsion
[ 5278 5270 5269 5267 ] final   64.50 input    0.55 | X-H torsion
[  641  637  636  633 ] final -126.37 input  179.99 | X-H torsion
[ 1886 1878 1877 1875 ] final  102.28 input    1.60 | X-H torsion
[  965  957  956  954 ] final -165.74 input    0.45 | X-H torsion

>  <Gold.Protein.ActiveResidues>  (82) 
 LYS47   THR48   LEU49   GLY50   THR51   GLY52   SER53   PHE54   GLY55   ARG56  
 VAL57   MET58   LEU59   TYR69   ALA70   MET71   LYS72   ILE73   LEU74   GLU91  
 LEU95   VAL104  LYS105  MET118  VAL119  MET120  GLU121  TYR122  VAL123  PRO124 
 GLY125  GLY126  GLU127  MET128  PHE129  TYR164  ASP166  LEU167  LYS168  PRO169 
 GLU170  ASN171  LEU172  LEU173  ILE174  GLN181  VAL182  THR183  ASP184  PHE185 
 GLY186  PHE187  GLY200  THR201  ASN326  PHE327  TYR330  ARG18   ARG19   ASN20  
 ALA21   ILE22   HIS23  

>  <Gold.Protein.RotatedAtoms>  (82) 
   11.1091   19.0352    7.5241 H   0  0  0  0  0  0  0  0  0  0  0  0  # atno 641  bound_to 637 
   15.7386   12.7201    6.6187 H   0  0  0  0  0  0  0  0  0  0  0  0  # atno 681  bound_to 677 
   19.3991   11.8575   -1.4261 H   0  0  0  0  0  0  0  0  0  0  0  0  # atno 702  bound_to 698 
   -6.8012   17.1640   -0.7838 H   0  0  0  0  0  0  0  0  0  0  0  0  # atno 965  bound_to 957 
    1.4158   12.3086   10.8454 H   0  0  0  0  0  0  0  0  0  0  0  0  # atno 1886 bound_to 1878
   10.9877    2.3516   -2.6431 H   0  0  0  0  0  0  0  0  0  0  0  0  # atno 2577 bound_to 2569
    7.9453    5.2939    0.4845 H   0  0  0  0  0  0  0  0  0  0  0  0  # atno 2891 bound_to 2887
   18.2037    2.0708   -1.1780 H   0  0  0  0  0  0  0  0  0  0  0  0  # atno 3175 bound_to 3171
   12.9501   10.1834    8.9498 H   0  0  0  0  0  0  0  0  0  0  0  0  # atno 5278 bound_to 5270
   16.4064   13.9220    7.4223 LP  0  0  0  0  0  0  0  0  0  0  0  0  # atno 5914 bound_to 677 
   17.2025   13.1872    6.2005 LP  0  0  0  0  0  0  0  0  0  0  0  0  # atno 5915 bound_to 677 
   20.4045   11.6390   -0.2102 LP  0  0  0  0  0  0  0  0  0  0  0  0  # atno 5920 bound_to 698 
   20.9320   11.5753   -1.7543 LP  0  0  0  0  0  0  0  0  0  0  0  0  # atno 5921 bound_to 698 
    9.4056    2.1747   -2.6158 LP  0  0  0  0  0  0  0  0  0  0  0  0  # atno 5950 bound_to 2569
   10.0958    3.4135   -3.4254 LP  0  0  0  0  0  0  0  0  0  0  0  0  # atno 5951 bound_to 2569
    7.1451    6.0691    1.6226 LP  0  0  0  0  0  0  0  0  0  0  0  0  # atno 5982 bound_to 2887
    8.1678    6.8643    0.6285 LP  0  0  0  0  0  0  0  0  0  0  0  0  # atno 5983 bound_to 2887
   19.3868    3.0298   -0.7131 LP  0  0  0  0  0  0  0  0  0  0  0  0  # atno 6000 bound_to 3171
   18.3437    2.3996    0.3738 LP  0  0  0  0  0  0  0  0  0  0  0  0  # atno 6001 bound_to 3171
   13.2134    9.7936   10.4715 LP  0  0  0  0  0  0  0  0  0  0  0  0  # atno 6004 bound_to 5270
   14.4578   10.0590    9.4480 LP  0  0  0  0  0  0  0  0  0  0  0  0  # atno 6005 bound_to 5270
   10.7015   19.7677    8.8777 LP  0  0  0  0  0  0  0  0  0  0  0  0  # atno 6055 bound_to 637 
    9.5632   19.2864    7.8104 LP  0  0  0  0  0  0  0  0  0  0  0  0  # atno 6056 bound_to 637 
    2.1961   11.0313   10.3025 LP  0  0  0  0  0  0  0  0  0  0  0  0  # atno 6063 bound_to 1878
    0.6988   10.8900   10.9386 LP  0  0  0  0  0  0  0  0  0  0  0  0  # atno 6064 bound_to 1878
   -7.1608   15.7912   -0.0619 LP  0  0  0  0  0  0  0  0  0  0  0  0  # atno 6067 bound_to 957 
   -6.4843   15.8037   -1.5481 LP  0  0  0  0  0  0  0  0  0  0  0  0  # atno 6068 bound_to 957 

>  <STRIFE_LigEff_Score>  (82) 
2.877929411764706

$$$$
unknown|pharmsElabsTestPreDocking|sdf|83|dock7
     RDKit          3D

 17 18  0  0  0  0  0  0  0  0999 V2000
   14.5828    7.9666    2.8923 C   0  0  0  0  0  0  0  0  0  0  0  0
   13.2470    7.9366    2.1511 C   0  0  0  0  0  0  0  0  0  0  0  0
   13.2088    8.8914    1.0416 N   0  0  0  0  0  0  0  0  0  0  0  0
   11.9416    7.9435    2.9839 C   0  0  0  0  0  0  0  0  0  0  0  0
   10.8148    7.0999    2.3702 C   0  0  0  0  0  0  0  0  0  0  0  0
    9.4057    7.4030    2.8504 C   0  0  0  0  0  0  0  0  0  0  0  0
    9.1501    8.8808    3.0068 C   0  0  0  0  0  0  0  0  0  0  0  0
    7.6998    9.2366    3.1452 C   0  0  0  0  0  0  0  0  0  0  0  0
    7.4710   10.0774    4.0437 O   0  0  0  0  0  0  0  0  0  0  0  0
    6.6076    8.7084    2.3621 N   0  0  0  0  0  0  0  0  0  0  0  0
    5.2213    9.0251    2.6487 C   0  0  0  0  0  0  0  0  0  0  0  0
    4.6304    9.2359    3.8937 C   0  0  0  0  0  0  0  0  0  0  0  0
    3.3000    9.4890    3.6498 C   0  0  0  0  0  0  0  0  0  0  0  0
    3.0532    9.4395    2.3288 N   0  0  0  0  0  0  0  0  0  0  0  0
    4.2160    9.1568    1.7098 C   0  0  0  0  0  0  0  0  0  0  0  0
   10.1367    9.6527    3.8350 C   0  0  0  0  0  0  0  0  0  0  0  0
   11.5782    9.3937    3.4013 C   0  0  0  0  0  0  0  0  0  0  0  0
  1  2  1  0
  2  3  1  0
  2  4  1  0
  4  5  1  0
  5  6  1  0
  6  7  1  0
  7  8  1  0
  8  9  2  0
  8 10  1  0
 10 11  1  0
 11 12  1  0
 12 13  2  0
 13 14  1  0
 14 15  1  0
  7 16  1  0
 16 17  1  0
 17  4  1  0
 15 11  2  0
M  CHG  1   3   1
M  END
>  <EmbedRMS>  (83) 
0.3005329260886256

>  <Gold.Version>  (83) 
2020.3.0

>  <Gold.Id.Protein>  (83) 
unknown|1q8t_protein|pdb

>  <Gold.PLP.Fitness>  (83) 
49.1081

>  <Gold.PLP.PLP>  (83) 
-41.0328

>  <Gold.PLP.part.hbond>  (83) 
-2.6157

>  <Gold.PLP.part.metal>  (83) 
0.0000

>  <Gold.PLP.part.buried>  (83) 
-3.9620

>  <Gold.PLP.part.nonpolar>  (83) 
-34.2044

>  <Gold.PLP.part.repulsive>  (83) 
0.0797

>  <Gold.PLP.ligand.clash>  (83) 
0.0000

>  <Gold.PLP.ligand.torsion>  (83) 
0.9669

>  <Gold.PLP.Chemscore.Hbond>  (83) 
3.1300

>  <Gold.PLP.Chemscore.CHOScore>  (83) 
0.0000

>  <Gold.PLP.Chemscore.Metal>  (83) 
0.0000

>  <Gold.Chemscore.Hbonds>  (83) 
donor molecule, donor type, donor heavy atom, donor atom, acceptor molecule, acceptor atom, score
      L1  H     3    24       P1  2902  2.00
      L1  H    10    31       P1  2887  0.13
      L1  H    14    34       P1  1855  1.00

>  <Gold.PLP.Chemscore.Internal.Correction>  (83) 
0.6192

>  <Gold.PLP.Constraint>  (83) 
-0.0000

>  <Gold.Protein.RotatedTorsions>  (83) 
[  681  677  676  673 ] final -101.12 input -179.99 | X-H torsion
[  702  698  697  694 ] final  -98.32 input  179.99 | X-H torsion
[ 2577 2569 2568 2566 ] final  156.56 input   -0.13 | X-H torsion
[ 2891 2887 2886 2883 ] final  -50.71 input  179.98 | X-H torsion
[ 3175 3171 3170 3167 ] final   24.27 input -179.99 | X-H torsion
[ 5278 5270 5269 5267 ] final  -69.37 input    0.55 | X-H torsion
[  641  637  636  633 ] final -137.33 input  179.99 | X-H torsion
[ 1886 1878 1877 1875 ] final -142.07 input    1.60 | X-H torsion
[  965  957  956  954 ] final   95.75 input    0.45 | X-H torsion

>  <Gold.Protein.ActiveResidues>  (83) 
 LYS47   THR48   LEU49   GLY50   THR51   GLY52   SER53   PHE54   GLY55   ARG56  
 VAL57   MET58   LEU59   TYR69   ALA70   MET71   LYS72   ILE73   LEU74   GLU91  
 LEU95   VAL104  LYS105  MET118  VAL119  MET120  GLU121  TYR122  VAL123  PRO124 
 GLY125  GLY126  GLU127  MET128  PHE129  TYR164  ASP166  LEU167  LYS168  PRO169 
 GLU170  ASN171  LEU172  LEU173  ILE174  GLN181  VAL182  THR183  ASP184  PHE185 
 GLY186  PHE187  GLY200  THR201  ASN326  PHE327  TYR330  ARG18   ARG19   ASN20  
 ALA21   ILE22   HIS23  

>  <Gold.Protein.RotatedAtoms>  (83) 
   11.2161   19.0911    7.6452 H   0  0  0  0  0  0  0  0  0  0  0  0  # atno 641  bound_to 637 
   15.9556   13.6437    7.3999 H   0  0  0  0  0  0  0  0  0  0  0  0  # atno 681  bound_to 677 
   20.8192   11.5873   -0.4674 H   0  0  0  0  0  0  0  0  0  0  0  0  # atno 702  bound_to 698 
   -7.1729   16.1294    0.0112 H   0  0  0  0  0  0  0  0  0  0  0  0  # atno 965  bound_to 957 
    0.6989   10.9758   10.9342 H   0  0  0  0  0  0  0  0  0  0  0  0  # atno 1886 bound_to 1878
   10.2469    1.9043   -2.3868 H   0  0  0  0  0  0  0  0  0  0  0  0  # atno 2577 bound_to 2569
    7.5799    5.1841    0.8814 H   0  0  0  0  0  0  0  0  0  0  0  0  # atno 2891 bound_to 2887
   18.8702    2.5379   -1.3810 H   0  0  0  0  0  0  0  0  0  0  0  0  # atno 3175 bound_to 3171
   13.4400    9.8112   10.4795 H   0  0  0  0  0  0  0  0  0  0  0  0  # atno 5278 bound_to 5270
   17.2982   13.5941    6.5447 LP  0  0  0  0  0  0  0  0  0  0  0  0  # atno 5914 bound_to 677 
   16.0822   12.5430    6.2559 LP  0  0  0  0  0  0  0  0  0  0  0  0  # atno 5915 bound_to 677 
   20.5221   11.6533   -2.0310 LP  0  0  0  0  0  0  0  0  0  0  0  0  # atno 5920 bound_to 698 
   19.3206   11.8453   -0.9419 LP  0  0  0  0  0  0  0  0  0  0  0  0  # atno 5921 bound_to 698 
    9.3281    2.9500   -3.1598 LP  0  0  0  0  0  0  0  0  0  0  0  0  # atno 5950 bound_to 2569
   10.9533    3.1092   -3.1513 LP  0  0  0  0  0  0  0  0  0  0  0  0  # atno 5951 bound_to 2569
    7.3287    6.6123    1.5400 LP  0  0  0  0  0  0  0  0  0  0  0  0  # atno 5982 bound_to 2887
    8.3687    6.4366    0.2933 LP  0  0  0  0  0  0  0  0  0  0  0  0  # atno 5983 bound_to 2887
   19.1395    2.9572    0.1313 LP  0  0  0  0  0  0  0  0  0  0  0  0  # atno 6000 bound_to 3171
   17.8896    1.9806   -0.2569 LP  0  0  0  0  0  0  0  0  0  0  0  0  # atno 6001 bound_to 3171
   14.3901   10.1104    9.2367 LP  0  0  0  0  0  0  0  0  0  0  0  0  # atno 6004 bound_to 5270
   12.7656   10.1338    9.0731 LP  0  0  0  0  0  0  0  0  0  0  0  0  # atno 6005 bound_to 5270
   10.5238   19.7881    8.8981 LP  0  0  0  0  0  0  0  0  0  0  0  0  # atno 6055 bound_to 637 
    9.6282   19.2072    7.6624 LP  0  0  0  0  0  0  0  0  0  0  0  0  # atno 6056 bound_to 637 
    1.4873   12.3560   10.8409 LP  0  0  0  0  0  0  0  0  0  0  0  0  # atno 6063 bound_to 1878
    2.1623   10.9684   10.3067 LP  0  0  0  0  0  0  0  0  0  0  0  0  # atno 6064 bound_to 1878
   -6.5805   15.5358   -1.3422 LP  0  0  0  0  0  0  0  0  0  0  0  0  # atno 6067 bound_to 957 
   -6.6731   17.1488   -1.1051 LP  0  0  0  0  0  0  0  0  0  0  0  0  # atno 6068 bound_to 957 

>  <STRIFE_LigEff_Score>  (83) 
2.8887117647058824

$$$$
unknown|pharmsElabsTestPreDocking|sdf|84|dock1
     RDKit          3D

 16 16  0  0  0  0  0  0  0  0999 V2000
    3.8970    9.8180    5.5880 C   0  0  0  0  0  0  0  0  0  0  0  0
    4.7188    9.1930    4.4616 C   0  0  0  0  0  0  0  0  0  0  0  0
    3.5930    8.6018    3.1509 S   0  0  0  0  0  0  0  0  0  0  0  0
    5.6982   10.2069    3.8645 C   0  0  0  0  0  0  0  0  0  0  0  0
    7.0991    9.7589    3.9382 N   0  0  0  0  0  0  0  0  0  0  0  0
    7.8143    9.5513    2.7088 C   0  0  0  0  0  0  0  0  0  0  0  0
    7.2058    9.7012    1.6198 O   0  0  0  0  0  0  0  0  0  0  0  0
    9.2646    9.1880    2.5840 C   0  0  0  0  0  0  0  0  0  0  0  0
    9.5542    7.6847    2.5768 C   0  0  0  0  0  0  0  0  0  0  0  0
   11.0534    7.3247    2.6300 C   0  0  0  0  0  0  0  0  0  0  0  0
   11.9180    8.4624    2.0642 C   0  0  0  0  0  0  0  0  0  0  0  0
   13.3998    8.1383    1.6998 C   0  0  0  0  0  0  0  0  0  0  0  0
   14.3276    9.3199    1.4726 C   0  0  0  0  0  0  0  0  0  0  0  0
   13.6411    6.9942    0.8270 N   0  0  0  0  0  0  0  0  0  0  0  0
   11.7550    9.7212    2.9406 C   0  0  0  0  0  0  0  0  0  0  0  0
   10.2896   10.1684    3.1306 C   0  0  0  0  0  0  0  0  0  0  0  0
  1  2  1  0
  2  3  1  0
  2  4  1  0
  4  5  1  0
  5  6  1  0
  6  7  2  0
  6  8  1  0
  8  9  1  0
  9 10  1  0
 10 11  1  0
 11 12  1  0
 12 13  1  0
 12 14  1  0
 11 15  1  0
 15 16  1  0
 16  8  1  0
M  CHG  1  14   1
M  END
>  <EmbedRMS>  (84) 
0.26514690107460426

>  <Gold.Version>  (84) 
2020.3.0

>  <Gold.Id.Protein>  (84) 
unknown|1q8t_protein|pdb

>  <Gold.PLP.Fitness>  (84) 
46.5206

>  <Gold.PLP.PLP>  (84) 
-39.1878

>  <Gold.PLP.part.hbond>  (84) 
-1.8964

>  <Gold.PLP.part.metal>  (84) 
0.0000

>  <Gold.PLP.part.buried>  (84) 
-2.8302

>  <Gold.PLP.part.nonpolar>  (84) 
-34.5862

>  <Gold.PLP.part.repulsive>  (84) 
0.0671

>  <Gold.PLP.ligand.clash>  (84) 
0.0000

>  <Gold.PLP.ligand.torsion>  (84) 
1.3369

>  <Gold.PLP.Chemscore.Hbond>  (84) 
2.9920

>  <Gold.PLP.Chemscore.CHOScore>  (84) 
0.0000

>  <Gold.PLP.Chemscore.Metal>  (84) 
0.0000

>  <Gold.Chemscore.Hbonds>  (84) 
donor molecule, donor type, donor heavy atom, donor atom, acceptor molecule, acceptor atom, score
      L1  H    14    36       P1  2902  2.00
      L1  H    14    37       P1  2691  0.99

>  <Gold.PLP.Chemscore.Internal.Correction>  (84) 
1.0306

>  <Gold.PLP.Constraint>  (84) 
-0.0000

>  <Gold.Protein.RotatedTorsions>  (84) 
[  681  677  676  673 ] final  -80.25 input -179.99 | X-H torsion
[  702  698  697  694 ] final   -3.13 input  179.99 | X-H torsion
[ 2577 2569 2568 2566 ] final  -35.38 input   -0.13 | X-H torsion
[ 2891 2887 2886 2883 ] final   -4.27 input  179.98 | X-H torsion
[ 3175 3171 3170 3167 ] final   47.32 input -179.99 | X-H torsion
[ 5278 5270 5269 5267 ] final -131.76 input    0.55 | X-H torsion
[  641  637  636  633 ] final  -28.30 input  179.99 | X-H torsion
[ 1886 1878 1877 1875 ] final  -87.81 input    1.60 | X-H torsion
[  965  957  956  954 ] final   48.17 input    0.45 | X-H torsion

>  <Gold.Protein.ActiveResidues>  (84) 
 LYS47   THR48   LEU49   GLY50   THR51   GLY52   SER53   PHE54   GLY55   ARG56  
 VAL57   MET58   LEU59   TYR69   ALA70   MET71   LYS72   ILE73   LEU74   GLU91  
 LEU95   VAL104  LYS105  MET118  VAL119  MET120  GLU121  TYR122  VAL123  PRO124 
 GLY125  GLY126  GLU127  MET128  PHE129  TYR164  ASP166  LEU167  LYS168  PRO169 
 GLU170  ASN171  LEU172  LEU173  ILE174  GLN181  VAL182  THR183  ASP184  PHE185 
 GLY186  PHE187  GLY200  THR201  ASN326  PHE327  TYR330  ARG18   ARG19   ASN20  
 ALA21   ILE22   HIS23  

>  <Gold.Protein.RotatedAtoms>  (84) 
    9.7609   19.1303    7.5628 H   0  0  0  0  0  0  0  0  0  0  0  0  # atno 641  bound_to 637 
   15.7493   13.4141    7.3000 H   0  0  0  0  0  0  0  0  0  0  0  0  # atno 681  bound_to 677 
   19.5230   11.8196   -0.6001 H   0  0  0  0  0  0  0  0  0  0  0  0  # atno 702  bound_to 698 
   -7.0159   15.5219   -0.3466 H   0  0  0  0  0  0  0  0  0  0  0  0  # atno 965  bound_to 957 
    1.3043   10.5459   10.5940 H   0  0  0  0  0  0  0  0  0  0  0  0  # atno 1886 bound_to 1878
   10.2950    3.3685   -3.3999 H   0  0  0  0  0  0  0  0  0  0  0  0  # atno 2577 bound_to 2569
    8.0456    5.3878    0.3909 H   0  0  0  0  0  0  0  0  0  0  0  0  # atno 2891 bound_to 2887
   18.5837    2.3238   -1.3953 H   0  0  0  0  0  0  0  0  0  0  0  0  # atno 3175 bound_to 3171
   14.2784    9.9148   10.0946 H   0  0  0  0  0  0  0  0  0  0  0  0  # atno 5278 bound_to 5270
   17.2120   13.8005    6.8027 LP  0  0  0  0  0  0  0  0  0  0  0  0  # atno 5914 bound_to 677 
   16.3855   12.5783    6.1030 LP  0  0  0  0  0  0  0  0  0  0  0  0  # atno 5915 bound_to 677 
   21.0809   11.5297   -0.7618 LP  0  0  0  0  0  0  0  0  0  0  0  0  # atno 5920 bound_to 698 
   20.1253   11.7244   -2.0716 LP  0  0  0  0  0  0  0  0  0  0  0  0  # atno 5921 bound_to 698 
   10.9234    2.1987   -2.5213 LP  0  0  0  0  0  0  0  0  0  0  0  0  # atno 5950 bound_to 2569
    9.3074    2.3188   -2.7231 LP  0  0  0  0  0  0  0  0  0  0  0  0  # atno 5951 bound_to 2569
    7.1343    5.8968    1.5938 LP  0  0  0  0  0  0  0  0  0  0  0  0  # atno 5982 bound_to 2887
    8.0730    6.9378    0.7559 LP  0  0  0  0  0  0  0  0  0  0  0  0  # atno 5983 bound_to 2887
   19.3211    3.0503   -0.1853 LP  0  0  0  0  0  0  0  0  0  0  0  0  # atno 6000 bound_to 3171
   18.0095    2.1129    0.0748 LP  0  0  0  0  0  0  0  0  0  0  0  0  # atno 6001 bound_to 3171
   13.5860   10.2353    8.6965 LP  0  0  0  0  0  0  0  0  0  0  0  0  # atno 6004 bound_to 5270
   12.6875    9.8999   10.0183 LP  0  0  0  0  0  0  0  0  0  0  0  0  # atno 6005 bound_to 5270
   11.3406   19.1610    7.7593 LP  0  0  0  0  0  0  0  0  0  0  0  0  # atno 6055 bound_to 637 
   10.3439   19.7930    8.8880 LP  0  0  0  0  0  0  0  0  0  0  0  0  # atno 6056 bound_to 637 
    0.7665   11.9597   11.0912 LP  0  0  0  0  0  0  0  0  0  0  0  0  # atno 6063 bound_to 1878
    2.2459   11.8173   10.4146 LP  0  0  0  0  0  0  0  0  0  0  0  0  # atno 6064 bound_to 1878
   -6.4309   16.2120   -1.6568 LP  0  0  0  0  0  0  0  0  0  0  0  0  # atno 6067 bound_to 957 
   -6.9881   17.1124   -0.4137 LP  0  0  0  0  0  0  0  0  0  0  0  0  # atno 6068 bound_to 957 

>  <STRIFE_LigEff_Score>  (84) 
2.9075375

$$$$
unknown|pharmsElabsTestPreDocking|sdf|85|dock8
     RDKit          3D

 18 19  0  0  0  0  0  0  0  0999 V2000
   14.8027    7.5584    3.4848 C   0  0  0  0  0  0  0  0  0  0  0  0
   13.8833    8.0475    2.3556 C   0  0  0  0  0  0  0  0  0  0  0  0
   14.0107    7.1707    1.1860 N   0  0  0  0  0  0  0  0  0  0  0  0
   12.3856    8.3074    2.7437 C   0  0  0  0  0  0  0  0  0  0  0  0
   11.3621    7.3128    2.1653 C   0  0  0  0  0  0  0  0  0  0  0  0
    9.9694    7.8761    1.9632 C   0  0  0  0  0  0  0  0  0  0  0  0
    9.5388    8.7930    3.1030 C   0  0  0  0  0  0  0  0  0  0  0  0
    8.1109    9.2182    2.8813 C   0  0  0  0  0  0  0  0  0  0  0  0
    7.8200    9.8680    1.8413 O   0  0  0  0  0  0  0  0  0  0  0  0
    7.1179    8.9033    3.8692 N   0  0  0  0  0  0  0  0  0  0  0  0
    5.7102    9.2107    3.8168 C   0  0  0  0  0  0  0  0  0  0  0  0
    5.0730    9.6254    4.9962 C   0  0  0  0  0  0  0  0  0  0  0  0
    3.7153    9.9392    4.9932 C   0  0  0  0  0  0  0  0  0  0  0  0
    2.9937    9.8375    3.8058 C   0  0  0  0  0  0  0  0  0  0  0  0
    3.6127    9.4362    2.6682 N   0  0  0  0  0  0  0  0  0  0  0  0
    4.9323    9.1240    2.6407 C   0  0  0  0  0  0  0  0  0  0  0  0
   10.4396   10.0312    3.1766 C   0  0  0  0  0  0  0  0  0  0  0  0
   11.9508    9.7490    3.0807 C   0  0  0  0  0  0  0  0  0  0  0  0
  1  2  1  0
  2  3  1  0
  2  4  1  0
  4  5  1  0
  5  6  1  0
  6  7  1  0
  7  8  1  0
  8  9  2  0
  8 10  1  0
 10 11  1  0
 11 12  2  0
 12 13  1  0
 13 14  2  0
 14 15  1  0
 15 16  2  0
  7 17  1  0
 17 18  1  0
 18  4  1  0
 16 11  1  0
M  CHG  1   3   1
M  END
>  <EmbedRMS>  (85) 
0.16496192233382964

>  <Gold.Version>  (85) 
2020.3.0

>  <Gold.Id.Protein>  (85) 
unknown|1q8t_protein|pdb

>  <Gold.PLP.Fitness>  (85) 
52.1087

>  <Gold.PLP.PLP>  (85) 
-42.7138

>  <Gold.PLP.part.hbond>  (85) 
-2.0000

>  <Gold.PLP.part.metal>  (85) 
0.0000

>  <Gold.PLP.part.buried>  (85) 
-2.6844

>  <Gold.PLP.part.nonpolar>  (85) 
-38.1513

>  <Gold.PLP.part.repulsive>  (85) 
0.1364

>  <Gold.PLP.ligand.clash>  (85) 
0.0000

>  <Gold.PLP.ligand.torsion>  (85) 
1.5251

>  <Gold.PLP.Chemscore.Hbond>  (85) 
3.0000

>  <Gold.PLP.Chemscore.CHOScore>  (85) 
0.9610

>  <Gold.PLP.Chemscore.Metal>  (85) 
0.0000

>  <Gold.Chemscore.Hbonds>  (85) 
donor molecule, donor type, donor heavy atom, donor atom, acceptor molecule, acceptor atom, score
      L1  H     3    23       P1  2902  2.00
      L1  H     3    24       P1  2691  1.00
      L1  C    14    35       P1  1855  0.96

>  <Gold.PLP.Chemscore.Internal.Correction>  (85) 
0.5623

>  <Gold.PLP.Constraint>  (85) 
-0.0000

>  <Gold.Protein.RotatedTorsions>  (85) 
[  681  677  676  673 ] final  -25.97 input -179.99 | X-H torsion
[  702  698  697  694 ] final  103.53 input  179.99 | X-H torsion
[ 2577 2569 2568 2566 ] final -179.02 input   -0.13 | X-H torsion
[ 2891 2887 2886 2883 ] final -116.75 input  179.98 | X-H torsion
[ 3175 3171 3170 3167 ] final  139.84 input -179.99 | X-H torsion
[ 5278 5270 5269 5267 ] final  -70.79 input    0.55 | X-H torsion
[  641  637  636  633 ] final   91.33 input  179.99 | X-H torsion
[ 1886 1878 1877 1875 ] final -160.28 input    1.60 | X-H torsion
[  965  957  956  954 ] final  176.04 input    0.45 | X-H torsion

>  <Gold.Protein.ActiveResidues>  (85) 
 LYS47   THR48   LEU49   GLY50   THR51   GLY52   SER53   PHE54   GLY55   ARG56  
 VAL57   MET58   LEU59   TYR69   ALA70   MET71   LYS72   ILE73   LEU74   GLU91  
 LEU95   VAL104  LYS105  MET118  VAL119  MET120  GLU121  TYR122  VAL123  PRO124 
 GLY125  GLY126  GLU127  MET128  PHE129  TYR164  ASP166  LEU167  LYS168  PRO169 
 GLU170  ASN171  LEU172  LEU173  ILE174  GLN181  VAL182  THR183  ASP184  PHE185 
 GLY186  PHE187  GLY200  THR201  ASN326  PHE327  TYR330  ARG18   ARG19   ASN20  
 ALA21   ILE22   HIS23  

>  <Gold.Protein.RotatedAtoms>  (85) 
   10.3437   19.7565    8.8528 H   0  0  0  0  0  0  0  0  0  0  0  0  # atno 641  bound_to 637 
   15.6656   12.8114    6.7544 H   0  0  0  0  0  0  0  0  0  0  0  0  # atno 681  bound_to 677 
   19.9338   11.7734   -1.9771 H   0  0  0  0  0  0  0  0  0  0  0  0  # atno 702  bound_to 698 
   -6.9174   17.1170   -0.5295 H   0  0  0  0  0  0  0  0  0  0  0  0  # atno 965  bound_to 957 
    0.6199   11.2363   11.0134 H   0  0  0  0  0  0  0  0  0  0  0  0  # atno 1886 bound_to 1878
   10.6092    2.0058   -2.4307 H   0  0  0  0  0  0  0  0  0  0  0  0  # atno 2577 bound_to 2569
    7.1583    5.7949    1.5161 H   0  0  0  0  0  0  0  0  0  0  0  0  # atno 2891 bound_to 2887
   17.9279    1.9770   -0.3347 H   0  0  0  0  0  0  0  0  0  0  0  0  # atno 3175 bound_to 3171
   13.4621    9.8109   10.4814 H   0  0  0  0  0  0  0  0  0  0  0  0  # atno 5278 bound_to 5270
   16.5785   13.9671    7.3603 LP  0  0  0  0  0  0  0  0  0  0  0  0  # atno 5914 bound_to 677 
   17.1072   13.0461    6.1197 LP  0  0  0  0  0  0  0  0  0  0  0  0  # atno 5915 bound_to 677 
   19.6306   11.7801   -0.4133 LP  0  0  0  0  0  0  0  0  0  0  0  0  # atno 5920 bound_to 698 
   21.1435   11.5227   -0.9716 LP  0  0  0  0  0  0  0  0  0  0  0  0  # atno 5921 bound_to 698 
    9.2361    2.6281   -2.9431 LP  0  0  0  0  0  0  0  0  0  0  0  0  # atno 5950 bound_to 2569
   10.6638    3.3242   -3.3218 LP  0  0  0  0  0  0  0  0  0  0  0  0  # atno 5951 bound_to 2569
    7.9994    6.9715    0.8493 LP  0  0  0  0  0  0  0  0  0  0  0  0  # atno 5982 bound_to 2887
    8.1417    5.4346    0.3162 LP  0  0  0  0  0  0  0  0  0  0  0  0  # atno 5983 bound_to 2887
   18.9266    2.5979   -1.4083 LP  0  0  0  0  0  0  0  0  0  0  0  0  # atno 6000 bound_to 3171
   19.0942    2.9302    0.1817 LP  0  0  0  0  0  0  0  0  0  0  0  0  # atno 6001 bound_to 3171
   14.3803   10.1154    9.2162 LP  0  0  0  0  0  0  0  0  0  0  0  0  # atno 6004 bound_to 5270
   12.7521   10.1291    9.0917 LP  0  0  0  0  0  0  0  0  0  0  0  0  # atno 6005 bound_to 5270
    9.7279   19.1311    7.5244 LP  0  0  0  0  0  0  0  0  0  0  0  0  # atno 6055 bound_to 637 
   11.3429   19.1634    7.7643 LP  0  0  0  0  0  0  0  0  0  0  0  0  # atno 6056 bound_to 637 
    1.7547   12.3128   10.7157 LP  0  0  0  0  0  0  0  0  0  0  0  0  # atno 6063 bound_to 1878
    1.9780   10.7374   10.3485 LP  0  0  0  0  0  0  0  0  0  0  0  0  # atno 6064 bound_to 1878
   -7.0838   15.5610   -0.2358 LP  0  0  0  0  0  0  0  0  0  0  0  0  # atno 6067 bound_to 957 
   -6.4388   16.0835   -1.6421 LP  0  0  0  0  0  0  0  0  0  0  0  0  # atno 6068 bound_to 957 

>  <STRIFE_LigEff_Score>  (85) 
2.8949277777777778

$$$$
unknown|pharmsElabsTestPreDocking|sdf|86|dock4
     RDKit          3D

 17 18  0  0  0  0  0  0  0  0999 V2000
   14.5611    8.0768    2.9385 C   0  0  0  0  0  0  0  0  0  0  0  0
   13.2268    7.9565    2.2039 C   0  0  0  0  0  0  0  0  0  0  0  0
   13.1396    8.8702    1.0629 N   0  0  0  0  0  0  0  0  0  0  0  0
   11.9244    7.9280    3.0409 C   0  0  0  0  0  0  0  0  0  0  0  0
   10.7980    7.1043    2.3999 C   0  0  0  0  0  0  0  0  0  0  0  0
    9.3897    7.3846    2.8961 C   0  0  0  0  0  0  0  0  0  0  0  0
    9.1301    8.8547    3.1087 C   0  0  0  0  0  0  0  0  0  0  0  0
    7.6791    9.2003    3.2653 C   0  0  0  0  0  0  0  0  0  0  0  0
    7.4360    9.9105    4.2670 O   0  0  0  0  0  0  0  0  0  0  0  0
    6.6010    8.7950    2.3944 N   0  0  0  0  0  0  0  0  0  0  0  0
    5.2107    9.0809    2.6938 C   0  0  0  0  0  0  0  0  0  0  0  0
    4.6391    9.3455    3.9374 C   0  0  0  0  0  0  0  0  0  0  0  0
    3.2957    9.5381    3.7098 C   0  0  0  0  0  0  0  0  0  0  0  0
    3.0231    9.4014    2.4001 N   0  0  0  0  0  0  0  0  0  0  0  0
    4.1820    9.1220    1.7721 C   0  0  0  0  0  0  0  0  0  0  0  0
   10.1173    9.5981    3.9618 C   0  0  0  0  0  0  0  0  0  0  0  0
   11.5579    9.3603    3.5136 C   0  0  0  0  0  0  0  0  0  0  0  0
  1  2  1  0
  2  3  1  0
  2  4  1  0
  4  5  1  0
  5  6  1  0
  6  7  1  0
  7  8  1  0
  8  9  2  0
  8 10  1  0
 10 11  1  0
 11 12  1  0
 12 13  2  0
 13 14  1  0
 14 15  1  0
  7 16  1  0
 16 17  1  0
 17  4  1  0
 15 11  2  0
M  CHG  1   3   1
M  END
>  <EmbedRMS>  (86) 
0.3005329260886256

>  <Gold.Version>  (86) 
2020.3.0

>  <Gold.Id.Protein>  (86) 
unknown|1q8t_protein|pdb

>  <Gold.PLP.Fitness>  (86) 
49.2735

>  <Gold.PLP.PLP>  (86) 
-40.8942

>  <Gold.PLP.part.hbond>  (86) 
-2.3201

>  <Gold.PLP.part.metal>  (86) 
0.0000

>  <Gold.PLP.part.buried>  (86) 
-4.2058

>  <Gold.PLP.part.nonpolar>  (86) 
-34.3758

>  <Gold.PLP.part.repulsive>  (86) 
0.0937

>  <Gold.PLP.ligand.clash>  (86) 
0.0000

>  <Gold.PLP.ligand.torsion>  (86) 
0.6734

>  <Gold.PLP.Chemscore.Hbond>  (86) 
3.0343

>  <Gold.PLP.Chemscore.CHOScore>  (86) 
0.0000

>  <Gold.PLP.Chemscore.Metal>  (86) 
0.0000

>  <Gold.Chemscore.Hbonds>  (86) 
donor molecule, donor type, donor heavy atom, donor atom, acceptor molecule, acceptor atom, score
      L1  H     3    22       P1  2902  2.00
      L1  H    10    31       P1  2887  0.03
      L1  H    14    34       P1  1855  1.00

>  <Gold.PLP.Chemscore.Internal.Correction>  (86) 
0.6231

>  <Gold.PLP.Constraint>  (86) 
-0.0000

>  <Gold.Protein.RotatedTorsions>  (86) 
[  681  677  676  673 ] final   64.62 input -179.99 | X-H torsion
[  702  698  697  694 ] final -138.10 input  179.99 | X-H torsion
[ 2577 2569 2568 2566 ] final  -49.14 input   -0.13 | X-H torsion
[ 2891 2887 2886 2883 ] final  -10.64 input  179.98 | X-H torsion
[ 3175 3171 3170 3167 ] final  -75.55 input -179.99 | X-H torsion
[ 5278 5270 5269 5267 ] final   -3.24 input    0.55 | X-H torsion
[  641  637  636  633 ] final  121.04 input  179.99 | X-H torsion
[ 1886 1878 1877 1875 ] final  145.52 input    1.60 | X-H torsion
[  965  957  956  954 ] final -161.96 input    0.45 | X-H torsion

>  <Gold.Protein.ActiveResidues>  (86) 
 LYS47   THR48   LEU49   GLY50   THR51   GLY52   SER53   PHE54   GLY55   ARG56  
 VAL57   MET58   LEU59   TYR69   ALA70   MET71   LYS72   ILE73   LEU74   GLU91  
 LEU95   VAL104  LYS105  MET118  VAL119  MET120  GLU121  TYR122  VAL123  PRO124 
 GLY125  GLY126  GLU127  MET128  PHE129  TYR164  ASP166  LEU167  LYS168  PRO169 
 GLU170  ASN171  LEU172  LEU173  ILE174  GLN181  VAL182  THR183  ASP184  PHE185 
 GLY186  PHE187  GLY200  THR201  ASN326  PHE327  TYR330  ARG18   ARG19   ASN20  
 ALA21   ILE22   HIS23  

>  <Gold.Protein.RotatedAtoms>  (86) 
   10.7990   19.7115    8.8146 H   0  0  0  0  0  0  0  0  0  0  0  0  # atno 641  bound_to 637 
   16.7304   12.7735    6.0572 H   0  0  0  0  0  0  0  0  0  0  0  0  # atno 681  bound_to 677 
   21.1054   11.5469   -1.0045 H   0  0  0  0  0  0  0  0  0  0  0  0  # atno 702  bound_to 698 
   -6.7768   17.1625   -0.8375 H   0  0  0  0  0  0  0  0  0  0  0  0  # atno 965  bound_to 957 
    0.8577   12.0163   11.0416 H   0  0  0  0  0  0  0  0  0  0  0  0  # atno 1886 bound_to 1878
   10.5024    3.3318   -3.3592 H   0  0  0  0  0  0  0  0  0  0  0  0  # atno 2577 bound_to 2569
    7.9866    5.3286    0.4450 H   0  0  0  0  0  0  0  0  0  0  0  0  # atno 2891 bound_to 2887
   19.2808    3.0021   -0.1587 H   0  0  0  0  0  0  0  0  0  0  0  0  # atno 3175 bound_to 3171
   12.6785    9.9505    9.8823 H   0  0  0  0  0  0  0  0  0  0  0  0  # atno 5278 bound_to 5270
   15.5862   13.1002    7.1156 LP  0  0  0  0  0  0  0  0  0  0  0  0  # atno 5914 bound_to 677 
   16.9788   13.9528    7.0982 LP  0  0  0  0  0  0  0  0  0  0  0  0  # atno 5915 bound_to 677 
   19.8906   11.7649   -2.0116 LP  0  0  0  0  0  0  0  0  0  0  0  0  # atno 5920 bound_to 698 
   19.6510   11.7762   -0.3964 LP  0  0  0  0  0  0  0  0  0  0  0  0  # atno 5921 bound_to 698 
   10.7656    2.0608   -2.4370 LP  0  0  0  0  0  0  0  0  0  0  0  0  # atno 5950 bound_to 2569
    9.2467    2.4954   -2.8502 LP  0  0  0  0  0  0  0  0  0  0  0  0  # atno 5951 bound_to 2569
    7.1382    5.9995    1.6139 LP  0  0  0  0  0  0  0  0  0  0  0  0  # atno 5982 bound_to 2887
    8.1312    6.8973    0.6788 LP  0  0  0  0  0  0  0  0  0  0  0  0  # atno 5983 bound_to 2887
   17.9886    2.0926    0.0378 LP  0  0  0  0  0  0  0  0  0  0  0  0  # atno 6000 bound_to 3171
   18.6083    2.3567   -1.4497 LP  0  0  0  0  0  0  0  0  0  0  0  0  # atno 6001 bound_to 3171
   14.2320    9.8655   10.2232 LP  0  0  0  0  0  0  0  0  0  0  0  0  # atno 6004 bound_to 5270
   13.7248   10.2322    8.7150 LP  0  0  0  0  0  0  0  0  0  0  0  0  # atno 6005 bound_to 5270
    9.5378   19.3416    7.9159 LP  0  0  0  0  0  0  0  0  0  0  0  0  # atno 6055 bound_to 637 
   11.0535   19.0002    7.4131 LP  0  0  0  0  0  0  0  0  0  0  0  0  # atno 6056 bound_to 637 
    2.2765   11.7165   10.3840 LP  0  0  0  0  0  0  0  0  0  0  0  0  # atno 6063 bound_to 1878
    1.2059   10.5126   10.6506 LP  0  0  0  0  0  0  0  0  0  0  0  0  # atno 6064 bound_to 1878
   -7.1727   15.8457   -0.0347 LP  0  0  0  0  0  0  0  0  0  0  0  0  # atno 6067 bound_to 957 
   -6.4981   15.7507   -1.5188 LP  0  0  0  0  0  0  0  0  0  0  0  0  # atno 6068 bound_to 957 

>  <STRIFE_LigEff_Score>  (86) 
2.898441176470588

$$$$
unknown|pharmsElabsTestPreDocking|sdf|87|dock1
     RDKit          3D

 17 17  0  0  0  0  0  0  0  0999 V2000
    4.3942    9.1188    1.6606 C   0  0  0  0  0  0  0  0  0  0  0  0
    4.7772    9.1313    2.9388 C   0  0  0  0  0  0  0  0  0  0  0  0
    6.1664    8.9237    3.2432 N   0  0  0  0  0  0  0  0  0  0  0  0
    7.2565    9.2928    2.3919 C   0  0  0  0  0  0  0  0  0  0  0  0
    7.0783   10.0731    1.4152 O   0  0  0  0  0  0  0  0  0  0  0  0
    8.6258    8.7593    2.7028 C   0  0  0  0  0  0  0  0  0  0  0  0
    9.1541    7.9306    1.5283 C   0  0  0  0  0  0  0  0  0  0  0  0
   10.5311    7.3698    1.8581 C   0  0  0  0  0  0  0  0  0  0  0  0
   11.5217    8.5188    2.1396 C   0  0  0  0  0  0  0  0  0  0  0  0
   12.9613    7.9498    2.3143 C   0  0  0  0  0  0  0  0  0  0  0  0
   13.0179    7.0179    3.5409 C   0  0  0  0  0  0  0  0  0  0  0  0
   13.4136    7.2116    1.1280 N   0  0  0  0  0  0  0  0  0  0  0  0
   11.0093    9.3428    3.3472 C   0  0  0  0  0  0  0  0  0  0  0  0
    9.5977    9.8916    3.0766 C   0  0  0  0  0  0  0  0  0  0  0  0
    3.7874    9.5105    3.9858 C   0  0  0  0  0  0  0  0  0  0  0  0
    4.1898    9.6421    5.4242 C   0  0  0  0  0  0  0  0  0  0  0  0
    2.5625    9.8024    3.6692 N   0  0  0  0  0  0  0  0  0  0  0  0
  1  2  2  0
  2  3  1  0
  3  4  1  0
  4  5  2  0
  4  6  1  0
  6  7  1  0
  7  8  1  0
  8  9  1  0
  9 10  1  0
 10 11  1  0
 10 12  1  0
  9 13  1  0
 13 14  1  0
  2 15  1  0
 15 16  1  0
 15 17  2  0
 14  6  1  0
M  CHG  1  12   1
M  END
>  <EmbedRMS>  (87) 
0.033034174538590914

>  <Gold.Version>  (87) 
2020.3.0

>  <Gold.Id.Protein>  (87) 
unknown|1q8t_protein|pdb

>  <Gold.PLP.Fitness>  (87) 
56.3343

>  <Gold.PLP.PLP>  (87) 
-42.7252

>  <Gold.PLP.part.hbond>  (87) 
-4.0000

>  <Gold.PLP.part.metal>  (87) 
0.0000

>  <Gold.PLP.part.buried>  (87) 
-1.7282

>  <Gold.PLP.part.nonpolar>  (87) 
-38.4323

>  <Gold.PLP.part.repulsive>  (87) 
0.0359

>  <Gold.PLP.ligand.clash>  (87) 
0.0000

>  <Gold.PLP.ligand.torsion>  (87) 
0.2580

>  <Gold.PLP.Chemscore.Hbond>  (87) 
4.5746

>  <Gold.PLP.Chemscore.CHOScore>  (87) 
0.0000

>  <Gold.PLP.Chemscore.Metal>  (87) 
0.0000

>  <Gold.Chemscore.Hbonds>  (87) 
donor molecule, donor type, donor heavy atom, donor atom, acceptor molecule, acceptor atom, score
      L1  H    12    31       P1  2902  2.00
      L1  H    12    33       P1  2691  1.00
      L1  H    17    41       P1  1855  0.68
      P1  H  1888  1903       L1    17  0.90

>  <Gold.PLP.Chemscore.Internal.Correction>  (87) 
0.4013

>  <Gold.PLP.Constraint>  (87) 
-0.0000

>  <Gold.Protein.RotatedTorsions>  (87) 
[  681  677  676  673 ] final -142.78 input -179.99 | X-H torsion
[  702  698  697  694 ] final   52.92 input  179.99 | X-H torsion
[ 2577 2569 2568 2566 ] final   48.40 input   -0.13 | X-H torsion
[ 2891 2887 2886 2883 ] final -175.59 input  179.98 | X-H torsion
[ 3175 3171 3170 3167 ] final  133.86 input -179.99 | X-H torsion
[ 5278 5270 5269 5267 ] final  103.28 input    0.55 | X-H torsion
[  641  637  636  633 ] final  154.31 input  179.99 | X-H torsion
[ 1886 1878 1877 1875 ] final   61.38 input    1.60 | X-H torsion
[  965  957  956  954 ] final -169.62 input    0.45 | X-H torsion

>  <Gold.Protein.ActiveResidues>  (87) 
 LYS47   THR48   LEU49   GLY50   THR51   GLY52   SER53   PHE54   GLY55   ARG56  
 VAL57   MET58   LEU59   TYR69   ALA70   MET71   LYS72   ILE73   LEU74   GLU91  
 LEU95   VAL104  LYS105  MET118  VAL119  MET120  GLU121  TYR122  VAL123  PRO124 
 GLY125  GLY126  GLU127  MET128  PHE129  TYR164  ASP166  LEU167  LYS168  PRO169 
 GLU170  ASN171  LEU172  LEU173  ILE174  GLN181  VAL182  THR183  ASP184  PHE185 
 GLY186  PHE187  GLY200  THR201  ASN326  PHE327  TYR330  ARG18   ARG19   ASN20  
 ALA21   ILE22   HIS23  

>  <Gold.Protein.RotatedAtoms>  (87) 
   11.2007   19.5492    8.5407 H   0  0  0  0  0  0  0  0  0  0  0  0  # atno 641  bound_to 637 
   16.5196   13.9334    7.3377 H   0  0  0  0  0  0  0  0  0  0  0  0  # atno 681  bound_to 677 
   19.4013   11.8573   -1.4326 H   0  0  0  0  0  0  0  0  0  0  0  0  # atno 702  bound_to 698 
   -6.8263   17.1615   -0.7287 H   0  0  0  0  0  0  0  0  0  0  0  0  # atno 965  bound_to 957 
    1.9574   12.1442   10.5787 H   0  0  0  0  0  0  0  0  0  0  0  0  # atno 1886 bound_to 1878
    9.3097    2.7801   -3.0636 H   0  0  0  0  0  0  0  0  0  0  0  0  # atno 2577 bound_to 2569
    7.3761    6.6463    1.4679 H   0  0  0  0  0  0  0  0  0  0  0  0  # atno 2891 bound_to 2887
   17.9222    1.9607   -0.4267 H   0  0  0  0  0  0  0  0  0  0  0  0  # atno 3175 bound_to 3171
   13.5056   10.2398    8.7445 H   0  0  0  0  0  0  0  0  0  0  0  0  # atno 5278 bound_to 5270
   17.1365   13.0847    6.1398 LP  0  0  0  0  0  0  0  0  0  0  0  0  # atno 5914 bound_to 677 
   15.6503   12.7475    6.7262 LP  0  0  0  0  0  0  0  0  0  0  0  0  # atno 5915 bound_to 677 
   20.3976   11.6402   -0.2088 LP  0  0  0  0  0  0  0  0  0  0  0  0  # atno 5920 bound_to 698 
   20.9367   11.5744   -1.7488 LP  0  0  0  0  0  0  0  0  0  0  0  0  # atno 5921 bound_to 698 
   10.8276    3.2267   -3.2421 LP  0  0  0  0  0  0  0  0  0  0  0  0  # atno 5950 bound_to 2569
   10.4406    1.9104   -2.3565 LP  0  0  0  0  0  0  0  0  0  0  0  0  # atno 5951 bound_to 2569
    8.3790    6.3625    0.2637 LP  0  0  0  0  0  0  0  0  0  0  0  0  # atno 5982 bound_to 2887
    7.5329    5.1475    0.9525 LP  0  0  0  0  0  0  0  0  0  0  0  0  # atno 5983 bound_to 2887
   18.9981    2.6555   -1.3728 LP  0  0  0  0  0  0  0  0  0  0  0  0  # atno 6000 bound_to 3171
   19.0286    2.8897    0.2430 LP  0  0  0  0  0  0  0  0  0  0  0  0  # atno 6001 bound_to 3171
   12.7272    9.8832   10.0875 LP  0  0  0  0  0  0  0  0  0  0  0  0  # atno 6004 bound_to 5270
   14.3595    9.9100   10.0479 LP  0  0  0  0  0  0  0  0  0  0  0  0  # atno 6005 bound_to 5270
    9.6157   19.5811    8.3934 LP  0  0  0  0  0  0  0  0  0  0  0  0  # atno 6055 bound_to 637 
   10.5526   18.9317    7.2241 LP  0  0  0  0  0  0  0  0  0  0  0  0  # atno 6056 bound_to 637 
    1.7381   10.5745   10.4266 LP  0  0  0  0  0  0  0  0  0  0  0  0  # atno 6063 bound_to 1878
    0.5868   11.5199   11.0954 LP  0  0  0  0  0  0  0  0  0  0  0  0  # atno 6064 bound_to 1878
   -7.1470   15.7373   -0.0933 LP  0  0  0  0  0  0  0  0  0  0  0  0  # atno 6067 bound_to 957 
   -6.4716   15.8603   -1.5749 LP  0  0  0  0  0  0  0  0  0  0  0  0  # atno 6068 bound_to 957 

>  <STRIFE_LigEff_Score>  (87) 
3.3137823529411765

$$$$
unknown|pharmsElabsTestPreDocking|sdf|88|dock6
     RDKit          3D

 18 19  0  0  0  0  0  0  0  0999 V2000
   13.9150    9.3181    1.6121 C   0  0  0  0  0  0  0  0  0  0  0  0
   13.1141    8.0990    2.0663 C   0  0  0  0  0  0  0  0  0  0  0  0
   12.9934    7.0918    1.0101 N   0  0  0  0  0  0  0  0  0  0  0  0
   11.7807    8.3311    2.8197 C   0  0  0  0  0  0  0  0  0  0  0  0
   10.7420    7.2226    2.5931 C   0  0  0  0  0  0  0  0  0  0  0  0
    9.2955    7.5752    2.9033 C   0  0  0  0  0  0  0  0  0  0  0  0
    8.9233    8.9649    2.4500 C   0  0  0  0  0  0  0  0  0  0  0  0
    7.4447    9.2349    2.4434 C   0  0  0  0  0  0  0  0  0  0  0  0
    7.0317    9.8377    1.4244 O   0  0  0  0  0  0  0  0  0  0  0  0
    6.5111    8.8975    3.4899 N   0  0  0  0  0  0  0  0  0  0  0  0
    5.0827    9.0644    3.3150 C   0  0  0  0  0  0  0  0  0  0  0  0
    4.3987    8.9241    2.1229 C   0  0  0  0  0  0  0  0  0  0  0  0
    3.0835    9.2187    2.4448 C   0  0  0  0  0  0  0  0  0  0  0  0
    2.9947    9.5372    3.7517 N   0  0  0  0  0  0  0  0  0  0  0  0
    4.2082    9.4512    4.2743 N   0  0  0  0  0  0  0  0  0  0  0  0
    4.4951    9.8423    5.6508 C   0  0  0  0  0  0  0  0  0  0  0  0
    9.8236   10.0807    2.9014 C   0  0  0  0  0  0  0  0  0  0  0  0
   11.2950    9.7902    2.6138 C   0  0  0  0  0  0  0  0  0  0  0  0
  1  2  1  0
  2  3  1  0
  2  4  1  0
  4  5  1  0
  5  6  1  0
  6  7  1  0
  7  8  1  0
  8  9  2  0
  8 10  1  0
 10 11  1  0
 11 12  2  0
 12 13  1  0
 13 14  2  0
 14 15  1  0
 15 16  1  0
  7 17  1  0
 17 18  1  0
 18  4  1  0
 15 11  1  0
M  CHG  1   3   1
M  END
>  <EmbedRMS>  (88) 
0.2930144483433324

>  <Gold.Version>  (88) 
2020.3.0

>  <Gold.Id.Protein>  (88) 
unknown|1q8t_protein|pdb

>  <Gold.PLP.Fitness>  (88) 
53.5097

>  <Gold.PLP.PLP>  (88) 
-43.3399

>  <Gold.PLP.part.hbond>  (88) 
-2.5439

>  <Gold.PLP.part.metal>  (88) 
0.0000

>  <Gold.PLP.part.buried>  (88) 
-2.7338

>  <Gold.PLP.part.nonpolar>  (88) 
-39.0178

>  <Gold.PLP.part.repulsive>  (88) 
0.1842

>  <Gold.PLP.ligand.clash>  (88) 
0.0000

>  <Gold.PLP.ligand.torsion>  (88) 
1.9440

>  <Gold.PLP.Chemscore.Hbond>  (88) 
3.4080

>  <Gold.PLP.Chemscore.CHOScore>  (88) 
1.0000

>  <Gold.PLP.Chemscore.Metal>  (88) 
0.0000

>  <Gold.Chemscore.Hbonds>  (88) 
donor molecule, donor type, donor heavy atom, donor atom, acceptor molecule, acceptor atom, score
      L1  H     3    24       P1  2902  2.00
      L1  H     3    25       P1  2691  0.43
      P1  H  1888  1903       L1    14  0.98
      L1  C    13    34       P1  1855  1.00

>  <Gold.PLP.Chemscore.Internal.Correction>  (88) 
0.8337

>  <Gold.PLP.Constraint>  (88) 
-0.0000

>  <Gold.Protein.RotatedTorsions>  (88) 
[  681  677  676  673 ] final  -66.18 input -179.99 | X-H torsion
[  702  698  697  694 ] final  170.60 input  179.99 | X-H torsion
[ 2577 2569 2568 2566 ] final -108.51 input   -0.13 | X-H torsion
[ 2891 2887 2886 2883 ] final   -8.62 input  179.98 | X-H torsion
[ 3175 3171 3170 3167 ] final   61.62 input -179.99 | X-H torsion
[ 5278 5270 5269 5267 ] final  125.54 input    0.55 | X-H torsion
[  641  637  636  633 ] final  159.83 input  179.99 | X-H torsion
[ 1886 1878 1877 1875 ] final  168.03 input    1.60 | X-H torsion
[  965  957  956  954 ] final  -55.63 input    0.45 | X-H torsion

>  <Gold.Protein.ActiveResidues>  (88) 
 LYS47   THR48   LEU49   GLY50   THR51   GLY52   SER53   PHE54   GLY55   ARG56  
 VAL57   MET58   LEU59   TYR69   ALA70   MET71   LYS72   ILE73   LEU74   GLU91  
 LEU95   VAL104  LYS105  MET118  VAL119  MET120  GLU121  TYR122  VAL123  PRO124 
 GLY125  GLY126  GLU127  MET128  PHE129  TYR164  ASP166  LEU167  LYS168  PRO169 
 GLU170  ASN171  LEU172  LEU173  ILE174  GLN181  VAL182  THR183  ASP184  PHE185 
 GLY186  PHE187  GLY200  THR201  ASN326  PHE327  TYR330  ARG18   ARG19   ASN20  
 ALA21   ILE22   HIS23  

>  <Gold.Protein.RotatedAtoms>  (88) 
   11.2468   19.5140    8.4768 H   0  0  0  0  0  0  0  0  0  0  0  0  # atno 641  bound_to 637 
   15.6596   13.2469    7.1898 H   0  0  0  0  0  0  0  0  0  0  0  0  # atno 681  bound_to 677 
   20.8809   11.6010   -1.7453 H   0  0  0  0  0  0  0  0  0  0  0  0  # atno 702  bound_to 698 
   -6.4586   15.9675   -1.5617 H   0  0  0  0  0  0  0  0  0  0  0  0  # atno 965  bound_to 957 
    0.6767   11.7186   11.0707 H   0  0  0  0  0  0  0  0  0  0  0  0  # atno 1886 bound_to 1878
   11.0599    2.7851   -2.9388 H   0  0  0  0  0  0  0  0  0  0  0  0  # atno 2577 bound_to 2569
    8.0057    5.3464    0.4272 H   0  0  0  0  0  0  0  0  0  0  0  0  # atno 2891 bound_to 2887
   18.4078    2.2018   -1.3328 H   0  0  0  0  0  0  0  0  0  0  0  0  # atno 3175 bound_to 3171
   13.8467   10.2294    8.8011 H   0  0  0  0  0  0  0  0  0  0  0  0  # atno 5278 bound_to 5270
   17.0955   13.9013    6.9748 LP  0  0  0  0  0  0  0  0  0  0  0  0  # atno 5914 bound_to 677 
   16.5965   12.6536    6.0469 LP  0  0  0  0  0  0  0  0  0  0  0  0  # atno 5915 bound_to 677 
   19.3433   11.8503   -1.4121 LP  0  0  0  0  0  0  0  0  0  0  0  0  # atno 5920 bound_to 698 
   20.4345   11.6338   -0.2166 LP  0  0  0  0  0  0  0  0  0  0  0  0  # atno 5921 bound_to 698 
    9.8451    1.9087   -2.3989 LP  0  0  0  0  0  0  0  0  0  0  0  0  # atno 5950 bound_to 2569
    9.5802    3.2231   -3.3310 LP  0  0  0  0  0  0  0  0  0  0  0  0  # atno 5951 bound_to 2569
    7.1361    5.9668    1.6085 LP  0  0  0  0  0  0  0  0  0  0  0  0  # atno 5982 bound_to 2887
    8.1132    6.9113    0.7030 LP  0  0  0  0  0  0  0  0  0  0  0  0  # atno 5983 bound_to 2887
   19.3797    3.0640   -0.4122 LP  0  0  0  0  0  0  0  0  0  0  0  0  # atno 6000 bound_to 3171
   18.1359    2.2276    0.2359 LP  0  0  0  0  0  0  0  0  0  0  0  0  # atno 6001 bound_to 3171
   12.6001    9.9637    9.7560 LP  0  0  0  0  0  0  0  0  0  0  0  0  # atno 6004 bound_to 5270
   14.1277    9.8405   10.3198 LP  0  0  0  0  0  0  0  0  0  0  0  0  # atno 6005 bound_to 5270
    9.6579   19.6158    8.4660 LP  0  0  0  0  0  0  0  0  0  0  0  0  # atno 6055 bound_to 637 
   10.4618   18.9341    7.2188 LP  0  0  0  0  0  0  0  0  0  0  0  0  # atno 6056 bound_to 637 
    2.1305   12.0329   10.5023 LP  0  0  0  0  0  0  0  0  0  0  0  0  # atno 6063 bound_to 1878
    1.5425   10.5095   10.5017 LP  0  0  0  0  0  0  0  0  0  0  0  0  # atno 6064 bound_to 1878
   -6.8831   17.1964   -0.6427 LP  0  0  0  0  0  0  0  0  0  0  0  0  # atno 6067 bound_to 957 
   -7.1228   15.6587   -0.1481 LP  0  0  0  0  0  0  0  0  0  0  0  0  # atno 6068 bound_to 957 

>  <STRIFE_LigEff_Score>  (88) 
2.972761111111111

$$$$
unknown|pharmsElabsTestPreDocking|sdf|89|dock9
     RDKit          3D

 16 16  0  0  0  0  0  0  0  0999 V2000
   14.3586    9.2856    1.4013 C   0  0  0  0  0  0  0  0  0  0  0  0
   13.4489    8.1085    1.7097 C   0  0  0  0  0  0  0  0  0  0  0  0
   13.6672    6.9313    0.8758 N   0  0  0  0  0  0  0  0  0  0  0  0
   11.9790    8.4381    2.1143 C   0  0  0  0  0  0  0  0  0  0  0  0
   11.0943    7.2818    2.6063 C   0  0  0  0  0  0  0  0  0  0  0  0
    9.6037    7.6779    2.5962 C   0  0  0  0  0  0  0  0  0  0  0  0
    9.3483    9.1828    2.7115 C   0  0  0  0  0  0  0  0  0  0  0  0
    7.9075    9.5622    2.8828 C   0  0  0  0  0  0  0  0  0  0  0  0
    7.2600    9.7000    1.8157 O   0  0  0  0  0  0  0  0  0  0  0  0
    7.2532    9.8146    4.1369 N   0  0  0  0  0  0  0  0  0  0  0  0
    5.8694   10.3105    4.1765 C   0  0  0  0  0  0  0  0  0  0  0  0
    4.8892    9.2376    4.6707 C   0  0  0  0  0  0  0  0  0  0  0  0
    3.4098    9.6018    4.4533 C   0  0  0  0  0  0  0  0  0  0  0  0
    3.0047    9.4911    3.0448 N   0  0  0  0  0  0  0  0  0  0  0  0
   10.4021   10.0987    3.3159 C   0  0  0  0  0  0  0  0  0  0  0  0
   11.8541    9.6319    3.0823 C   0  0  0  0  0  0  0  0  0  0  0  0
  1  2  1  0
  2  3  1  0
  2  4  1  0
  4  5  1  0
  5  6  1  0
  6  7  1  0
  7  8  1  0
  8  9  2  0
  8 10  1  0
 10 11  1  0
 11 12  1  0
 12 13  1  0
 13 14  1  0
  7 15  1  0
 15 16  1  0
 16  4  1  0
M  CHG  2   3   1  14   1
M  END
>  <EmbedRMS>  (89) 
0.26685653268904913

>  <Gold.Version>  (89) 
2020.3.0

>  <Gold.Id.Protein>  (89) 
unknown|1q8t_protein|pdb

>  <Gold.PLP.Fitness>  (89) 
45.8984

>  <Gold.PLP.PLP>  (89) 
-34.5017

>  <Gold.PLP.part.hbond>  (89) 
-2.7475

>  <Gold.PLP.part.metal>  (89) 
0.0000

>  <Gold.PLP.part.buried>  (89) 
-3.2153

>  <Gold.PLP.part.nonpolar>  (89) 
-28.5212

>  <Gold.PLP.part.repulsive>  (89) 
0.1854

>  <Gold.PLP.ligand.clash>  (89) 
0.0000

>  <Gold.PLP.ligand.torsion>  (89) 
0.6590

>  <Gold.PLP.Chemscore.Hbond>  (89) 
3.8800

>  <Gold.PLP.Chemscore.CHOScore>  (89) 
0.0000

>  <Gold.PLP.Chemscore.Metal>  (89) 
0.0000

>  <Gold.Chemscore.Hbonds>  (89) 
donor molecule, donor type, donor heavy atom, donor atom, acceptor molecule, acceptor atom, score
      L1  H     3    21       P1  2902  2.00
      L1  H     3    23       P1  2691  0.88
      L1  H    14    38       P1  1855  1.00

>  <Gold.PLP.Chemscore.Internal.Correction>  (89) 
1.0748

>  <Gold.PLP.Constraint>  (89) 
-0.0000

>  <Gold.Protein.RotatedTorsions>  (89) 
[  681  677  676  673 ] final -130.66 input -179.99 | X-H torsion
[  702  698  697  694 ] final  -92.00 input  179.99 | X-H torsion
[ 2577 2569 2568 2566 ] final -156.63 input   -0.13 | X-H torsion
[ 2891 2887 2886 2883 ] final  158.11 input  179.98 | X-H torsion
[ 3175 3171 3170 3167 ] final  -22.28 input -179.99 | X-H torsion
[ 5278 5270 5269 5267 ] final  -13.21 input    0.55 | X-H torsion
[  641  637  636  633 ] final -114.58 input  179.99 | X-H torsion
[ 1886 1878 1877 1875 ] final -110.11 input    1.60 | X-H torsion
[  965  957  956  954 ] final  -91.13 input    0.45 | X-H torsion

>  <Gold.Protein.ActiveResidues>  (89) 
 LYS47   THR48   LEU49   GLY50   THR51   GLY52   SER53   PHE54   GLY55   ARG56  
 VAL57   MET58   LEU59   TYR69   ALA70   MET71   LYS72   ILE73   LEU74   GLU91  
 LEU95   VAL104  LYS105  MET118  VAL119  MET120  GLU121  TYR122  VAL123  PRO124 
 GLY125  GLY126  GLU127  MET128  PHE129  TYR164  ASP166  LEU167  LYS168  PRO169 
 GLU170  ASN171  LEU172  LEU173  ILE174  GLN181  VAL182  THR183  ASP184  PHE185 
 GLY186  PHE187  GLY200  THR201  ASN326  PHE327  TYR330  ARG18   ARG19   ASN20  
 ALA21   ILE22   HIS23  

>  <Gold.Protein.RotatedAtoms>  (89) 
   10.9681   18.9879    7.4159 H   0  0  0  0  0  0  0  0  0  0  0  0  # atno 641  bound_to 637 
   16.3466   13.8799    7.3919 H   0  0  0  0  0  0  0  0  0  0  0  0  # atno 681  bound_to 677 
   20.7431   11.5996   -0.4057 H   0  0  0  0  0  0  0  0  0  0  0  0  # atno 702  bound_to 698 
   -6.4467   16.5130   -1.5764 H   0  0  0  0  0  0  0  0  0  0  0  0  # atno 965  bound_to 957 
    1.0060   10.6414   10.7418 H   0  0  0  0  0  0  0  0  0  0  0  0  # atno 1886 bound_to 1878
   10.8749    2.1986   -2.5451 H   0  0  0  0  0  0  0  0  0  0  0  0  # atno 2577 bound_to 2569
    7.6202    6.8813    1.2414 H   0  0  0  0  0  0  0  0  0  0  0  0  # atno 2891 bound_to 2887
   19.2972    2.9098   -0.9564 H   0  0  0  0  0  0  0  0  0  0  0  0  # atno 3175 bound_to 3171
   12.7396    9.9168   10.0215 H   0  0  0  0  0  0  0  0  0  0  0  0  # atno 5278 bound_to 5270
   17.2277   13.2353    6.2325 LP  0  0  0  0  0  0  0  0  0  0  0  0  # atno 5914 bound_to 677 
   15.7412   12.6533    6.5764 LP  0  0  0  0  0  0  0  0  0  0  0  0  # atno 5915 bound_to 677 
   20.6173   11.6357   -1.9932 LP  0  0  0  0  0  0  0  0  0  0  0  0  # atno 5920 bound_to 698 
   19.3055   11.8499   -1.0446 LP  0  0  0  0  0  0  0  0  0  0  0  0  # atno 5921 bound_to 698 
    9.2997    2.3342   -2.7344 LP  0  0  0  0  0  0  0  0  0  0  0  0  # atno 5950 bound_to 2569
   10.3205    3.4151   -3.4101 LP  0  0  0  0  0  0  0  0  0  0  0  0  # atno 5951 bound_to 2569
    8.3569    5.9409    0.1882 LP  0  0  0  0  0  0  0  0  0  0  0  0  # atno 5982 bound_to 2887
    7.2981    5.3218    1.2663 LP  0  0  0  0  0  0  0  0  0  0  0  0  # atno 5983 bound_to 2887
   18.5700    2.5732    0.4197 LP  0  0  0  0  0  0  0  0  0  0  0  0  # atno 6000 bound_to 3171
   18.0097    1.9733   -0.9921 LP  0  0  0  0  0  0  0  0  0  0  0  0  # atno 6001 bound_to 3171
   14.3304    9.8978   10.0963 LP  0  0  0  0  0  0  0  0  0  0  0  0  # atno 6004 bound_to 5270
   13.5622   10.2353    8.6954 LP  0  0  0  0  0  0  0  0  0  0  0  0  # atno 6005 bound_to 5270
   10.8831   19.7293    8.8224 LP  0  0  0  0  0  0  0  0  0  0  0  0  # atno 6055 bound_to 637 
    9.5301   19.3746    7.9796 LP  0  0  0  0  0  0  0  0  0  0  0  0  # atno 6056 bound_to 637 
    1.0230   12.2090   11.0206 LP  0  0  0  0  0  0  0  0  0  0  0  0  # atno 6063 bound_to 1878
    2.3033   11.4674   10.3296 LP  0  0  0  0  0  0  0  0  0  0  0  0  # atno 6064 bound_to 1878
   -7.0953   16.9258   -0.1821 LP  0  0  0  0  0  0  0  0  0  0  0  0  # atno 6067 bound_to 957 
   -6.9231   15.3548   -0.5932 LP  0  0  0  0  0  0  0  0  0  0  0  0  # atno 6068 bound_to 957 

>  <STRIFE_LigEff_Score>  (89) 
2.86865

$$$$
unknown|pharmsElabsTestPreDocking|sdf|90|dock3
     RDKit          3D

 19 20  0  0  0  0  0  0  0  0999 V2000
   13.7859    7.2305    2.8619 C   0  0  0  0  0  0  0  0  0  0  0  0
   13.6064    8.6096    2.2016 C   0  0  0  0  0  0  0  0  0  0  0  0
   14.2241    8.5910    0.8686 N   0  0  0  0  0  0  0  0  0  0  0  0
   12.0919    9.0014    2.1549 C   0  0  0  0  0  0  0  0  0  0  0  0
   11.3139    7.9107    1.3960 C   0  0  0  0  0  0  0  0  0  0  0  0
    9.8384    8.2380    1.1959 C   0  0  0  0  0  0  0  0  0  0  0  0
    9.2557    9.1627    2.2537 C   0  0  0  0  0  0  0  0  0  0  0  0
    7.7602    9.2751    2.1971 C   0  0  0  0  0  0  0  0  0  0  0  0
    7.1393    8.2733    2.6300 O   0  0  0  0  0  0  0  0  0  0  0  0
    7.0085   10.3974    1.7017 N   0  0  0  0  0  0  0  0  0  0  0  0
    5.5443   10.2724    1.6232 C   0  0  0  0  0  0  0  0  0  0  0  0
    4.9209   10.0892    2.9732 C   0  0  0  0  0  0  0  0  0  0  0  0
    5.6862   10.2431    4.1366 C   0  0  0  0  0  0  0  0  0  0  0  0
    5.0892   10.0847    5.3874 C   0  0  0  0  0  0  0  0  0  0  0  0
    3.7295    9.7753    5.4617 C   0  0  0  0  0  0  0  0  0  0  0  0
    3.0003    9.6282    4.3235 N   0  0  0  0  0  0  0  0  0  0  0  0
    3.5595    9.7770    3.0934 C   0  0  0  0  0  0  0  0  0  0  0  0
    9.9364    9.3536    3.5955 C   0  0  0  0  0  0  0  0  0  0  0  0
   11.4707    9.1762    3.5643 C   0  0  0  0  0  0  0  0  0  0  0  0
  1  2  1  0
  2  3  1  0
  2  4  1  0
  4  5  1  0
  5  6  1  0
  6  7  1  0
  7  8  1  0
  8  9  2  0
  8 10  1  0
 10 11  1  0
 11 12  1  0
 12 13  2  0
 13 14  1  0
 14 15  2  0
 15 16  1  0
 16 17  2  0
  7 18  1  0
 18 19  1  0
 19  4  1  0
 17 12  1  0
M  CHG  1   3   1
M  END
>  <EmbedRMS>  (90) 
0.17084101544492625

>  <Gold.Version>  (90) 
2020.3.0

>  <Gold.Id.Protein>  (90) 
unknown|1q8t_protein|pdb

>  <Gold.PLP.Fitness>  (90) 
62.4491

>  <Gold.PLP.PLP>  (90) 
-45.5287

>  <Gold.PLP.part.hbond>  (90) 
-3.0000

>  <Gold.PLP.part.metal>  (90) 
0.0000

>  <Gold.PLP.part.buried>  (90) 
-2.7090

>  <Gold.PLP.part.nonpolar>  (90) 
-41.4050

>  <Gold.PLP.part.repulsive>  (90) 
0.1445

>  <Gold.PLP.ligand.clash>  (90) 
0.0000

>  <Gold.PLP.ligand.torsion>  (90) 
0.5035

>  <Gold.PLP.Chemscore.Hbond>  (90) 
4.0000

>  <Gold.PLP.Chemscore.CHOScore>  (90) 
1.7357

>  <Gold.PLP.Chemscore.Metal>  (90) 
0.0000

>  <Gold.Chemscore.Hbonds>  (90) 
donor molecule, donor type, donor heavy atom, donor atom, acceptor molecule, acceptor atom, score
      L1  H     3    24       P1  2902  2.00
      P1  H  2887  2891       L1     9  1.00
      P1  H  1888  1903       L1    16  1.00
      L1  C    15    38       P1  1891  0.95
      L1  C    17    39       P1  1855  0.79

>  <Gold.PLP.Chemscore.Internal.Correction>  (90) 
0.7203

>  <Gold.PLP.Constraint>  (90) 
-0.0000

>  <Gold.Protein.RotatedTorsions>  (90) 
[  681  677  676  673 ] final   62.38 input -179.99 | X-H torsion
[  702  698  697  694 ] final  -29.88 input  179.99 | X-H torsion
[ 2577 2569 2568 2566 ] final   17.62 input   -0.13 | X-H torsion
[ 2891 2887 2886 2883 ] final  166.10 input  179.98 | X-H torsion
[ 3175 3171 3170 3167 ] final   96.90 input -179.99 | X-H torsion
[ 5278 5270 5269 5267 ] final   28.56 input    0.55 | X-H torsion
[  641  637  636  633 ] final  171.44 input  179.99 | X-H torsion
[ 1886 1878 1877 1875 ] final   31.71 input    1.60 | X-H torsion
[  965  957  956  954 ] final  -22.51 input    0.45 | X-H torsion

>  <Gold.Protein.ActiveResidues>  (90) 
 LYS47   THR48   LEU49   GLY50   THR51   GLY52   SER53   PHE54   GLY55   ARG56  
 VAL57   MET58   LEU59   TYR69   ALA70   MET71   LYS72   ILE73   LEU74   GLU91  
 LEU95   VAL104  LYS105  MET118  VAL119  MET120  GLU121  TYR122  VAL123  PRO124 
 GLY125  GLY126  GLU127  MET128  PHE129  TYR164  ASP166  LEU167  LYS168  PRO169 
 GLU170  ASN171  LEU172  LEU173  ILE174  GLN181  VAL182  THR183  ASP184  PHE185 
 GLY186  PHE187  GLY200  THR201  ASN326  PHE327  TYR330  ARG18   ARG19   ASN20  
 ALA21   ILE22   HIS23  

>  <Gold.Protein.RotatedAtoms>  (90) 
   11.3196   19.4353    8.3307 H   0  0  0  0  0  0  0  0  0  0  0  0  # atno 641  bound_to 637 
   16.7002   12.7556    6.0581 H   0  0  0  0  0  0  0  0  0  0  0  0  # atno 681  bound_to 677 
   19.8349   11.7592   -0.3338 H   0  0  0  0  0  0  0  0  0  0  0  0  # atno 702  bound_to 698 
   -6.5868   15.5558   -1.2887 H   0  0  0  0  0  0  0  0  0  0  0  0  # atno 965  bound_to 957 
    2.2010   11.7935   10.4114 H   0  0  0  0  0  0  0  0  0  0  0  0  # atno 1886 bound_to 1878
    9.5407    3.1291   -3.2890 H   0  0  0  0  0  0  0  0  0  0  0  0  # atno 2577 bound_to 2569
    7.5407    6.8262    1.3203 H   0  0  0  0  0  0  0  0  0  0  0  0  # atno 2891 bound_to 2887
   18.0572    1.9886   -0.9775 H   0  0  0  0  0  0  0  0  0  0  0  0  # atno 3175 bound_to 3171
   12.6597   10.0678    9.4060 H   0  0  0  0  0  0  0  0  0  0  0  0  # atno 5278 bound_to 5270
   15.5920   13.1279    7.1394 LP  0  0  0  0  0  0  0  0  0  0  0  0  # atno 5914 bound_to 677 
   17.0048   13.9441    7.0734 LP  0  0  0  0  0  0  0  0  0  0  0  0  # atno 5915 bound_to 677 
   21.1567   11.5246   -1.1912 LP  0  0  0  0  0  0  0  0  0  0  0  0  # atno 5920 bound_to 698 
   19.7214   11.7931   -1.9223 LP  0  0  0  0  0  0  0  0  0  0  0  0  # atno 5921 bound_to 698 
   11.0839    2.8826   -2.9844 LP  0  0  0  0  0  0  0  0  0  0  0  0  # atno 5950 bound_to 2569
    9.9411    1.8870   -2.3768 LP  0  0  0  0  0  0  0  0  0  0  0  0  # atno 5951 bound_to 2569
    8.3774    6.0705    0.1955 LP  0  0  0  0  0  0  0  0  0  0  0  0  # atno 5982 bound_to 2887
    7.3613    5.2503    1.1760 LP  0  0  0  0  0  0  0  0  0  0  0  0  # atno 5983 bound_to 2887
   19.3258    2.9510   -0.9696 LP  0  0  0  0  0  0  0  0  0  0  0  0  # atno 6000 bound_to 3171
   18.5589    2.5650    0.4195 LP  0  0  0  0  0  0  0  0  0  0  0  0  # atno 6001 bound_to 3171
   13.7949    9.7952   10.4894 LP  0  0  0  0  0  0  0  0  0  0  0  0  # atno 6004 bound_to 5270
   14.1818   10.1790    8.9500 LP  0  0  0  0  0  0  0  0  0  0  0  0  # atno 6005 bound_to 5270
    9.7706   19.6808    8.6055 LP  0  0  0  0  0  0  0  0  0  0  0  0  # atno 6055 bound_to 637 
   10.2725   18.9519    7.2331 LP  0  0  0  0  0  0  0  0  0  0  0  0  # atno 6056 bound_to 637 
    1.2972   10.4974   10.6078 LP  0  0  0  0  0  0  0  0  0  0  0  0  # atno 6063 bound_to 1878
    0.7711   11.9662   11.0902 LP  0  0  0  0  0  0  0  0  0  0  0  0  # atno 6064 bound_to 1878
   -6.6622   17.1381   -1.1292 LP  0  0  0  0  0  0  0  0  0  0  0  0  # atno 6067 bound_to 957 
   -7.2087   16.1505    0.0509 LP  0  0  0  0  0  0  0  0  0  0  0  0  # atno 6068 bound_to 957 

>  <STRIFE_LigEff_Score>  (90) 
3.2867947368421055

$$$$
unknown|pharmsElabsTestPreDocking|sdf|91|dock10
     RDKit          3D

 18 19  0  0  0  0  0  0  0  0999 V2000
    5.7108    9.4169    5.2820 C   0  0  0  0  0  0  0  0  0  0  0  0
    4.9452    9.3390    4.0042 C   0  0  0  0  0  0  0  0  0  0  0  0
    3.5981    9.6107    3.8513 C   0  0  0  0  0  0  0  0  0  0  0  0
    3.2439    9.4539    2.5652 N   0  0  0  0  0  0  0  0  0  0  0  0
    4.3434    9.0895    1.8844 C   0  0  0  0  0  0  0  0  0  0  0  0
    5.4347    9.0036    2.7505 C   0  0  0  0  0  0  0  0  0  0  0  0
    6.8100    8.6601    2.4240 N   0  0  0  0  0  0  0  0  0  0  0  0
    7.9375    9.3790    2.9723 C   0  0  0  0  0  0  0  0  0  0  0  0
    7.7418   10.3974    3.6728 O   0  0  0  0  0  0  0  0  0  0  0  0
    9.3912    9.0495    2.7888 C   0  0  0  0  0  0  0  0  0  0  0  0
    9.6891    7.5692    2.8052 C   0  0  0  0  0  0  0  0  0  0  0  0
   11.0875    7.2366    2.3087 C   0  0  0  0  0  0  0  0  0  0  0  0
   12.1876    8.1833    2.7862 C   0  0  0  0  0  0  0  0  0  0  0  0
   13.6280    7.7861    2.3016 C   0  0  0  0  0  0  0  0  0  0  0  0
   14.5152    7.0559    3.3241 C   0  0  0  0  0  0  0  0  0  0  0  0
   13.6114    7.0513    1.0332 N   0  0  0  0  0  0  0  0  0  0  0  0
   11.8313    9.6820    2.8532 C   0  0  0  0  0  0  0  0  0  0  0  0
   10.4206    9.9781    3.3886 C   0  0  0  0  0  0  0  0  0  0  0  0
  1  2  1  0
  2  3  2  0
  3  4  1  0
  4  5  1  0
  5  6  2  0
  6  7  1  0
  7  8  1  0
  8  9  2  0
  8 10  1  0
 10 11  1  0
 11 12  1  0
 12 13  1  0
 13 14  1  0
 14 15  1  0
 14 16  1  0
 13 17  1  0
 17 18  1  0
  6  2  1  0
 18 10  1  0
M  CHG  1  16   1
M  END
>  <EmbedRMS>  (91) 
0.25960676527829957

>  <Gold.Version>  (91) 
2020.3.0

>  <Gold.Id.Protein>  (91) 
unknown|1q8t_protein|pdb

>  <Gold.PLP.Fitness>  (91) 
54.2751

>  <Gold.PLP.PLP>  (91) 
-43.5021

>  <Gold.PLP.part.hbond>  (91) 
-3.8004

>  <Gold.PLP.part.metal>  (91) 
0.0000

>  <Gold.PLP.part.buried>  (91) 
-5.0544

>  <Gold.PLP.part.nonpolar>  (91) 
-35.9419

>  <Gold.PLP.part.repulsive>  (91) 
0.1287

>  <Gold.PLP.ligand.clash>  (91) 
0.0000

>  <Gold.PLP.ligand.torsion>  (91) 
1.8952

>  <Gold.PLP.Chemscore.Hbond>  (91) 
4.5753

>  <Gold.PLP.Chemscore.CHOScore>  (91) 
0.0000

>  <Gold.PLP.Chemscore.Metal>  (91) 
0.0000

>  <Gold.Chemscore.Hbonds>  (91) 
donor molecule, donor type, donor heavy atom, donor atom, acceptor molecule, acceptor atom, score
      L1  H     4    23       P1  1855  1.00
      L1  H     7    25       P1  2887  0.58
      L1  H    16    37       P1  2691  1.00
      L1  H    16    38       P1  2902  2.00

>  <Gold.PLP.Chemscore.Internal.Correction>  (91) 
0.8376

>  <Gold.PLP.Constraint>  (91) 
-0.0000

>  <Gold.Protein.RotatedTorsions>  (91) 
[  681  677  676  673 ] final -121.97 input -179.99 | X-H torsion
[  702  698  697  694 ] final  112.09 input  179.99 | X-H torsion
[ 2577 2569 2568 2566 ] final  108.00 input   -0.13 | X-H torsion
[ 2891 2887 2886 2883 ] final   48.82 input  179.98 | X-H torsion
[ 3175 3171 3170 3167 ] final   67.07 input -179.99 | X-H torsion
[ 5278 5270 5269 5267 ] final   62.61 input    0.55 | X-H torsion
[  641  637  636  633 ] final -173.46 input  179.99 | X-H torsion
[ 1886 1878 1877 1875 ] final   87.70 input    1.60 | X-H torsion
[  965  957  956  954 ] final -159.52 input    0.45 | X-H torsion

>  <Gold.Protein.ActiveResidues>  (91) 
 LYS47   THR48   LEU49   GLY50   THR51   GLY52   SER53   PHE54   GLY55   ARG56  
 VAL57   MET58   LEU59   TYR69   ALA70   MET71   LYS72   ILE73   LEU74   GLU91  
 LEU95   VAL104  LYS105  MET118  VAL119  MET120  GLU121  TYR122  VAL123  PRO124 
 GLY125  GLY126  GLU127  MET128  PHE129  TYR164  ASP166  LEU167  LYS168  PRO169 
 GLU170  ASN171  LEU172  LEU173  ILE174  GLN181  VAL182  THR183  ASP184  PHE185 
 GLY186  PHE187  GLY200  THR201  ASN326  PHE327  TYR330  ARG18   ARG19   ASN20  
 ALA21   ILE22   HIS23  

>  <Gold.Protein.RotatedAtoms>  (91) 
   11.3619   19.3283    8.1257 H   0  0  0  0  0  0  0  0  0  0  0  0  # atno 641  bound_to 637 
   16.2244   13.8247    7.4129 H   0  0  0  0  0  0  0  0  0  0  0  0  # atno 681  bound_to 677 
   20.0607   11.7516   -2.0133 H   0  0  0  0  0  0  0  0  0  0  0  0  # atno 702  bound_to 698 
   -6.7611   17.1595   -0.8721 H   0  0  0  0  0  0  0  0  0  0  0  0  # atno 965  bound_to 957 
    1.6230   12.2998   10.7526 H   0  0  0  0  0  0  0  0  0  0  0  0  # atno 1886 bound_to 1878
    9.5555    2.0860   -2.5636 H   0  0  0  0  0  0  0  0  0  0  0  0  # atno 2577 bound_to 2569
    8.3385    6.1145    0.2257 H   0  0  0  0  0  0  0  0  0  0  0  0  # atno 2891 bound_to 2887
   18.3441    2.1595   -1.2954 H   0  0  0  0  0  0  0  0  0  0  0  0  # atno 3175 bound_to 3171
   12.9278   10.1785    8.9687 H   0  0  0  0  0  0  0  0  0  0  0  0  # atno 5278 bound_to 5270
   17.2717   13.3444    6.3135 LP  0  0  0  0  0  0  0  0  0  0  0  0  # atno 5914 bound_to 677 
   15.8259   12.6022    6.4733 LP  0  0  0  0  0  0  0  0  0  0  0  0  # atno 5915 bound_to 677 
   19.5317   11.7995   -0.5116 LP  0  0  0  0  0  0  0  0  0  0  0  0  # atno 5920 bound_to 698 
   21.1088   11.5262   -0.8352 LP  0  0  0  0  0  0  0  0  0  0  0  0  # atno 5921 bound_to 698 
    9.9197    3.3809   -3.4157 LP  0  0  0  0  0  0  0  0  0  0  0  0  # atno 5950 bound_to 2569
   11.0896    2.4870   -2.7093 LP  0  0  0  0  0  0  0  0  0  0  0  0  # atno 5951 bound_to 2569
    7.3845    5.2295    1.1441 LP  0  0  0  0  0  0  0  0  0  0  0  0  # atno 5982 bound_to 2887
    7.5145    6.8402    1.3794 LP  0  0  0  0  0  0  0  0  0  0  0  0  # atno 5983 bound_to 2887
   19.3900    3.0600   -0.5011 LP  0  0  0  0  0  0  0  0  0  0  0  0  # atno 6000 bound_to 3171
   18.1927    2.2761    0.2855 LP  0  0  0  0  0  0  0  0  0  0  0  0  # atno 6001 bound_to 3171
   13.2429    9.7915   10.4812 LP  0  0  0  0  0  0  0  0  0  0  0  0  # atno 6004 bound_to 5270
   14.4517   10.0663    9.4183 LP  0  0  0  0  0  0  0  0  0  0  0  0  # atno 6005 bound_to 5270
    9.9591   19.7454    8.7527 LP  0  0  0  0  0  0  0  0  0  0  0  0  # atno 6055 bound_to 637 
   10.0395   19.0001    7.3019 LP  0  0  0  0  0  0  0  0  0  0  0  0  # atno 6056 bound_to 637 
    2.0667   10.8314   10.3255 LP  0  0  0  0  0  0  0  0  0  0  0  0  # atno 6063 bound_to 1878
    0.6101   11.0992   11.0133 LP  0  0  0  0  0  0  0  0  0  0  0  0  # atno 6064 bound_to 1878
   -7.1795   15.8820   -0.0189 LP  0  0  0  0  0  0  0  0  0  0  0  0  # atno 6067 bound_to 957 
   -6.5078   15.7176   -1.4982 LP  0  0  0  0  0  0  0  0  0  0  0  0  # atno 6068 bound_to 957 

>  <STRIFE_LigEff_Score>  (91) 
3.0152833333333335

$$$$
unknown|pharmsElabsTestPreDocking|sdf|92|dock10
     RDKit          3D

 17 18  0  0  0  0  0  0  0  0999 V2000
   14.2248    9.3157    1.4159 C   0  0  0  0  0  0  0  0  0  0  0  0
   13.4965    8.0894    1.9659 C   0  0  0  0  0  0  0  0  0  0  0  0
   13.2904    7.0845    0.9139 N   0  0  0  0  0  0  0  0  0  0  0  0
   12.2286    8.3164    2.8126 C   0  0  0  0  0  0  0  0  0  0  0  0
   11.2452    7.1400    3.0539 C   0  0  0  0  0  0  0  0  0  0  0  0
    9.8110    7.3804    2.6060 C   0  0  0  0  0  0  0  0  0  0  0  0
    9.3151    8.7609    3.0316 C   0  0  0  0  0  0  0  0  0  0  0  0
    7.8543    8.9164    2.7067 C   0  0  0  0  0  0  0  0  0  0  0  0
    7.4796    8.9319    1.5024 O   0  0  0  0  0  0  0  0  0  0  0  0
    6.9103    9.0697    3.7760 N   0  0  0  0  0  0  0  0  0  0  0  0
    5.4922    9.2070    3.6211 C   0  0  0  0  0  0  0  0  0  0  0  0
    4.7086    8.7453    2.5747 C   0  0  0  0  0  0  0  0  0  0  0  0
    3.4350    9.1444    2.9151 C   0  0  0  0  0  0  0  0  0  0  0  0
    3.4803    9.7977    4.0895 N   0  0  0  0  0  0  0  0  0  0  0  0
    4.7266    9.8418    4.5276 N   0  0  0  0  0  0  0  0  0  0  0  0
   10.1326    9.8280    2.3118 C   0  0  0  0  0  0  0  0  0  0  0  0
   11.6184    9.7428    2.6553 C   0  0  0  0  0  0  0  0  0  0  0  0
  1  2  1  0
  2  3  1  0
  2  4  1  0
  4  5  1  0
  5  6  1  0
  6  7  1  0
  7  8  1  0
  8  9  2  0
  8 10  1  0
 10 11  1  0
 11 12  1  0
 12 13  2  0
 13 14  1  0
 14 15  1  0
  7 16  1  0
 16 17  1  0
 17  4  1  0
 15 11  2  0
M  CHG  1   3   1
M  END
>  <EmbedRMS>  (92) 
0.20783527019262546

>  <Gold.Version>  (92) 
2020.3.0

>  <Gold.Id.Protein>  (92) 
unknown|1q8t_protein|pdb

>  <Gold.PLP.Fitness>  (92) 
45.7988

>  <Gold.PLP.PLP>  (92) 
-33.5004

>  <Gold.PLP.part.hbond>  (92) 
-2.7484

>  <Gold.PLP.part.metal>  (92) 
0.0000

>  <Gold.PLP.part.buried>  (92) 
-3.9111

>  <Gold.PLP.part.nonpolar>  (92) 
-26.7951

>  <Gold.PLP.part.repulsive>  (92) 
0.1659

>  <Gold.PLP.ligand.clash>  (92) 
0.0000

>  <Gold.PLP.ligand.torsion>  (92) 
1.1120

>  <Gold.PLP.Chemscore.Hbond>  (92) 
3.7120

>  <Gold.PLP.Chemscore.CHOScore>  (92) 
0.9984

>  <Gold.PLP.Chemscore.Metal>  (92) 
0.0000

>  <Gold.Chemscore.Hbonds>  (92) 
donor molecule, donor type, donor heavy atom, donor atom, acceptor molecule, acceptor atom, score
      L1  H     3    22       P1  2902  2.00
      L1  H     3    23       P1  2691  0.75
      P1  H  2887  2891       L1     9  0.96
      L1  C    13    33       P1  1855  1.00

>  <Gold.PLP.Chemscore.Internal.Correction>  (92) 
0.3911

>  <Gold.PLP.Constraint>  (92) 
-0.0000

>  <Gold.Protein.RotatedTorsions>  (92) 
[  681  677  676  673 ] final  160.54 input -179.99 | X-H torsion
[  702  698  697  694 ] final   -2.25 input  179.99 | X-H torsion
[ 2577 2569 2568 2566 ] final  -92.44 input   -0.13 | X-H torsion
[ 2891 2887 2886 2883 ] final  135.43 input  179.98 | X-H torsion
[ 3175 3171 3170 3167 ] final  164.82 input -179.99 | X-H torsion
[ 5278 5270 5269 5267 ] final   92.27 input    0.55 | X-H torsion
[  641  637  636  633 ] final   58.68 input  179.99 | X-H torsion
[ 1886 1878 1877 1875 ] final -142.81 input    1.60 | X-H torsion
[  965  957  956  954 ] final   60.76 input    0.45 | X-H torsion

>  <Gold.Protein.ActiveResidues>  (92) 
 LYS47   THR48   LEU49   GLY50   THR51   GLY52   SER53   PHE54   GLY55   ARG56  
 VAL57   MET58   LEU59   TYR69   ALA70   MET71   LYS72   ILE73   LEU74   GLU91  
 LEU95   VAL104  LYS105  MET118  VAL119  MET120  GLU121  TYR122  VAL123  PRO124 
 GLY125  GLY126  GLU127  MET128  PHE129  TYR164  ASP166  LEU167  LYS168  PRO169 
 GLU170  ASN171  LEU172  LEU173  ILE174  GLN181  VAL182  THR183  ASP184  PHE185 
 GLY186  PHE187  GLY200  THR201  ASN326  PHE327  TYR330  ARG18   ARG19   ASN20  
 ALA21   ILE22   HIS23  

>  <Gold.Protein.RotatedAtoms>  (92) 
    9.8858   19.6823    8.6576 H   0  0  0  0  0  0  0  0  0  0  0  0  # atno 641  bound_to 637 
   17.1616   13.7908    6.7986 H   0  0  0  0  0  0  0  0  0  0  0  0  # atno 681  bound_to 677 
   19.5150   11.8213   -0.6111 H   0  0  0  0  0  0  0  0  0  0  0  0  # atno 702  bound_to 698 
   -7.0774   15.6474   -0.2088 H   0  0  0  0  0  0  0  0  0  0  0  0  # atno 965  bound_to 957 
    0.6942   10.9856   10.9379 H   0  0  0  0  0  0  0  0  0  0  0  0  # atno 1886 bound_to 1878
   10.9853    2.9787   -3.0787 H   0  0  0  0  0  0  0  0  0  0  0  0  # atno 2577 bound_to 2569
    7.8541    6.9491    0.9867 H   0  0  0  0  0  0  0  0  0  0  0  0  # atno 2891 bound_to 2887
   18.0336    2.1013    0.0165 H   0  0  0  0  0  0  0  0  0  0  0  0  # atno 3175 bound_to 3171
   13.3350   10.2330    8.7646 H   0  0  0  0  0  0  0  0  0  0  0  0  # atno 5278 bound_to 5270
   16.3975   12.5815    6.0987 LP  0  0  0  0  0  0  0  0  0  0  0  0  # atno 5914 bound_to 677 
   15.7136   13.4009    7.3347 LP  0  0  0  0  0  0  0  0  0  0  0  0  # atno 5915 bound_to 677 
   21.0751   11.5305   -0.7486 LP  0  0  0  0  0  0  0  0  0  0  0  0  # atno 5920 bound_to 698 
   20.1395   11.7219   -2.0732 LP  0  0  0  0  0  0  0  0  0  0  0  0  # atno 5921 bound_to 698 
   10.1018    1.8702   -2.3534 LP  0  0  0  0  0  0  0  0  0  0  0  0  # atno 5950 bound_to 2569
    9.4021    3.0577   -3.2292 LP  0  0  0  0  0  0  0  0  0  0  0  0  # atno 5951 bound_to 2569
    8.2378    5.5940    0.2431 LP  0  0  0  0  0  0  0  0  0  0  0  0  # atno 5982 bound_to 2887
    7.1711    5.5973    1.4795 LP  0  0  0  0  0  0  0  0  0  0  0  0  # atno 5983 bound_to 2887
   18.6033    2.3531   -1.4490 LP  0  0  0  0  0  0  0  0  0  0  0  0  # atno 6000 bound_to 3171
   19.3062    3.0443   -0.1472 LP  0  0  0  0  0  0  0  0  0  0  0  0  # atno 6001 bound_to 3171
   12.8363    9.8497   10.2279 LP  0  0  0  0  0  0  0  0  0  0  0  0  # atno 6004 bound_to 5270
   14.4299    9.9506    9.8863 LP  0  0  0  0  0  0  0  0  0  0  0  0  # atno 6005 bound_to 5270
   10.1582   18.9716    7.2591 LP  0  0  0  0  0  0  0  0  0  0  0  0  # atno 6055 bound_to 637 
   11.3949   19.4010    8.2352 LP  0  0  0  0  0  0  0  0  0  0  0  0  # atno 6056 bound_to 637 
    1.4984   12.3561   10.8361 LP  0  0  0  0  0  0  0  0  0  0  0  0  # atno 6063 bound_to 1878
    2.1561   10.9580   10.3076 LP  0  0  0  0  0  0  0  0  0  0  0  0  # atno 6064 bound_to 1878
   -6.4470   16.0082   -1.6257 LP  0  0  0  0  0  0  0  0  0  0  0  0  # atno 6067 bound_to 957 
   -6.9072   17.1839   -0.5900 LP  0  0  0  0  0  0  0  0  0  0  0  0  # atno 6068 bound_to 957 

>  <STRIFE_LigEff_Score>  (92) 
2.6940470588235295

$$$$
unknown|pharmsElabsTestPreDocking|sdf|93|dock1
     RDKit          3D

 16 16  0  0  0  0  0  0  0  0999 V2000
    3.6120    8.6022    2.9753 C   0  0  0  0  0  0  0  0  0  0  0  0
    4.5162    9.8140    2.7520 C   0  0  0  0  0  0  0  0  0  0  0  0
    5.4020    9.9543    4.0012 C   0  0  0  0  0  0  0  0  0  0  0  0
    4.6861    9.7918    5.3203 C   0  0  0  0  0  0  0  0  0  0  0  0
    6.7489    9.4015    3.9753 N   0  0  0  0  0  0  0  0  0  0  0  0
    7.7706    9.5631    2.9922 C   0  0  0  0  0  0  0  0  0  0  0  0
    7.4998   10.1018    1.8863 O   0  0  0  0  0  0  0  0  0  0  0  0
    9.1010    8.8776    3.1978 C   0  0  0  0  0  0  0  0  0  0  0  0
    9.3837    7.9241    2.0378 C   0  0  0  0  0  0  0  0  0  0  0  0
   10.6406    7.0989    2.2778 C   0  0  0  0  0  0  0  0  0  0  0  0
   11.8648    7.8838    2.8198 C   0  0  0  0  0  0  0  0  0  0  0  0
   13.1917    7.8683    2.0343 C   0  0  0  0  0  0  0  0  0  0  0  0
   14.4965    8.0088    2.8185 C   0  0  0  0  0  0  0  0  0  0  0  0
   13.1686    8.7833    0.8848 N   0  0  0  0  0  0  0  0  0  0  0  0
   11.5837    9.2318    3.5528 C   0  0  0  0  0  0  0  0  0  0  0  0
   10.2307    9.8961    3.2933 C   0  0  0  0  0  0  0  0  0  0  0  0
  1  2  1  0
  2  3  1  0
  3  4  1  0
  3  5  1  0
  5  6  1  0
  6  7  2  0
  6  8  1  0
  8  9  1  0
  9 10  1  0
 10 11  1  0
 11 12  1  0
 12 13  1  0
 12 14  1  0
 11 15  1  0
 15 16  1  0
 16  8  1  0
M  CHG  1  14   1
M  END
>  <EmbedRMS>  (93) 
0.29993262092162043

>  <Gold.Version>  (93) 
2020.3.0

>  <Gold.Id.Protein>  (93) 
unknown|1q8t_protein|pdb

>  <Gold.PLP.Fitness>  (93) 
42.3836

>  <Gold.PLP.PLP>  (93) 
-37.0940

>  <Gold.PLP.part.hbond>  (93) 
-0.9617

>  <Gold.PLP.part.metal>  (93) 
0.0000

>  <Gold.PLP.part.buried>  (93) 
-2.4022

>  <Gold.PLP.part.nonpolar>  (93) 
-33.6981

>  <Gold.PLP.part.repulsive>  (93) 
0.0000

>  <Gold.PLP.ligand.clash>  (93) 
0.0000

>  <Gold.PLP.ligand.torsion>  (93) 
0.8319

>  <Gold.PLP.Chemscore.Hbond>  (93) 
2.0000

>  <Gold.PLP.Chemscore.CHOScore>  (93) 
0.0000

>  <Gold.PLP.Chemscore.Metal>  (93) 
0.0000

>  <Gold.Chemscore.Hbonds>  (93) 
donor molecule, donor type, donor heavy atom, donor atom, acceptor molecule, acceptor atom, score
      L1  H    14    38       P1  2902  2.00

>  <Gold.PLP.Chemscore.Internal.Correction>  (93) 
0.9534

>  <Gold.PLP.Constraint>  (93) 
-0.0000

>  <Gold.Protein.RotatedTorsions>  (93) 
[  681  677  676  673 ] final   73.94 input -179.99 | X-H torsion
[  702  698  697  694 ] final  -54.46 input  179.99 | X-H torsion
[ 2577 2569 2568 2566 ] final   50.69 input   -0.13 | X-H torsion
[ 2891 2887 2886 2883 ] final  -69.55 input  179.98 | X-H torsion
[ 3175 3171 3170 3167 ] final   36.51 input -179.99 | X-H torsion
[ 5278 5270 5269 5267 ] final -159.95 input    0.55 | X-H torsion
[  641  637  636  633 ] final   65.60 input  179.99 | X-H torsion
[ 1886 1878 1877 1875 ] final   24.50 input    1.60 | X-H torsion
[  965  957  956  954 ] final -171.94 input    0.45 | X-H torsion

>  <Gold.Protein.ActiveResidues>  (93) 
 LYS47   THR48   LEU49   GLY50   THR51   GLY52   SER53   PHE54   GLY55   ARG56  
 VAL57   MET58   LEU59   TYR69   ALA70   MET71   LYS72   ILE73   LEU74   GLU91  
 LEU95   VAL104  LYS105  MET118  VAL119  MET120  GLU121  TYR122  VAL123  PRO124 
 GLY125  GLY126  GLU127  MET128  PHE129  TYR164  ASP166  LEU167  LYS168  PRO169 
 GLU170  ASN171  LEU172  LEU173  ILE174  GLN181  VAL182  THR183  ASP184  PHE185 
 GLY186  PHE187  GLY200  THR201  ASN326  PHE327  TYR330  ARG18   ARG19   ASN20  
 ALA21   ILE22   HIS23  

>  <Gold.Protein.RotatedAtoms>  (93) 
    9.9718   19.7083    8.7178 H   0  0  0  0  0  0  0  0  0  0  0  0  # atno 641  bound_to 637 
   16.8502   12.8559    6.0646 H   0  0  0  0  0  0  0  0  0  0  0  0  # atno 681  bound_to 677 
   20.1987   11.6929   -0.2395 H   0  0  0  0  0  0  0  0  0  0  0  0  # atno 702  bound_to 698 
   -6.8413   17.1580   -0.6958 H   0  0  0  0  0  0  0  0  0  0  0  0  # atno 965  bound_to 957 
    2.2312   11.6895   10.3804 H   0  0  0  0  0  0  0  0  0  0  0  0  # atno 1886 bound_to 1878
    9.3019    2.7512   -3.0441 H   0  0  0  0  0  0  0  0  0  0  0  0  # atno 2577 bound_to 2569
    7.4047    5.2624    1.1032 H   0  0  0  0  0  0  0  0  0  0  0  0  # atno 2891 bound_to 2887
   18.7196    2.4231   -1.4065 H   0  0  0  0  0  0  0  0  0  0  0  0  # atno 3175 bound_to 3171
   14.4225   10.0149    9.6951 H   0  0  0  0  0  0  0  0  0  0  0  0  # atno 5278 bound_to 5270
   15.5763   12.9886    7.0111 LP  0  0  0  0  0  0  0  0  0  0  0  0  # atno 5914 bound_to 677 
   16.8626   13.9777    7.1948 LP  0  0  0  0  0  0  0  0  0  0  0  0  # atno 5915 bound_to 677 
   21.0511   11.5508   -1.5776 LP  0  0  0  0  0  0  0  0  0  0  0  0  # atno 5920 bound_to 698 
   19.4444   11.8367   -1.6351 LP  0  0  0  0  0  0  0  0  0  0  0  0  # atno 5921 bound_to 698 
   10.8000    3.2466   -3.2579 LP  0  0  0  0  0  0  0  0  0  0  0  0  # atno 5950 bound_to 2569
   10.4764    1.9209   -2.3611 LP  0  0  0  0  0  0  0  0  0  0  0  0  # atno 5951 bound_to 2569
    7.4982    6.8253    1.3947 LP  0  0  0  0  0  0  0  0  0  0  0  0  # atno 5982 bound_to 2887
    8.3836    6.1412    0.2053 LP  0  0  0  0  0  0  0  0  0  0  0  0  # atno 5983 bound_to 2887
   19.2482    3.0170   -0.0269 LP  0  0  0  0  0  0  0  0  0  0  0  0  # atno 6000 bound_to 3171
   17.9393    2.0417   -0.0719 LP  0  0  0  0  0  0  0  0  0  0  0  0  # atno 6001 bound_to 3171
   13.1349   10.2104    8.7783 LP  0  0  0  0  0  0  0  0  0  0  0  0  # atno 6004 bound_to 5270
   12.9870    9.8195   10.3569 LP  0  0  0  0  0  0  0  0  0  0  0  0  # atno 6005 bound_to 5270
   10.0533   18.9963    7.2960 LP  0  0  0  0  0  0  0  0  0  0  0  0  # atno 6055 bound_to 637 
   11.4092   19.3489    8.1349 LP  0  0  0  0  0  0  0  0  0  0  0  0  # atno 6056 bound_to 637 
    1.1912   10.5161   10.6577 LP  0  0  0  0  0  0  0  0  0  0  0  0  # atno 6063 bound_to 1878
    0.8453   12.0570   11.0730 LP  0  0  0  0  0  0  0  0  0  0  0  0  # atno 6064 bound_to 1878
   -7.1381   15.7062   -0.1135 LP  0  0  0  0  0  0  0  0  0  0  0  0  # atno 6067 bound_to 957 
   -6.4647   15.8950   -1.5892 LP  0  0  0  0  0  0  0  0  0  0  0  0  # atno 6068 bound_to 957 

>  <STRIFE_LigEff_Score>  (93) 
2.648975

$$$$
unknown|pharmsElabsTestPreDocking|sdf|94|dock5
     RDKit          3D

 19 20  0  0  0  0  0  0  0  0999 V2000
   14.2465    7.3133    3.4082 C   0  0  0  0  0  0  0  0  0  0  0  0
   14.0038    8.0200    2.0598 C   0  0  0  0  0  0  0  0  0  0  0  0
   14.3559    7.1048    0.9666 N   0  0  0  0  0  0  0  0  0  0  0  0
   12.5269    8.5050    1.9678 C   0  0  0  0  0  0  0  0  0  0  0  0
   11.5745    7.2915    1.9508 C   0  0  0  0  0  0  0  0  0  0  0  0
   10.1451    7.7493    1.6989 C   0  0  0  0  0  0  0  0  0  0  0  0
    9.6970    8.7117    2.8027 C   0  0  0  0  0  0  0  0  0  0  0  0
    8.2807    9.1499    2.5666 C   0  0  0  0  0  0  0  0  0  0  0  0
    7.9872    9.8075    1.5311 O   0  0  0  0  0  0  0  0  0  0  0  0
    7.2851    8.8124    3.5394 N   0  0  0  0  0  0  0  0  0  0  0  0
    5.8867    9.1214    3.4529 C   0  0  0  0  0  0  0  0  0  0  0  0
    5.0505    8.8987    2.3686 C   0  0  0  0  0  0  0  0  0  0  0  0
    3.8182    9.3724    2.7616 C   0  0  0  0  0  0  0  0  0  0  0  0
    2.6917    9.3627    2.0129 F   0  0  0  0  0  0  0  0  0  0  0  0
    3.9321    9.8591    4.0446 C   0  0  0  0  0  0  0  0  0  0  0  0
    5.2008    9.7013    4.4622 N   0  0  0  0  0  0  0  0  0  0  0  0
    5.7258   10.0928    5.7666 C   0  0  0  0  0  0  0  0  0  0  0  0
   10.6410    9.9206    2.9159 C   0  0  0  0  0  0  0  0  0  0  0  0
   12.0986    9.4677    3.1033 C   0  0  0  0  0  0  0  0  0  0  0  0
  1  2  1  0
  2  3  1  0
  2  4  1  0
  4  5  1  0
  5  6  1  0
  6  7  1  0
  7  8  1  0
  8  9  2  0
  8 10  1  0
 10 11  1  0
 11 12  2  0
 12 13  1  0
 13 14  1  0
 13 15  2  0
 15 16  1  0
 16 17  1  0
  7 18  1  0
 18 19  1  0
 19  4  1  0
 16 11  1  0
M  CHG  1   3   1
M  END
>  <EmbedRMS>  (94) 
0.02909018866074031

>  <Gold.Version>  (94) 
2020.3.0

>  <Gold.Id.Protein>  (94) 
unknown|1q8t_protein|pdb

>  <Gold.PLP.Fitness>  (94) 
52.4467

>  <Gold.PLP.PLP>  (94) 
-44.3144

>  <Gold.PLP.part.hbond>  (94) 
-2.0000

>  <Gold.PLP.part.metal>  (94) 
0.0000

>  <Gold.PLP.part.buried>  (94) 
2.4238

>  <Gold.PLP.part.nonpolar>  (94) 
-44.7381

>  <Gold.PLP.part.repulsive>  (94) 
0.0708

>  <Gold.PLP.ligand.clash>  (94) 
0.0000

>  <Gold.PLP.ligand.torsion>  (94) 
0.4509

>  <Gold.PLP.Chemscore.Hbond>  (94) 
3.0000

>  <Gold.PLP.Chemscore.CHOScore>  (94) 
0.0000

>  <Gold.PLP.Chemscore.Metal>  (94) 
0.0000

>  <Gold.Chemscore.Hbonds>  (94) 
donor molecule, donor type, donor heavy atom, donor atom, acceptor molecule, acceptor atom, score
      L1  H     3    25       P1  2691  1.00
      L1  H     3    26       P1  2902  2.00

>  <Gold.PLP.Chemscore.Internal.Correction>  (94) 
0.0340

>  <Gold.PLP.Constraint>  (94) 
-0.0000

>  <Gold.Protein.RotatedTorsions>  (94) 
[  681  677  676  673 ] final   60.02 input -179.99 | X-H torsion
[  702  698  697  694 ] final  -24.94 input  179.99 | X-H torsion
[ 2577 2569 2568 2566 ] final   93.66 input   -0.13 | X-H torsion
[ 2891 2887 2886 2883 ] final  -39.95 input  179.98 | X-H torsion
[ 3175 3171 3170 3167 ] final  -81.41 input -179.99 | X-H torsion
[ 5278 5270 5269 5267 ] final   -6.39 input    0.55 | X-H torsion
[  641  637  636  633 ] final  -43.00 input  179.99 | X-H torsion
[ 1886 1878 1877 1875 ] final  103.05 input    1.60 | X-H torsion
[  965  957  956  954 ] final  134.49 input    0.45 | X-H torsion

>  <Gold.Protein.ActiveResidues>  (94) 
 LYS47   THR48   LEU49   GLY50   THR51   GLY52   SER53   PHE54   GLY55   ARG56  
 VAL57   MET58   LEU59   TYR69   ALA70   MET71   LYS72   ILE73   LEU74   GLU91  
 LEU95   VAL104  LYS105  MET118  VAL119  MET120  GLU121  TYR122  VAL123  PRO124 
 GLY125  GLY126  GLU127  MET128  PHE129  TYR164  ASP166  LEU167  LYS168  PRO169 
 GLU170  ASN171  LEU172  LEU173  ILE174  GLN181  VAL182  THR183  ASP184  PHE185 
 GLY186  PHE187  GLY200  THR201  ASN326  PHE327  TYR330  ARG18   ARG19   ASN20  
 ALA21   ILE22   HIS23  

>  <Gold.Protein.RotatedAtoms>  (94) 
    9.9227   19.0495    7.4223 H   0  0  0  0  0  0  0  0  0  0  0  0  # atno 641  bound_to 637 
   16.6682   12.7376    6.0601 H   0  0  0  0  0  0  0  0  0  0  0  0  # atno 681  bound_to 677 
   19.7686   11.7717   -0.3713 H   0  0  0  0  0  0  0  0  0  0  0  0  # atno 702  bound_to 698 
   -7.1238   16.7135   -0.0844 H   0  0  0  0  0  0  0  0  0  0  0  0  # atno 965  bound_to 957 
    1.4048   12.3075   10.8501 H   0  0  0  0  0  0  0  0  0  0  0  0  # atno 1886 bound_to 1878
    9.4161    2.2245   -2.6700 H   0  0  0  0  0  0  0  0  0  0  0  0  # atno 2577 bound_to 2569
    7.6893    5.1816    0.7541 H   0  0  0  0  0  0  0  0  0  0  0  0  # atno 2891 bound_to 2887
   19.2429    2.9846   -0.0774 H   0  0  0  0  0  0  0  0  0  0  0  0  # atno 3175 bound_to 3171
   12.6951    9.9396    9.9274 H   0  0  0  0  0  0  0  0  0  0  0  0  # atno 5278 bound_to 5270
   15.5994   13.1570    7.1637 LP  0  0  0  0  0  0  0  0  0  0  0  0  # atno 5914 bound_to 677 
   17.0310   13.9338    7.0469 LP  0  0  0  0  0  0  0  0  0  0  0  0  # atno 5915 bound_to 677 
   21.1577   11.5228   -1.1100 LP  0  0  0  0  0  0  0  0  0  0  0  0  # atno 5920 bound_to 698 
   19.7901   11.7818   -1.9640 LP  0  0  0  0  0  0  0  0  0  0  0  0  # atno 5921 bound_to 698 
   10.1519    3.4181   -3.4245 LP  0  0  0  0  0  0  0  0  0  0  0  0  # atno 5950 bound_to 2569
   11.0042    2.3040   -2.5884 LP  0  0  0  0  0  0  0  0  0  0  0  0  # atno 5951 bound_to 2569
    7.2517    6.4625    1.5933 LP  0  0  0  0  0  0  0  0  0  0  0  0  # atno 5982 bound_to 2887
    8.3305    6.5890    0.3740 LP  0  0  0  0  0  0  0  0  0  0  0  0  # atno 5983 bound_to 2887
   17.9510    2.0543   -0.0420 LP  0  0  0  0  0  0  0  0  0  0  0  0  # atno 6000 bound_to 3171
   18.6858    2.4134   -1.4554 LP  0  0  0  0  0  0  0  0  0  0  0  0  # atno 6001 bound_to 3171
   14.2656    9.8753   10.1850 LP  0  0  0  0  0  0  0  0  0  0  0  0  # atno 6004 bound_to 5270
   13.6738   10.2339    8.7058 LP  0  0  0  0  0  0  0  0  0  0  0  0  # atno 6005 bound_to 5270
   11.4029   19.2641    7.9682 LP  0  0  0  0  0  0  0  0  0  0  0  0  # atno 6055 bound_to 637 
   10.1113   19.7749    8.8271 LP  0  0  0  0  0  0  0  0  0  0  0  0  # atno 6056 bound_to 637 
    2.2017   11.0427   10.3020 LP  0  0  0  0  0  0  0  0  0  0  0  0  # atno 6063 bound_to 1878
    0.7048   10.8798   10.9341 LP  0  0  0  0  0  0  0  0  0  0  0  0  # atno 6064 bound_to 1878
   -6.8263   15.3261   -0.8067 LP  0  0  0  0  0  0  0  0  0  0  0  0  # atno 6067 bound_to 957 
   -6.4790   16.7433   -1.5399 LP  0  0  0  0  0  0  0  0  0  0  0  0  # atno 6068 bound_to 957 

>  <STRIFE_LigEff_Score>  (94) 
2.7603526315789475

$$$$
unknown|pharmsElabsTestPreDocking|sdf|95|dock7
     RDKit          3D

 14 14  0  0  0  0  0  0  0  0999 V2000
    4.0626    9.7395    5.2991 C   0  0  0  0  0  0  0  0  0  0  0  0
    4.9606   10.0198    4.1004 C   0  0  0  0  0  0  0  0  0  0  0  0
    6.2710    9.4066    4.2898 N   0  0  0  0  0  0  0  0  0  0  0  0
    7.2937    9.4510    3.2874 C   0  0  0  0  0  0  0  0  0  0  0  0
    7.1093   10.0994    2.2193 O   0  0  0  0  0  0  0  0  0  0  0  0
    8.6007    8.7441    3.5271 C   0  0  0  0  0  0  0  0  0  0  0  0
    8.9053    7.7834    2.3792 C   0  0  0  0  0  0  0  0  0  0  0  0
   10.1458    6.9478    2.6627 C   0  0  0  0  0  0  0  0  0  0  0  0
   11.3613    7.7246    3.2359 C   0  0  0  0  0  0  0  0  0  0  0  0
   12.7119    7.6842    2.4936 C   0  0  0  0  0  0  0  0  0  0  0  0
   13.9929    7.6819    3.3275 C   0  0  0  0  0  0  0  0  0  0  0  0
   12.7860    8.6832    1.4186 N   0  0  0  0  0  0  0  0  0  0  0  0
   11.0760    9.0851    3.9426 C   0  0  0  0  0  0  0  0  0  0  0  0
    9.7362    9.7554    3.6438 C   0  0  0  0  0  0  0  0  0  0  0  0
  1  2  1  0
  2  3  1  0
  3  4  1  0
  4  5  2  0
  4  6  1  0
  6  7  1  0
  7  8  1  0
  8  9  1  0
  9 10  1  0
 10 11  1  0
 10 12  1  0
  9 13  1  0
 13 14  1  0
 14  6  1  0
M  CHG  1  12   1
M  END
>  <EmbedRMS>  (95) 
0.22880006867790334

>  <Gold.Version>  (95) 
2020.3.0

>  <Gold.Id.Protein>  (95) 
unknown|1q8t_protein|pdb

>  <Gold.PLP.Fitness>  (95) 
33.9924

>  <Gold.PLP.PLP>  (95) 
-28.5360

>  <Gold.PLP.part.hbond>  (95) 
-1.0000

>  <Gold.PLP.part.metal>  (95) 
0.0000

>  <Gold.PLP.part.buried>  (95) 
0.4400

>  <Gold.PLP.part.nonpolar>  (95) 
-27.8266

>  <Gold.PLP.part.repulsive>  (95) 
0.0000

>  <Gold.PLP.ligand.clash>  (95) 
0.0000

>  <Gold.PLP.ligand.torsion>  (95) 
0.4643

>  <Gold.PLP.Chemscore.Hbond>  (95) 
2.0000

>  <Gold.PLP.Chemscore.CHOScore>  (95) 
0.0000

>  <Gold.PLP.Chemscore.Metal>  (95) 
0.0000

>  <Gold.Chemscore.Hbonds>  (95) 
donor molecule, donor type, donor heavy atom, donor atom, acceptor molecule, acceptor atom, score
      L1  H    12    33       P1  2902  2.00

>  <Gold.PLP.Chemscore.Internal.Correction>  (95) 
0.3849

>  <Gold.PLP.Constraint>  (95) 
-0.0000

>  <Gold.Protein.RotatedTorsions>  (95) 
[  681  677  676  673 ] final -136.99 input -179.99 | X-H torsion
[  702  698  697  694 ] final    3.72 input  179.99 | X-H torsion
[ 2577 2569 2568 2566 ] final   31.20 input   -0.13 | X-H torsion
[ 2891 2887 2886 2883 ] final  154.19 input  179.98 | X-H torsion
[ 3175 3171 3170 3167 ] final   49.51 input -179.99 | X-H torsion
[ 5278 5270 5269 5267 ] final   -4.73 input    0.55 | X-H torsion
[  641  637  636  633 ] final   37.90 input  179.99 | X-H torsion
[ 1886 1878 1877 1875 ] final   64.36 input    1.60 | X-H torsion
[  965  957  956  954 ] final   66.32 input    0.45 | X-H torsion

>  <Gold.Protein.ActiveResidues>  (95) 
 LYS47   THR48   LEU49   GLY50   THR51   GLY52   SER53   PHE54   GLY55   ARG56  
 VAL57   MET58   LEU59   TYR69   ALA70   MET71   LYS72   ILE73   LEU74   GLU91  
 LEU95   VAL104  LYS105  MET118  VAL119  MET120  GLU121  TYR122  VAL123  PRO124 
 GLY125  GLY126  GLU127  MET128  PHE129  TYR164  ASP166  LEU167  LYS168  PRO169 
 GLU170  ASN171  LEU172  LEU173  ILE174  GLN181  VAL182  THR183  ASP184  PHE185 
 GLY186  PHE187  GLY200  THR201  ASN326  PHE327  TYR330  ARG18   ARG19   ASN20  
 ALA21   ILE22   HIS23  

>  <Gold.Protein.RotatedAtoms>  (95) 
    9.6832   19.5771    8.4293 H   0  0  0  0  0  0  0  0  0  0  0  0  # atno 641  bound_to 637 
   16.4369   13.9114    7.3672 H   0  0  0  0  0  0  0  0  0  0  0  0  # atno 681  bound_to 677 
   19.4655   11.8316   -0.6896 H   0  0  0  0  0  0  0  0  0  0  0  0  # atno 702  bound_to 698 
   -7.1005   15.7128   -0.1566 H   0  0  0  0  0  0  0  0  0  0  0  0  # atno 965  bound_to 957 
    1.9239   12.1702   10.5978 H   0  0  0  0  0  0  0  0  0  0  0  0  # atno 1886 bound_to 1878
    9.4114    2.9871   -3.1999 H   0  0  0  0  0  0  0  0  0  0  0  0  # atno 2577 bound_to 2569
    7.6602    6.9026    1.2002 H   0  0  0  0  0  0  0  0  0  0  0  0  # atno 2891 bound_to 2887
   18.5562    2.3043   -1.3892 H   0  0  0  0  0  0  0  0  0  0  0  0  # atno 3175 bound_to 3171
   12.6860    9.9453    9.9037 H   0  0  0  0  0  0  0  0  0  0  0  0  # atno 5278 bound_to 5270
   17.1843   13.1561    6.1810 LP  0  0  0  0  0  0  0  0  0  0  0  0  # atno 5914 bound_to 677 
   15.6896   12.6993    6.6541 LP  0  0  0  0  0  0  0  0  0  0  0  0  # atno 5915 bound_to 677 
   21.0306   11.5367   -0.6612 LP  0  0  0  0  0  0  0  0  0  0  0  0  # atno 5920 bound_to 698 
   20.2361   11.7049   -2.0780 LP  0  0  0  0  0  0  0  0  0  0  0  0  # atno 5921 bound_to 698 
   10.9996    3.0491   -3.1062 LP  0  0  0  0  0  0  0  0  0  0  0  0  # atno 5950 bound_to 2569
   10.1615    1.8699   -2.3488 LP  0  0  0  0  0  0  0  0  0  0  0  0  # atno 5951 bound_to 2569
    8.3426    5.8780    0.1897 LP  0  0  0  0  0  0  0  0  0  0  0  0  # atno 5982 bound_to 2887
    7.2703    5.3622    1.3081 LP  0  0  0  0  0  0  0  0  0  0  0  0  # atno 5983 bound_to 2887
   19.3330    3.0546   -0.2191 LP  0  0  0  0  0  0  0  0  0  0  0  0  # atno 6000 bound_to 3171
   18.0266    2.1291    0.1022 LP  0  0  0  0  0  0  0  0  0  0  0  0  # atno 6001 bound_to 3171
   14.2481    9.8700   10.2054 LP  0  0  0  0  0  0  0  0  0  0  0  0  # atno 6004 bound_to 5270
   13.7009   10.2331    8.7103 LP  0  0  0  0  0  0  0  0  0  0  0  0  # atno 6005 bound_to 5270
   10.4937   18.9328    7.2197 LP  0  0  0  0  0  0  0  0  0  0  0  0  # atno 6055 bound_to 637 
   11.2728   19.5507    8.5150 LP  0  0  0  0  0  0  0  0  0  0  0  0  # atno 6056 bound_to 637 
    1.7798   10.5954   10.4117 LP  0  0  0  0  0  0  0  0  0  0  0  0  # atno 6063 bound_to 1878
    0.5803   11.4717   11.0900 LP  0  0  0  0  0  0  0  0  0  0  0  0  # atno 6064 bound_to 1878
   -6.4599   15.9217   -1.5991 LP  0  0  0  0  0  0  0  0  0  0  0  0  # atno 6067 bound_to 957 
   -6.8699   17.2016   -0.6715 LP  0  0  0  0  0  0  0  0  0  0  0  0  # atno 6068 bound_to 957 

>  <STRIFE_LigEff_Score>  (95) 
2.428028571428572

$$$$
unknown|pharmsElabsTestPreDocking|sdf|96|dock2
     RDKit          3D

 18 19  0  0  0  0  0  0  0  0999 V2000
    2.6092    9.5025    2.0563 C   0  0  0  0  0  0  0  0  0  0  0  0
    3.6290    9.4827    3.1448 C   0  0  0  0  0  0  0  0  0  0  0  0
    4.9964    9.2561    2.8842 C   0  0  0  0  0  0  0  0  0  0  0  0
    5.7657    9.2727    4.0346 C   0  0  0  0  0  0  0  0  0  0  0  0
    7.1819    9.0682    4.0838 N   0  0  0  0  0  0  0  0  0  0  0  0
    8.0631    9.1195    2.9541 C   0  0  0  0  0  0  0  0  0  0  0  0
    7.6255    9.3960    1.8027 O   0  0  0  0  0  0  0  0  0  0  0  0
    9.5326    8.8630    3.1606 C   0  0  0  0  0  0  0  0  0  0  0  0
    9.9950    7.6794    2.3143 C   0  0  0  0  0  0  0  0  0  0  0  0
   11.4384    7.3048    2.6205 C   0  0  0  0  0  0  0  0  0  0  0  0
   12.4323    8.4927    2.7238 C   0  0  0  0  0  0  0  0  0  0  0  0
   13.6723    8.5318    1.8087 C   0  0  0  0  0  0  0  0  0  0  0  0
   13.9934    9.8398    1.0856 C   0  0  0  0  0  0  0  0  0  0  0  0
   13.7150    7.3937    0.8803 N   0  0  0  0  0  0  0  0  0  0  0  0
   11.8388    9.9012    3.0338 C   0  0  0  0  0  0  0  0  0  0  0  0
   10.3450   10.0961    2.7804 C   0  0  0  0  0  0  0  0  0  0  0  0
    4.7116    9.5593    5.2952 S   0  0  0  0  0  0  0  0  0  0  0  0
    3.2853    9.6702    4.4481 N   0  0  0  0  0  0  0  0  0  0  0  0
  1  2  1  0
  2  3  1  0
  3  4  2  0
  4  5  1  0
  5  6  1  0
  6  7  2  0
  6  8  1  0
  8  9  1  0
  9 10  1  0
 10 11  1  0
 11 12  1  0
 12 13  1  0
 12 14  1  0
 11 15  1  0
 15 16  1  0
  4 17  1  0
 17 18  1  0
 18  2  2  0
 16  8  1  0
M  CHG  1  14   1
M  END
>  <EmbedRMS>  (96) 
0.20198796152370316

>  <Gold.Version>  (96) 
2020.3.0

>  <Gold.Id.Protein>  (96) 
unknown|1q8t_protein|pdb

>  <Gold.PLP.Fitness>  (96) 
49.1775

>  <Gold.PLP.PLP>  (96) 
-39.9448

>  <Gold.PLP.part.hbond>  (96) 
-3.0000

>  <Gold.PLP.part.metal>  (96) 
0.0000

>  <Gold.PLP.part.buried>  (96) 
-0.4432

>  <Gold.PLP.part.nonpolar>  (96) 
-37.7228

>  <Gold.PLP.part.repulsive>  (96) 
0.1571

>  <Gold.PLP.ligand.clash>  (96) 
0.0000

>  <Gold.PLP.ligand.torsion>  (96) 
1.3401

>  <Gold.PLP.Chemscore.Hbond>  (96) 
3.8320

>  <Gold.PLP.Chemscore.CHOScore>  (96) 
0.0000

>  <Gold.PLP.Chemscore.Metal>  (96) 
0.0000

>  <Gold.Chemscore.Hbonds>  (96) 
donor molecule, donor type, donor heavy atom, donor atom, acceptor molecule, acceptor atom, score
      L1  H    14    34       P1  2902  2.00
      L1  H    14    35       P1  2691  0.83
      P1  H  1888  1903       L1    18  1.00

>  <Gold.PLP.Chemscore.Internal.Correction>  (96) 
0.4170

>  <Gold.PLP.Constraint>  (96) 
-0.0000

>  <Gold.Protein.RotatedTorsions>  (96) 
[  681  677  676  673 ] final -131.08 input -179.99 | X-H torsion
[  702  698  697  694 ] final  108.30 input  179.99 | X-H torsion
[ 2577 2569 2568 2566 ] final  -16.98 input   -0.13 | X-H torsion
[ 2891 2887 2886 2883 ] final  165.21 input  179.98 | X-H torsion
[ 3175 3171 3170 3167 ] final   46.89 input -179.99 | X-H torsion
[ 5278 5270 5269 5267 ] final  -74.95 input    0.55 | X-H torsion
[  641  637  636  633 ] final  -83.18 input  179.99 | X-H torsion
[ 1886 1878 1877 1875 ] final   31.03 input    1.60 | X-H torsion
[  965  957  956  954 ] final  130.47 input    0.45 | X-H torsion

>  <Gold.Protein.ActiveResidues>  (96) 
 LYS47   THR48   LEU49   GLY50   THR51   GLY52   SER53   PHE54   GLY55   ARG56  
 VAL57   MET58   LEU59   TYR69   ALA70   MET71   LYS72   ILE73   LEU74   GLU91  
 LEU95   VAL104  LYS105  MET118  VAL119  MET120  GLU121  TYR122  VAL123  PRO124 
 GLY125  GLY126  GLU127  MET128  PHE129  TYR164  ASP166  LEU167  LYS168  PRO169 
 GLU170  ASN171  LEU172  LEU173  ILE174  GLN181  VAL182  THR183  ASP184  PHE185 
 GLY186  PHE187  GLY200  THR201  ASN326  PHE327  TYR330  ARG18   ARG19   ASN20  
 ALA21   ILE22   HIS23  

>  <Gold.Protein.RotatedAtoms>  (96) 
   10.5084   18.9392    7.2704 H   0  0  0  0  0  0  0  0  0  0  0  0  # atno 641  bound_to 637 
   16.3525   13.8823    7.3905 H   0  0  0  0  0  0  0  0  0  0  0  0  # atno 681  bound_to 677 
   20.0038   11.7614   -1.9997 H   0  0  0  0  0  0  0  0  0  0  0  0  # atno 702  bound_to 698 
   -7.1364   16.6579   -0.0580 H   0  0  0  0  0  0  0  0  0  0  0  0  # atno 965  bound_to 957 
    2.2044   11.7839   10.4083 H   0  0  0  0  0  0  0  0  0  0  0  0  # atno 1886 bound_to 1878
   10.0093    3.3518   -3.4093 H   0  0  0  0  0  0  0  0  0  0  0  0  # atno 2577 bound_to 2569
    7.5494    6.8331    1.3119 H   0  0  0  0  0  0  0  0  0  0  0  0  # atno 2891 bound_to 2887
   18.5891    2.3277   -1.3964 H   0  0  0  0  0  0  0  0  0  0  0  0  # atno 3175 bound_to 3171
   13.5271    9.8109   10.4841 H   0  0  0  0  0  0  0  0  0  0  0  0  # atno 5278 bound_to 5270
   17.2251   13.2300    6.2289 LP  0  0  0  0  0  0  0  0  0  0  0  0  # atno 5914 bound_to 677 
   15.7375   12.6561    6.5815 LP  0  0  0  0  0  0  0  0  0  0  0  0  # atno 5915 bound_to 677 
   19.5738   11.7912   -0.4662 LP  0  0  0  0  0  0  0  0  0  0  0  0  # atno 5920 bound_to 698 
   21.1267   11.5242   -0.8950 LP  0  0  0  0  0  0  0  0  0  0  0  0  # atno 5921 bound_to 698 
   11.0662    2.4216   -2.6656 LP  0  0  0  0  0  0  0  0  0  0  0  0  # atno 5950 bound_to 2569
    9.4654    2.1135   -2.5689 LP  0  0  0  0  0  0  0  0  0  0  0  0  # atno 5951 bound_to 2569
    8.3757    6.0559    0.1940 LP  0  0  0  0  0  0  0  0  0  0  0  0  # atno 5982 bound_to 2887
    7.3538    5.2575    1.1864 LP  0  0  0  0  0  0  0  0  0  0  0  0  # atno 5983 bound_to 2887
   19.3187    3.0493   -0.1788 LP  0  0  0  0  0  0  0  0  0  0  0  0  # atno 6000 bound_to 3171
   18.0063    2.1098    0.0694 LP  0  0  0  0  0  0  0  0  0  0  0  0  # atno 6001 bound_to 3171
   14.3484   10.1296    9.1572 LP  0  0  0  0  0  0  0  0  0  0  0  0  # atno 6004 bound_to 5270
   12.7156   10.1149    9.1478 LP  0  0  0  0  0  0  0  0  0  0  0  0  # atno 6005 bound_to 5270
   11.2633   19.5580    8.5283 LP  0  0  0  0  0  0  0  0  0  0  0  0  # atno 6055 bound_to 637 
    9.6340   19.5972    8.4269 LP  0  0  0  0  0  0  0  0  0  0  0  0  # atno 6056 bound_to 637 
    1.2870   10.4986   10.6124 LP  0  0  0  0  0  0  0  0  0  0  0  0  # atno 6063 bound_to 1878
    0.7777   11.9751   11.0888 LP  0  0  0  0  0  0  0  0  0  0  0  0  # atno 6064 bound_to 1878
   -6.7988   15.3287   -0.8669 LP  0  0  0  0  0  0  0  0  0  0  0  0  # atno 6067 bound_to 957 
   -6.4932   16.7993   -1.5076 LP  0  0  0  0  0  0  0  0  0  0  0  0  # atno 6068 bound_to 957 

>  <STRIFE_LigEff_Score>  (96) 
2.7320833333333336

$$$$
unknown|pharmsElabsTestPreDocking|sdf|97|dock10
     RDKit          3D

 16 16  0  0  0  0  0  0  0  0999 V2000
   14.0037    7.8136    3.2725 C   0  0  0  0  0  0  0  0  0  0  0  0
   12.7069    7.7510    2.4659 C   0  0  0  0  0  0  0  0  0  0  0  0
   12.7062    8.7542    1.3923 N   0  0  0  0  0  0  0  0  0  0  0  0
   11.3722    7.7199    3.2370 C   0  0  0  0  0  0  0  0  0  0  0  0
   10.1464    6.9914    2.6235 C   0  0  0  0  0  0  0  0  0  0  0  0
    8.8977    7.8435    2.4407 C   0  0  0  0  0  0  0  0  0  0  0  0
    8.6148    8.6975    3.6748 C   0  0  0  0  0  0  0  0  0  0  0  0
    7.3000    9.4192    3.5297 C   0  0  0  0  0  0  0  0  0  0  0  0
    6.8834   10.1728    4.4540 O   0  0  0  0  0  0  0  0  0  0  0  0
    6.5172    9.2268    2.3433 N   0  0  0  0  0  0  0  0  0  0  0  0
    5.2417    9.8430    2.1363 C   0  0  0  0  0  0  0  0  0  0  0  0
    4.2756    9.8951    3.0650 C   0  0  0  0  0  0  0  0  0  0  0  0
    4.3436    9.2550    4.3485 N   0  0  0  0  0  0  0  0  0  0  0  0
    3.3062    9.3365    5.2914 N   0  0  0  0  0  0  0  0  0  0  0  0
    9.7506    9.6989    3.8579 C   0  0  0  0  0  0  0  0  0  0  0  0
   11.0993    9.0123    4.0651 C   0  0  0  0  0  0  0  0  0  0  0  0
  1  2  1  0
  2  3  1  0
  2  4  1  0
  4  5  1  0
  5  6  1  0
  6  7  1  0
  7  8  1  0
  8  9  2  0
  8 10  1  0
 10 11  1  0
 11 12  2  0
 12 13  1  0
 13 14  1  0
  7 15  1  0
 15 16  1  0
 16  4  1  0
M  CHG  1   3   1
M  END
>  <EmbedRMS>  (97) 
0.2141533042732473

>  <Gold.Version>  (97) 
2020.3.0

>  <Gold.Id.Protein>  (97) 
unknown|1q8t_protein|pdb

>  <Gold.PLP.Fitness>  (97) 
39.1095

>  <Gold.PLP.PLP>  (97) 
-31.1108

>  <Gold.PLP.part.hbond>  (97) 
-3.0000

>  <Gold.PLP.part.metal>  (97) 
0.0000

>  <Gold.PLP.part.buried>  (97) 
-3.6668

>  <Gold.PLP.part.nonpolar>  (97) 
-25.3152

>  <Gold.PLP.part.repulsive>  (97) 
0.0542

>  <Gold.PLP.ligand.clash>  (97) 
0.0000

>  <Gold.PLP.ligand.torsion>  (97) 
0.4761

>  <Gold.PLP.Chemscore.Hbond>  (97) 
2.8544

>  <Gold.PLP.Chemscore.CHOScore>  (97) 
0.0000

>  <Gold.PLP.Chemscore.Metal>  (97) 
0.0000

>  <Gold.Chemscore.Hbonds>  (97) 
donor molecule, donor type, donor heavy atom, donor atom, acceptor molecule, acceptor atom, score
      L1  H     3    21       P1  2902  2.00
      L1  H    14    35       P1  1891  0.21
      P1  H  1888  1903       L1    14  0.64

>  <Gold.PLP.Chemscore.Internal.Correction>  (97) 
0.3878

>  <Gold.PLP.Constraint>  (97) 
-0.0000

>  <Gold.Protein.RotatedTorsions>  (97) 
[  681  677  676  673 ] final  -69.36 input -179.99 | X-H torsion
[  702  698  697  694 ] final  -77.66 input  179.99 | X-H torsion
[ 2577 2569 2568 2566 ] final  152.90 input   -0.13 | X-H torsion
[ 2891 2887 2886 2883 ] final  132.15 input  179.98 | X-H torsion
[ 3175 3171 3170 3167 ] final   87.56 input -179.99 | X-H torsion
[ 5278 5270 5269 5267 ] final -104.29 input    0.55 | X-H torsion
[  641  637  636  633 ] final -131.90 input  179.99 | X-H torsion
[ 1886 1878 1877 1875 ] final   18.35 input    1.60 | X-H torsion
[  965  957  956  954 ] final  -10.18 input    0.45 | X-H torsion

>  <Gold.Protein.ActiveResidues>  (97) 
 LYS47   THR48   LEU49   GLY50   THR51   GLY52   SER53   PHE54   GLY55   ARG56  
 VAL57   MET58   LEU59   TYR69   ALA70   MET71   LYS72   ILE73   LEU74   GLU91  
 LEU95   VAL104  LYS105  MET118  VAL119  MET120  GLU121  TYR122  VAL123  PRO124 
 GLY125  GLY126  GLU127  MET128  PHE129  TYR164  ASP166  LEU167  LYS168  PRO169 
 GLU170  ASN171  LEU172  LEU173  ILE174  GLN181  VAL182  THR183  ASP184  PHE185 
 GLY186  PHE187  GLY200  THR201  ASN326  PHE327  TYR330  ARG18   ARG19   ASN20  
 ALA21   ILE22   HIS23  

>  <Gold.Protein.RotatedAtoms>  (97) 
   11.1662   19.0621    7.5830 H   0  0  0  0  0  0  0  0  0  0  0  0  # atno 641  bound_to 637 
   15.6760   13.2849    7.2174 H   0  0  0  0  0  0  0  0  0  0  0  0  # atno 681  bound_to 677 
   20.5489   11.6320   -0.2995 H   0  0  0  0  0  0  0  0  0  0  0  0  # atno 702  bound_to 698 
   -6.6558   15.4566   -1.1392 H   0  0  0  0  0  0  0  0  0  0  0  0  # atno 965  bound_to 957 
    2.2469   11.5975   10.3578 H   0  0  0  0  0  0  0  0  0  0  0  0  # atno 1886 bound_to 1878
   10.1898    1.9002   -2.3881 H   0  0  0  0  0  0  0  0  0  0  0  0  # atno 2577 bound_to 2569
    7.8874    6.9475    0.9478 H   0  0  0  0  0  0  0  0  0  0  0  0  # atno 2891 bound_to 2887
   18.1332    2.0295   -1.0951 H   0  0  0  0  0  0  0  0  0  0  0  0  # atno 3175 bound_to 3171
   13.9665    9.8424   10.3751 H   0  0  0  0  0  0  0  0  0  0  0  0  # atno 5278 bound_to 5270
   17.1256   13.8816    6.9367 LP  0  0  0  0  0  0  0  0  0  0  0  0  # atno 5914 bound_to 677 
   16.5492   12.6331    6.0560 LP  0  0  0  0  0  0  0  0  0  0  0  0  # atno 5915 bound_to 677 
   20.8141   11.5984   -1.8698 LP  0  0  0  0  0  0  0  0  0  0  0  0  # atno 5920 bound_to 698 
   19.3129   11.8531   -1.2797 LP  0  0  0  0  0  0  0  0  0  0  0  0  # atno 5921 bound_to 698 
    9.3558    2.9949   -3.1890 LP  0  0  0  0  0  0  0  0  0  0  0  0  # atno 5950 bound_to 2569
   10.9857    3.0686   -3.1207 LP  0  0  0  0  0  0  0  0  0  0  0  0  # atno 5951 bound_to 2569
    8.2139    5.5487    0.2599 LP  0  0  0  0  0  0  0  0  0  0  0  0  # atno 5982 bound_to 2887
    7.1599    5.6443    1.5036 LP  0  0  0  0  0  0  0  0  0  0  0  0  # atno 5983 bound_to 2887
   19.3675    3.0001   -0.8303 LP  0  0  0  0  0  0  0  0  0  0  0  0  # atno 6000 bound_to 3171
   18.4372    2.4728    0.4038 LP  0  0  0  0  0  0  0  0  0  0  0  0  # atno 6001 bound_to 3171
   14.0140   10.2079    8.8256 LP  0  0  0  0  0  0  0  0  0  0  0  0  # atno 6004 bound_to 5270
   12.5877   10.0035    9.5942 LP  0  0  0  0  0  0  0  0  0  0  0  0  # atno 6005 bound_to 5270
   10.6126   19.7799    8.8918 LP  0  0  0  0  0  0  0  0  0  0  0  0  # atno 6055 bound_to 637 
    9.5920   19.2459    7.7343 LP  0  0  0  0  0  0  0  0  0  0  0  0  # atno 6056 bound_to 637 
    1.1039   10.5433   10.7008 LP  0  0  0  0  0  0  0  0  0  0  0  0  # atno 6063 bound_to 1878
    0.9161   12.1266   11.0537 LP  0  0  0  0  0  0  0  0  0  0  0  0  # atno 6064 bound_to 1878
   -6.5896   17.0402   -1.2908 LP  0  0  0  0  0  0  0  0  0  0  0  0  # atno 6067 bound_to 957 
   -7.2086   16.3529    0.0550 LP  0  0  0  0  0  0  0  0  0  0  0  0  # atno 6068 bound_to 957 

>  <STRIFE_LigEff_Score>  (97) 
2.44434375

$$$$
unknown|pharmsElabsTestPreDocking|sdf|98|dock1
     RDKit          3D

 16 16  0  0  0  0  0  0  0  0999 V2000
   14.4750    7.9060    3.5017 C   0  0  0  0  0  0  0  0  0  0  0  0
   13.5218    8.1744    2.3248 C   0  0  0  0  0  0  0  0  0  0  0  0
   13.8002    7.2421    1.2282 N   0  0  0  0  0  0  0  0  0  0  0  0
   11.9920    8.2564    2.6716 C   0  0  0  0  0  0  0  0  0  0  0  0
   11.0748    7.7372    1.5652 C   0  0  0  0  0  0  0  0  0  0  0  0
    9.5899    7.7617    1.8920 C   0  0  0  0  0  0  0  0  0  0  0  0
    9.1642    9.0175    2.6137 C   0  0  0  0  0  0  0  0  0  0  0  0
    7.6765    9.1950    2.6920 C   0  0  0  0  0  0  0  0  0  0  0  0
    7.0523    8.8561    1.6584 O   0  0  0  0  0  0  0  0  0  0  0  0
    6.9399    9.7009    3.8178 N   0  0  0  0  0  0  0  0  0  0  0  0
    5.4998    9.9700    3.6958 C   0  0  0  0  0  0  0  0  0  0  0  0
    4.8139    9.7331    5.0197 C   0  0  0  0  0  0  0  0  0  0  0  0
    3.6357    8.9256    5.0885 N   0  0  0  0  0  0  0  0  0  0  0  0
    5.2275   10.3343    6.0914 N   0  0  0  0  0  0  0  0  0  0  0  0
    9.9929    9.4503    3.8020 C   0  0  0  0  0  0  0  0  0  0  0  0
   11.4928    9.4782    3.4678 C   0  0  0  0  0  0  0  0  0  0  0  0
  1  2  1  0
  2  3  1  0
  2  4  1  0
  4  5  1  0
  5  6  1  0
  6  7  1  0
  7  8  1  0
  8  9  2  0
  8 10  1  0
 10 11  1  0
 11 12  1  0
 12 13  1  0
 12 14  2  0
  7 15  1  0
 15 16  1  0
 16  4  1  0
M  CHG  2   3   1  14   1
M  END
>  <EmbedRMS>  (98) 
0.2782345982766255

>  <Gold.Version>  (98) 
2020.3.0

>  <Gold.Id.Protein>  (98) 
unknown|1q8t_protein|pdb

>  <Gold.PLP.Fitness>  (98) 
40.1408

>  <Gold.PLP.PLP>  (98) 
-26.8387

>  <Gold.PLP.part.hbond>  (98) 
-4.0000

>  <Gold.PLP.part.metal>  (98) 
0.0000

>  <Gold.PLP.part.buried>  (98) 
0.0983

>  <Gold.PLP.part.nonpolar>  (98) 
-23.3761

>  <Gold.PLP.part.repulsive>  (98) 
0.1339

>  <Gold.PLP.ligand.clash>  (98) 
0.0000

>  <Gold.PLP.ligand.torsion>  (98) 
1.1776

>  <Gold.PLP.Chemscore.Hbond>  (98) 
4.9350

>  <Gold.PLP.Chemscore.CHOScore>  (98) 
0.0000

>  <Gold.PLP.Chemscore.Metal>  (98) 
0.0000

>  <Gold.Chemscore.Hbonds>  (98) 
donor molecule, donor type, donor heavy atom, donor atom, acceptor molecule, acceptor atom, score
      L1  H     3    22       P1  2691  1.00
      L1  H     3    23       P1  2902  2.00
      L1  H    13    34       P1  1891  0.98
      P1  H  2887  2891       L1     9  0.96

>  <Gold.PLP.Chemscore.Internal.Correction>  (98) 
0.8523

>  <Gold.PLP.Constraint>  (98) 
-0.0000

>  <Gold.Protein.RotatedTorsions>  (98) 
[  681  677  676  673 ] final   92.67 input -179.99 | X-H torsion
[  702  698  697  694 ] final -118.21 input  179.99 | X-H torsion
[ 2577 2569 2568 2566 ] final  -88.28 input   -0.13 | X-H torsion
[ 2891 2887 2886 2883 ] final  158.04 input  179.98 | X-H torsion
[ 3175 3171 3170 3167 ] final   72.74 input -179.99 | X-H torsion
[ 5278 5270 5269 5267 ] final  139.69 input    0.55 | X-H torsion
[  641  637  636  633 ] final -100.60 input  179.99 | X-H torsion
[ 1886 1878 1877 1875 ] final   69.30 input    1.60 | X-H torsion
[  965  957  956  954 ] final   17.24 input    0.45 | X-H torsion

>  <Gold.Protein.ActiveResidues>  (98) 
 LYS47   THR48   LEU49   GLY50   THR51   GLY52   SER53   PHE54   GLY55   ARG56  
 VAL57   MET58   LEU59   TYR69   ALA70   MET71   LYS72   ILE73   LEU74   GLU91  
 LEU95   VAL104  LYS105  MET118  VAL119  MET120  GLU121  TYR122  VAL123  PRO124 
 GLY125  GLY126  GLU127  MET128  PHE129  TYR164  ASP166  LEU167  LYS168  PRO169 
 GLU170  ASN171  LEU172  LEU173  ILE174  GLN181  VAL182  THR183  ASP184  PHE185 
 GLY186  PHE187  GLY200  THR201  ASN326  PHE327  TYR330  ARG18   ARG19   ASN20  
 ALA21   ILE22   HIS23  

>  <Gold.Protein.RotatedAtoms>  (98) 
   10.7740   18.9515    7.3236 H   0  0  0  0  0  0  0  0  0  0  0  0  # atno 641  bound_to 637 
   17.0546   13.0522    6.1326 H   0  0  0  0  0  0  0  0  0  0  0  0  # atno 681  bound_to 677 
   21.0086   11.5584   -0.7107 H   0  0  0  0  0  0  0  0  0  0  0  0  # atno 702  bound_to 698 
   -6.8289   15.3743   -0.7604 H   0  0  0  0  0  0  0  0  0  0  0  0  # atno 965  bound_to 957 
    1.8654   12.2088   10.6302 H   0  0  0  0  0  0  0  0  0  0  0  0  # atno 1886 bound_to 1878
   10.9553    3.0251   -3.1131 H   0  0  0  0  0  0  0  0  0  0  0  0  # atno 2577 bound_to 2569
    7.6209    6.8818    1.2406 H   0  0  0  0  0  0  0  0  0  0  0  0  # atno 2891 bound_to 2887
   18.2807    2.1186   -1.2490 H   0  0  0  0  0  0  0  0  0  0  0  0  # atno 3175 bound_to 3171
   14.0420   10.2067    8.9014 H   0  0  0  0  0  0  0  0  0  0  0  0  # atno 5278 bound_to 5270
   15.6250   12.7892    6.7832 LP  0  0  0  0  0  0  0  0  0  0  0  0  # atno 5914 bound_to 677 
   16.5988   13.9706    7.3512 LP  0  0  0  0  0  0  0  0  0  0  0  0  # atno 5915 bound_to 677 
   20.2048   11.7104   -2.0775 LP  0  0  0  0  0  0  0  0  0  0  0  0  # atno 5920 bound_to 698 
   19.4387   11.8185   -0.6395 LP  0  0  0  0  0  0  0  0  0  0  0  0  # atno 5921 bound_to 698 
   10.1701    1.8701   -2.3483 LP  0  0  0  0  0  0  0  0  0  0  0  0  # atno 5950 bound_to 2569
    9.3654    3.0090   -3.1981 LP  0  0  0  0  0  0  0  0  0  0  0  0  # atno 5951 bound_to 2569
    8.3567    5.9397    0.1882 LP  0  0  0  0  0  0  0  0  0  0  0  0  # atno 5982 bound_to 2887
    7.2975    5.3226    1.2671 LP  0  0  0  0  0  0  0  0  0  0  0  0  # atno 5983 bound_to 2887
   19.3935    3.0504   -0.5938 LP  0  0  0  0  0  0  0  0  0  0  0  0  # atno 6000 bound_to 3171
   18.2560    2.3288    0.3293 LP  0  0  0  0  0  0  0  0  0  0  0  0  # atno 6001 bound_to 3171
   12.5910   10.0191    9.5307 LP  0  0  0  0  0  0  0  0  0  0  0  0  # atno 6004 bound_to 5270
   13.9313    9.8089   10.4396 LP  0  0  0  0  0  0  0  0  0  0  0  0  # atno 6005 bound_to 5270
   11.0753   19.6639    8.7152 LP  0  0  0  0  0  0  0  0  0  0  0  0  # atno 6055 bound_to 637 
    9.5423   19.4783    8.1840 LP  0  0  0  0  0  0  0  0  0  0  0  0  # atno 6056 bound_to 637 
    1.8469   10.6350   10.3889 LP  0  0  0  0  0  0  0  0  0  0  0  0  # atno 6063 bound_to 1878
    0.5747   11.3914   11.0788 LP  0  0  0  0  0  0  0  0  0  0  0  0  # atno 6064 bound_to 1878
   -6.4703   16.7038   -1.5599 LP  0  0  0  0  0  0  0  0  0  0  0  0  # atno 6067 bound_to 957 
   -7.1455   16.7760   -0.0748 LP  0  0  0  0  0  0  0  0  0  0  0  0  # atno 6068 bound_to 957 

>  <STRIFE_LigEff_Score>  (98) 
2.5088

$$$$
unknown|pharmsElabsTestPreDocking|sdf|99|dock7
     RDKit          3D

 17 17  0  0  0  0  0  0  0  0999 V2000
   14.8538    8.0088    2.9855 C   0  0  0  0  0  0  0  0  0  0  0  0
   13.8204    8.1743    1.8610 C   0  0  0  0  0  0  0  0  0  0  0  0
   13.9721    7.0989    0.8742 N   0  0  0  0  0  0  0  0  0  0  0  0
   12.3289    8.3630    2.3111 C   0  0  0  0  0  0  0  0  0  0  0  0
   11.2772    7.6070    1.4778 C   0  0  0  0  0  0  0  0  0  0  0  0
    9.9040    8.2498    1.4466 C   0  0  0  0  0  0  0  0  0  0  0  0
    9.4944    8.8205    2.7996 C   0  0  0  0  0  0  0  0  0  0  0  0
    8.0774    9.3325    2.7150 C   0  0  0  0  0  0  0  0  0  0  0  0
    7.6561    9.8090    1.6261 O   0  0  0  0  0  0  0  0  0  0  0  0
    7.2469    9.3019    3.8852 N   0  0  0  0  0  0  0  0  0  0  0  0
    5.8541    9.6765    3.9714 C   0  0  0  0  0  0  0  0  0  0  0  0
    5.2944    9.7149    5.1911 C   0  0  0  0  0  0  0  0  0  0  0  0
    3.6028   10.0995    5.4809 Cl  0  0  0  0  0  0  0  0  0  0  0  0
    5.0084    9.9306    2.7412 C   0  0  0  0  0  0  0  0  0  0  0  0
    3.6224    8.8133    2.7189 Cl  0  0  0  0  0  0  0  0  0  0  0  0
   10.4349    9.9568    3.2185 C   0  0  0  0  0  0  0  0  0  0  0  0
   11.9378    9.6633    3.0441 C   0  0  0  0  0  0  0  0  0  0  0  0
  1  2  1  0
  2  3  1  0
  2  4  1  0
  4  5  1  0
  5  6  1  0
  6  7  1  0
  7  8  1  0
  8  9  2  0
  8 10  1  0
 10 11  1  0
 11 12  2  0
 12 13  1  0
 11 14  1  0
 14 15  1  0
  7 16  1  0
 16 17  1  0
 17  4  1  0
M  CHG  1   3   1
M  END
>  <EmbedRMS>  (99) 
0.16956402485260066

>  <Gold.Version>  (99) 
2020.3.0

>  <Gold.Id.Protein>  (99) 
unknown|1q8t_protein|pdb

>  <Gold.PLP.Fitness>  (99) 
49.5003

>  <Gold.PLP.PLP>  (99) 
-42.8285

>  <Gold.PLP.part.hbond>  (99) 
-2.0000

>  <Gold.PLP.part.metal>  (99) 
0.0000

>  <Gold.PLP.part.buried>  (99) 
-3.8053

>  <Gold.PLP.part.nonpolar>  (99) 
-37.5957

>  <Gold.PLP.part.repulsive>  (99) 
0.0659

>  <Gold.PLP.ligand.clash>  (99) 
0.0000

>  <Gold.PLP.ligand.torsion>  (99) 
1.4879

>  <Gold.PLP.Chemscore.Hbond>  (99) 
3.0000

>  <Gold.PLP.Chemscore.CHOScore>  (99) 
0.0000

>  <Gold.PLP.Chemscore.Metal>  (99) 
0.0000

>  <Gold.Chemscore.Hbonds>  (99) 
donor molecule, donor type, donor heavy atom, donor atom, acceptor molecule, acceptor atom, score
      L1  H     3    22       P1  2691  1.00
      L1  H     3    24       P1  2902  2.00

>  <Gold.PLP.Chemscore.Internal.Correction>  (99) 
0.6477

>  <Gold.PLP.Constraint>  (99) 
-0.0000

>  <Gold.Protein.RotatedTorsions>  (99) 
[  681  677  676  673 ] final -135.35 input -179.99 | X-H torsion
[  702  698  697  694 ] final -144.59 input  179.99 | X-H torsion
[ 2577 2569 2568 2566 ] final  -26.15 input   -0.13 | X-H torsion
[ 2891 2887 2886 2883 ] final    0.93 input  179.98 | X-H torsion
[ 3175 3171 3170 3167 ] final  -67.30 input -179.99 | X-H torsion
[ 5278 5270 5269 5267 ] final   93.26 input    0.55 | X-H torsion
[  641  637  636  633 ] final   74.17 input  179.99 | X-H torsion
[ 1886 1878 1877 1875 ] final  124.62 input    1.60 | X-H torsion
[  965  957  956  954 ] final  -73.18 input    0.45 | X-H torsion

>  <Gold.Protein.ActiveResidues>  (99) 
 LYS47   THR48   LEU49   GLY50   THR51   GLY52   SER53   PHE54   GLY55   ARG56  
 VAL57   MET58   LEU59   TYR69   ALA70   MET71   LYS72   ILE73   LEU74   GLU91  
 LEU95   VAL104  LYS105  MET118  VAL119  MET120  GLU121  TYR122  VAL123  PRO124 
 GLY125  GLY126  GLU127  MET128  PHE129  TYR164  ASP166  LEU167  LYS168  PRO169 
 GLU170  ASN171  LEU172  LEU173  ILE174  GLN181  VAL182  THR183  ASP184  PHE185 
 GLY186  PHE187  GLY200  THR201  ASN326  PHE327  TYR330  ARG18   ARG19   ASN20  
 ALA21   ILE22   HIS23  

>  <Gold.Protein.RotatedAtoms>  (99) 
   10.0880   19.7330    8.7790 H   0  0  0  0  0  0  0  0  0  0  0  0  # atno 641  bound_to 637 
   16.4135   13.9040    7.3743 H   0  0  0  0  0  0  0  0  0  0  0  0  # atno 681  bound_to 677 
   21.1146   11.5472   -1.1056 H   0  0  0  0  0  0  0  0  0  0  0  0  # atno 702  bound_to 698 
   -6.4351   16.2357   -1.6077 H   0  0  0  0  0  0  0  0  0  0  0  0  # atno 965  bound_to 957 
    1.1049   12.2130   10.9662 H   0  0  0  0  0  0  0  0  0  0  0  0  # atno 1886 bound_to 1878
   10.1512    3.3695   -3.4112 H   0  0  0  0  0  0  0  0  0  0  0  0  # atno 2577 bound_to 2569
    8.0910    5.4423    0.3513 H   0  0  0  0  0  0  0  0  0  0  0  0  # atno 2891 bound_to 2887
   19.3230    3.0175   -0.2795 H   0  0  0  0  0  0  0  0  0  0  0  0  # atno 3175 bound_to 3171
   13.3502   10.2340    8.7615 H   0  0  0  0  0  0  0  0  0  0  0  0  # atno 5278 bound_to 5270
   17.1964   13.1764    6.1936 LP  0  0  0  0  0  0  0  0  0  0  0  0  # atno 5914 bound_to 677 
   15.7021   12.6867    6.6339 LP  0  0  0  0  0  0  0  0  0  0  0  0  # atno 5915 bound_to 677 
   19.7951   11.7809   -1.9667 LP  0  0  0  0  0  0  0  0  0  0  0  0  # atno 5920 bound_to 698 
   19.7369   11.7598   -0.3349 LP  0  0  0  0  0  0  0  0  0  0  0  0  # atno 5921 bound_to 698 
   11.0057    2.3063   -2.5899 LP  0  0  0  0  0  0  0  0  0  0  0  0  # atno 5950 bound_to 2569
    9.3764    2.2102   -2.6426 LP  0  0  0  0  0  0  0  0  0  0  0  0  # atno 5951 bound_to 2569
    7.1369    5.8144    1.5710 LP  0  0  0  0  0  0  0  0  0  0  0  0  # atno 5982 bound_to 2887
    8.0225    6.9628    0.8203 LP  0  0  0  0  0  0  0  0  0  0  0  0  # atno 5983 bound_to 2887
   18.0530    2.1537    0.1404 LP  0  0  0  0  0  0  0  0  0  0  0  0  # atno 6000 bound_to 3171
   18.4996    2.2794   -1.4252 LP  0  0  0  0  0  0  0  0  0  0  0  0  # atno 6001 bound_to 3171
   12.8253    9.8525   10.2161 LP  0  0  0  0  0  0  0  0  0  0  0  0  # atno 6004 bound_to 5270
   14.4249    9.9469    9.9014 LP  0  0  0  0  0  0  0  0  0  0  0  0  # atno 6005 bound_to 5270
    9.9321   19.0342    7.3570 LP  0  0  0  0  0  0  0  0  0  0  0  0  # atno 6055 bound_to 637 
   11.4079   19.2850    8.0095 LP  0  0  0  0  0  0  0  0  0  0  0  0  # atno 6056 bound_to 637 
    2.2980   11.3818   10.3174 LP  0  0  0  0  0  0  0  0  0  0  0  0  # atno 6063 bound_to 1878
    0.9242   10.6402   10.7965 LP  0  0  0  0  0  0  0  0  0  0  0  0  # atno 6064 bound_to 1878
   -6.9964   17.1022   -0.3956 LP  0  0  0  0  0  0  0  0  0  0  0  0  # atno 6067 bound_to 957 
   -7.0343   15.4704   -0.3467 LP  0  0  0  0  0  0  0  0  0  0  0  0  # atno 6068 bound_to 957 

>  <STRIFE_LigEff_Score>  (99) 
2.911782352941177

$$$$
unknown|pharmsElabsTestPreDocking|sdf|100|dock5
     RDKit          3D

 13 13  0  0  0  0  0  0  0  0999 V2000
    5.1215    8.9960    2.6259 C   0  0  0  0  0  0  0  0  0  0  0  0
    6.5247    8.9910    2.2052 N   0  0  0  0  0  0  0  0  0  0  0  0
    7.5654    9.0435    3.1917 C   0  0  0  0  0  0  0  0  0  0  0  0
    7.2538    9.1763    4.4011 O   0  0  0  0  0  0  0  0  0  0  0  0
    9.0347    8.9263    2.9140 C   0  0  0  0  0  0  0  0  0  0  0  0
    9.5811    7.4965    2.9333 C   0  0  0  0  0  0  0  0  0  0  0  0
   11.1179    7.4003    2.8374 C   0  0  0  0  0  0  0  0  0  0  0  0
   11.7093    8.6373    2.1430 C   0  0  0  0  0  0  0  0  0  0  0  0
   13.1807    8.5517    1.6322 C   0  0  0  0  0  0  0  0  0  0  0  0
   13.8074    9.8372    1.1193 C   0  0  0  0  0  0  0  0  0  0  0  0
   13.5692    7.3484    0.9041 N   0  0  0  0  0  0  0  0  0  0  0  0
   11.4172    9.8940    2.9879 C   0  0  0  0  0  0  0  0  0  0  0  0
    9.9223   10.0938    3.3162 C   0  0  0  0  0  0  0  0  0  0  0  0
  1  2  1  0
  2  3  1  0
  3  4  2  0
  3  5  1  0
  5  6  1  0
  6  7  1  0
  7  8  1  0
  8  9  1  0
  9 10  1  0
  9 11  1  0
  8 12  1  0
 12 13  1  0
 13  5  1  0
M  CHG  1  11   1
M  END
>  <EmbedRMS>  (100) 
0.29639754771625826

>  <Gold.Version>  (100) 
2020.3.0

>  <Gold.Id.Protein>  (100) 
unknown|1q8t_protein|pdb

>  <Gold.PLP.Fitness>  (100) 
33.9169

>  <Gold.PLP.PLP>  (100) 
-25.2530

>  <Gold.PLP.part.hbond>  (100) 
-2.0087

>  <Gold.PLP.part.metal>  (100) 
0.0000

>  <Gold.PLP.part.buried>  (100) 
-3.0100

>  <Gold.PLP.part.nonpolar>  (100) 
-20.0314

>  <Gold.PLP.part.repulsive>  (100) 
0.0538

>  <Gold.PLP.ligand.clash>  (100) 
0.0000

>  <Gold.PLP.ligand.torsion>  (100) 
0.5265

>  <Gold.PLP.Chemscore.Hbond>  (100) 
2.8960

>  <Gold.PLP.Chemscore.CHOScore>  (100) 
0.0000

>  <Gold.PLP.Chemscore.Metal>  (100) 
0.0000

>  <Gold.Chemscore.Hbonds>  (100) 
donor molecule, donor type, donor heavy atom, donor atom, acceptor molecule, acceptor atom, score
      L1  H    11    28       P1  2691  0.90
      L1  H    11    29       P1  2902  2.00

>  <Gold.PLP.Chemscore.Internal.Correction>  (100) 
1.0290

>  <Gold.PLP.Constraint>  (100) 
-0.0000

>  <Gold.Protein.RotatedTorsions>  (100) 
[  681  677  676  673 ] final -175.06 input -179.99 | X-H torsion
[  702  698  697  694 ] final   69.71 input  179.99 | X-H torsion
[ 2577 2569 2568 2566 ] final    8.58 input   -0.13 | X-H torsion
[ 2891 2887 2886 2883 ] final  138.54 input  179.98 | X-H torsion
[ 3175 3171 3170 3167 ] final   62.48 input -179.99 | X-H torsion
[ 5278 5270 5269 5267 ] final   80.86 input    0.55 | X-H torsion
[  641  637  636  633 ] final  -61.30 input  179.99 | X-H torsion
[ 1886 1878 1877 1875 ] final   84.73 input    1.60 | X-H torsion
[  965  957  956  954 ] final  114.46 input    0.45 | X-H torsion

>  <Gold.Protein.ActiveResidues>  (100) 
 LYS47   THR48   LEU49   GLY50   THR51   GLY52   SER53   PHE54   GLY55   ARG56  
 VAL57   MET58   LEU59   TYR69   ALA70   MET71   LYS72   ILE73   LEU74   GLU91  
 LEU95   VAL104  LYS105  MET118  VAL119  MET120  GLU121  TYR122  VAL123  PRO124 
 GLY125  GLY126  GLU127  MET128  PHE129  TYR164  ASP166  LEU167  LYS168  PRO169 
 GLU170  ASN171  LEU172  LEU173  ILE174  GLN181  VAL182  THR183  ASP184  PHE185 
 GLY186  PHE187  GLY200  THR201  ASN326  PHE327  TYR330  ARG18   ARG19   ASN20  
 ALA21   ILE22   HIS23  

>  <Gold.Protein.RotatedAtoms>  (100) 
   10.1726   18.9767    7.3070 H   0  0  0  0  0  0  0  0  0  0  0  0  # atno 641  bound_to 637 
   16.9417   13.9303    7.0731 H   0  0  0  0  0  0  0  0  0  0  0  0  # atno 681  bound_to 677 
   19.5222   11.8403   -1.6640 H   0  0  0  0  0  0  0  0  0  0  0  0  # atno 702  bound_to 698 
   -7.1698   16.4205    0.0104 H   0  0  0  0  0  0  0  0  0  0  0  0  # atno 965  bound_to 957 
    1.6641   12.2910   10.7330 H   0  0  0  0  0  0  0  0  0  0  0  0  # atno 1886 bound_to 1878
    9.6471    3.2088   -3.3365 H   0  0  0  0  0  0  0  0  0  0  0  0  # atno 2577 bound_to 2569
    7.8221    6.9479    1.0234 H   0  0  0  0  0  0  0  0  0  0  0  0  # atno 2891 bound_to 2887
   18.3976    2.1949   -1.3274 H   0  0  0  0  0  0  0  0  0  0  0  0  # atno 3175 bound_to 3171
   13.1659   10.2180    8.8185 H   0  0  0  0  0  0  0  0  0  0  0  0  # atno 5278 bound_to 5270
   16.7571   12.7392    6.0323 LP  0  0  0  0  0  0  0  0  0  0  0  0  # atno 5914 bound_to 677 
   15.5855   13.0964    7.1122 LP  0  0  0  0  0  0  0  0  0  0  0  0  # atno 5915 bound_to 677 
   20.1267   11.6880   -0.1982 LP  0  0  0  0  0  0  0  0  0  0  0  0  # atno 5920 bound_to 698 
   21.0804   11.5444   -1.5160 LP  0  0  0  0  0  0  0  0  0  0  0  0  # atno 5921 bound_to 698 
   11.1121    2.7637   -2.8997 LP  0  0  0  0  0  0  0  0  0  0  0  0  # atno 5950 bound_to 2569
    9.8008    1.9220   -2.4114 LP  0  0  0  0  0  0  0  0  0  0  0  0  # atno 5951 bound_to 2569
    8.2591    5.6385    0.2291 LP  0  0  0  0  0  0  0  0  0  0  0  0  # atno 5982 bound_to 2887
    7.1834    5.5542    1.4548 LP  0  0  0  0  0  0  0  0  0  0  0  0  # atno 5983 bound_to 2887
   19.3818    3.0637   -0.4262 LP  0  0  0  0  0  0  0  0  0  0  0  0  # atno 6000 bound_to 3171
   18.1446    2.2352    0.2442 LP  0  0  0  0  0  0  0  0  0  0  0  0  # atno 6001 bound_to 3171
   12.9761    9.8213   10.3493 LP  0  0  0  0  0  0  0  0  0  0  0  0  # atno 6004 bound_to 5270
   14.4679    9.9949    9.7083 LP  0  0  0  0  0  0  0  0  0  0  0  0  # atno 6005 bound_to 5270
   11.3950   19.4008    8.2350 LP  0  0  0  0  0  0  0  0  0  0  0  0  # atno 6055 bound_to 637 
    9.8560   19.7149    8.6817 LP  0  0  0  0  0  0  0  0  0  0  0  0  # atno 6056 bound_to 637 
    2.0351   10.7950   10.3332 LP  0  0  0  0  0  0  0  0  0  0  0  0  # atno 6063 bound_to 1878
    0.5984   11.1449   11.0263 LP  0  0  0  0  0  0  0  0  0  0  0  0  # atno 6064 bound_to 1878
   -6.6921   15.3843   -1.1002 LP  0  0  0  0  0  0  0  0  0  0  0  0  # atno 6067 bound_to 957 
   -6.5648   16.9936   -1.3463 LP  0  0  0  0  0  0  0  0  0  0  0  0  # atno 6068 bound_to 957 

>  <STRIFE_LigEff_Score>  (100) 
2.6089923076923074

$$$$
unknown|pharmsElabsTestPreDocking|sdf|101|dock1
     RDKit          3D

 18 19  0  0  0  0  0  0  0  0999 V2000
   14.4300    9.5191    1.1363 C   0  0  0  0  0  0  0  0  0  0  0  0
   13.6627    8.2820    1.5718 C   0  0  0  0  0  0  0  0  0  0  0  0
   13.9908    7.0670    0.8342 N   0  0  0  0  0  0  0  0  0  0  0  0
   12.1748    8.4848    1.9919 C   0  0  0  0  0  0  0  0  0  0  0  0
   11.4502    7.3017    2.6528 C   0  0  0  0  0  0  0  0  0  0  0  0
    9.9242    7.5162    2.6533 C   0  0  0  0  0  0  0  0  0  0  0  0
    9.4961    8.9854    2.6172 C   0  0  0  0  0  0  0  0  0  0  0  0
    8.0228    9.2077    2.7635 C   0  0  0  0  0  0  0  0  0  0  0  0
    7.4882    9.6752    1.7345 O   0  0  0  0  0  0  0  0  0  0  0  0
    7.2279    8.9309    3.9399 N   0  0  0  0  0  0  0  0  0  0  0  0
    5.8189    9.2800    4.0852 C   0  0  0  0  0  0  0  0  0  0  0  0
    4.9529    9.1220    2.9859 C   0  0  0  0  0  0  0  0  0  0  0  0
    3.5904    9.4358    3.0942 C   0  0  0  0  0  0  0  0  0  0  0  0
    3.0713    9.9209    4.2952 C   0  0  0  0  0  0  0  0  0  0  0  0
    3.9057   10.0833    5.3934 C   0  0  0  0  0  0  0  0  0  0  0  0
    5.2548    9.7568    5.3007 C   0  0  0  0  0  0  0  0  0  0  0  0
   10.4407   10.0845    3.0657 C   0  0  0  0  0  0  0  0  0  0  0  0
   11.9310    9.7686    2.8143 C   0  0  0  0  0  0  0  0  0  0  0  0
  1  2  1  0
  2  3  1  0
  2  4  1  0
  4  5  1  0
  5  6  1  0
  6  7  1  0
  7  8  1  0
  8  9  2  0
  8 10  1  0
 10 11  1  0
 11 12  2  0
 12 13  1  0
 13 14  2  0
 14 15  1  0
 15 16  2  0
  7 17  1  0
 17 18  1  0
 18  4  1  0
 16 11  1  0
M  CHG  1   3   1
M  END
>  <EmbedRMS>  (101) 
0.24964892458419108

>  <Gold.Version>  (101) 
2020.3.0

>  <Gold.Id.Protein>  (101) 
unknown|1q8t_protein|pdb

>  <Gold.PLP.Fitness>  (101) 
56.0055

>  <Gold.PLP.PLP>  (101) 
-47.8601

>  <Gold.PLP.part.hbond>  (101) 
-2.0000

>  <Gold.PLP.part.metal>  (101) 
0.0000

>  <Gold.PLP.part.buried>  (101) 
-1.6648

>  <Gold.PLP.part.nonpolar>  (101) 
-45.1013

>  <Gold.PLP.part.repulsive>  (101) 
0.0701

>  <Gold.PLP.ligand.clash>  (101) 
0.0000

>  <Gold.PLP.ligand.torsion>  (101) 
0.8626

>  <Gold.PLP.Chemscore.Hbond>  (101) 
2.9760

>  <Gold.PLP.Chemscore.CHOScore>  (101) 
0.0000

>  <Gold.PLP.Chemscore.Metal>  (101) 
0.0000

>  <Gold.Chemscore.Hbonds>  (101) 
donor molecule, donor type, donor heavy atom, donor atom, acceptor molecule, acceptor atom, score
      L1  H     3    23       P1  2691  0.99
      L1  H     3    25       P1  2902  1.98

>  <Gold.PLP.Chemscore.Internal.Correction>  (101) 
0.9426

>  <Gold.PLP.Constraint>  (101) 
-0.0000

>  <Gold.Protein.RotatedTorsions>  (101) 
[  681  677  676  673 ] final -148.39 input -179.99 | X-H torsion
[  702  698  697  694 ] final   80.47 input  179.99 | X-H torsion
[ 2577 2569 2568 2566 ] final   22.31 input   -0.13 | X-H torsion
[ 2891 2887 2886 2883 ] final -167.21 input  179.98 | X-H torsion
[ 3175 3171 3170 3167 ] final   -5.92 input -179.99 | X-H torsion
[ 5278 5270 5269 5267 ] final   39.12 input    0.55 | X-H torsion
[  641  637  636  633 ] final -143.33 input  179.99 | X-H torsion
[ 1886 1878 1877 1875 ] final -163.65 input    1.60 | X-H torsion
[  965  957  956  954 ] final   85.00 input    0.45 | X-H torsion

>  <Gold.Protein.ActiveResidues>  (101) 
 LYS47   THR48   LEU49   GLY50   THR51   GLY52   SER53   PHE54   GLY55   ARG56  
 VAL57   MET58   LEU59   TYR69   ALA70   MET71   LYS72   ILE73   LEU74   GLU91  
 LEU95   VAL104  LYS105  MET118  VAL119  MET120  GLU121  TYR122  VAL123  PRO124 
 GLY125  GLY126  GLU127  MET128  PHE129  TYR164  ASP166  LEU167  LYS168  PRO169 
 GLU170  ASN171  LEU172  LEU173  ILE174  GLN181  VAL182  THR183  ASP184  PHE185 
 GLY186  PHE187  GLY200  THR201  ASN326  PHE327  TYR330  ARG18   ARG19   ASN20  
 ALA21   ILE22   HIS23  

>  <Gold.Protein.RotatedAtoms>  (101) 
   11.2633   19.1258    7.7183 H   0  0  0  0  0  0  0  0  0  0  0  0  # atno 641  bound_to 637 
   16.5989   13.9484    7.3034 H   0  0  0  0  0  0  0  0  0  0  0  0  # atno 681  bound_to 677 
   19.6324   11.8232   -1.7897 H   0  0  0  0  0  0  0  0  0  0  0  0  # atno 702  bound_to 698 
   -7.1570   15.9669   -0.0272 H   0  0  0  0  0  0  0  0  0  0  0  0  # atno 965  bound_to 957 
    0.6142   11.2873   11.0247 H   0  0  0  0  0  0  0  0  0  0  0  0  # atno 1886 bound_to 1878
    9.4915    3.0828   -3.2604 H   0  0  0  0  0  0  0  0  0  0  0  0  # atno 2577 bound_to 2569
    7.3123    6.5428    1.5169 H   0  0  0  0  0  0  0  0  0  0  0  0  # atno 2891 bound_to 2887
   19.1842    2.7999   -1.1566 H   0  0  0  0  0  0  0  0  0  0  0  0  # atno 3175 bound_to 3171
   12.7134   10.1057    9.2547 H   0  0  0  0  0  0  0  0  0  0  0  0  # atno 5278 bound_to 5270
   17.0835   13.0173    6.1058 LP  0  0  0  0  0  0  0  0  0  0  0  0  # atno 5914 bound_to 677 
   15.6199   12.7992    6.7963 LP  0  0  0  0  0  0  0  0  0  0  0  0  # atno 5915 bound_to 677 
   19.9563   11.7189   -0.2336 LP  0  0  0  0  0  0  0  0  0  0  0  0  # atno 5920 bound_to 698 
   21.1348   11.5315   -1.3483 LP  0  0  0  0  0  0  0  0  0  0  0  0  # atno 5921 bound_to 698 
   11.0603    2.9422   -3.0275 LP  0  0  0  0  0  0  0  0  0  0  0  0  # atno 5950 bound_to 2569
   10.0164    1.8762   -2.3638 LP  0  0  0  0  0  0  0  0  0  0  0  0  # atno 5951 bound_to 2569
    8.3586    6.4879    0.3173 LP  0  0  0  0  0  0  0  0  0  0  0  0  # atno 5982 bound_to 2887
    7.6204    5.1310    0.8473 LP  0  0  0  0  0  0  0  0  0  0  0  0  # atno 5983 bound_to 2887
   18.7857    2.7282    0.3834 LP  0  0  0  0  0  0  0  0  0  0  0  0  # atno 6000 bound_to 3171
   17.9129    1.9339   -0.7452 LP  0  0  0  0  0  0  0  0  0  0  0  0  # atno 6001 bound_to 3171
   13.6246    9.7856   10.5212 LP  0  0  0  0  0  0  0  0  0  0  0  0  # atno 6004 bound_to 5270
   14.2956   10.1487    9.0774 LP  0  0  0  0  0  0  0  0  0  0  0  0  # atno 6005 bound_to 5270
   10.4253   19.7927    8.8964 LP  0  0  0  0  0  0  0  0  0  0  0  0  # atno 6055 bound_to 637 
    9.6771   19.1660    7.5872 LP  0  0  0  0  0  0  0  0  0  0  0  0  # atno 6056 bound_to 637 
    1.8014   12.2948   10.6920 LP  0  0  0  0  0  0  0  0  0  0  0  0  # atno 6063 bound_to 1878
    1.9374   10.7016   10.3604 LP  0  0  0  0  0  0  0  0  0  0  0  0  # atno 6064 bound_to 1878
   -6.5272   15.6592   -1.4568 LP  0  0  0  0  0  0  0  0  0  0  0  0  # atno 6067 bound_to 957 
   -6.7432   17.1965   -0.9501 LP  0  0  0  0  0  0  0  0  0  0  0  0  # atno 6068 bound_to 957 

>  <STRIFE_LigEff_Score>  (101) 
3.1114166666666665

$$$$
unknown|pharmsElabsTestPreDocking|sdf|102|dock3
     RDKit          3D

 19 20  0  0  0  0  0  0  0  0999 V2000
   14.7250    9.0110    1.8465 C   0  0  0  0  0  0  0  0  0  0  0  0
   13.7305    7.8624    1.8576 C   0  0  0  0  0  0  0  0  0  0  0  0
   14.0673    6.7532    0.9716 N   0  0  0  0  0  0  0  0  0  0  0  0
   12.2219    8.2340    2.0003 C   0  0  0  0  0  0  0  0  0  0  0  0
   11.2280    7.0980    2.2893 C   0  0  0  0  0  0  0  0  0  0  0  0
    9.7762    7.5468    2.0233 C   0  0  0  0  0  0  0  0  0  0  0  0
    9.5492    9.0563    2.1417 C   0  0  0  0  0  0  0  0  0  0  0  0
    8.1144    9.4881    2.0585 C   0  0  0  0  0  0  0  0  0  0  0  0
    7.5591    9.2830    0.9501 O   0  0  0  0  0  0  0  0  0  0  0  0
    7.3605   10.1222    3.1057 N   0  0  0  0  0  0  0  0  0  0  0  0
    5.9941   10.5764    2.8057 C   0  0  0  0  0  0  0  0  0  0  0  0
    4.9896    9.9748    3.7350 C   0  0  0  0  0  0  0  0  0  0  0  0
    5.0034   10.1685    5.0677 N   0  0  0  0  0  0  0  0  0  0  0  0
    3.9127    9.4783    5.4688 C   0  0  0  0  0  0  0  0  0  0  0  0
    3.2631    8.8948    4.4416 N   0  0  0  0  0  0  0  0  0  0  0  0
    3.9448    9.2169    3.3585 N   0  0  0  0  0  0  0  0  0  0  0  0
    3.5995    8.7838    2.0099 C   0  0  0  0  0  0  0  0  0  0  0  0
   10.5029    9.9185    2.9527 C   0  0  0  0  0  0  0  0  0  0  0  0
   11.9602    9.4087    2.9651 C   0  0  0  0  0  0  0  0  0  0  0  0
  1  2  1  0
  2  3  1  0
  2  4  1  0
  4  5  1  0
  5  6  1  0
  6  7  1  0
  7  8  1  0
  8  9  2  0
  8 10  1  0
 10 11  1  0
 11 12  1  0
 12 13  2  0
 13 14  1  0
 14 15  2  0
 15 16  1  0
 16 17  1  0
  7 18  1  0
 18 19  1  0
 19  4  1  0
 16 12  1  0
M  CHG  1   3   1
M  END
>  <EmbedRMS>  (102) 
0.24309368491659913

>  <Gold.Version>  (102) 
2020.3.0

>  <Gold.Id.Protein>  (102) 
unknown|1q8t_protein|pdb

>  <Gold.PLP.Fitness>  (102) 
53.1273

>  <Gold.PLP.PLP>  (102) 
-39.3022

>  <Gold.PLP.part.hbond>  (102) 
-3.6849

>  <Gold.PLP.part.metal>  (102) 
0.0000

>  <Gold.PLP.part.buried>  (102) 
-1.0349

>  <Gold.PLP.part.nonpolar>  (102) 
-36.3713

>  <Gold.PLP.part.repulsive>  (102) 
0.2520

>  <Gold.PLP.ligand.clash>  (102) 
0.0000

>  <Gold.PLP.ligand.torsion>  (102) 
0.5432

>  <Gold.PLP.Chemscore.Hbond>  (102) 
3.8056

>  <Gold.PLP.Chemscore.CHOScore>  (102) 
0.8263

>  <Gold.PLP.Chemscore.Metal>  (102) 
0.0000

>  <Gold.Chemscore.Hbonds>  (102) 
donor molecule, donor type, donor heavy atom, donor atom, acceptor molecule, acceptor atom, score
      L1  H     3    24       P1  2691  0.99
      L1  H     3    26       P1  2902  2.00
      P1  H  1888  1903       L1    15  0.81
      L1  C    14    36       P1  1891  0.83

>  <Gold.PLP.Chemscore.Internal.Correction>  (102) 
1.0158

>  <Gold.PLP.Constraint>  (102) 
-0.0000

>  <Gold.Protein.RotatedTorsions>  (102) 
[  681  677  676  673 ] final  -20.70 input -179.99 | X-H torsion
[  702  698  697  694 ] final  -32.98 input  179.99 | X-H torsion
[ 2577 2569 2568 2566 ] final   36.21 input   -0.13 | X-H torsion
[ 2891 2887 2886 2883 ] final  -57.93 input  179.98 | X-H torsion
[ 3175 3171 3170 3167 ] final  156.42 input -179.99 | X-H torsion
[ 5278 5270 5269 5267 ] final -110.88 input    0.55 | X-H torsion
[  641  637  636  633 ] final   69.72 input  179.99 | X-H torsion
[ 1886 1878 1877 1875 ] final   64.82 input    1.60 | X-H torsion
[  965  957  956  954 ] final -105.80 input    0.45 | X-H torsion

>  <Gold.Protein.ActiveResidues>  (102) 
 LYS47   THR48   LEU49   GLY50   THR51   GLY52   SER53   PHE54   GLY55   ARG56  
 VAL57   MET58   LEU59   TYR69   ALA70   MET71   LYS72   ILE73   LEU74   GLU91  
 LEU95   VAL104  LYS105  MET118  VAL119  MET120  GLU121  TYR122  VAL123  PRO124 
 GLY125  GLY126  GLU127  MET128  PHE129  TYR164  ASP166  LEU167  LYS168  PRO169 
 GLU170  ASN171  LEU172  LEU173  ILE174  GLN181  VAL182  THR183  ASP184  PHE185 
 GLY186  PHE187  GLY200  THR201  ASN326  PHE327  TYR330  ARG18   ARG19   ASN20  
 ALA21   ILE22   HIS23  

>  <Gold.Protein.RotatedAtoms>  (102) 
   10.0264   19.7212    8.7491 H   0  0  0  0  0  0  0  0  0  0  0  0  # atno 641  bound_to 637 
   15.6954   12.7669    6.6918 H   0  0  0  0  0  0  0  0  0  0  0  0  # atno 681  bound_to 677 
   19.8782   11.7511   -0.3132 H   0  0  0  0  0  0  0  0  0  0  0  0  # atno 702  bound_to 698 
   -6.4823   16.7233   -1.4937 H   0  0  0  0  0  0  0  0  0  0  0  0  # atno 965  bound_to 957 
    1.9185   12.1740   10.6009 H   0  0  0  0  0  0  0  0  0  0  0  0  # atno 1886 bound_to 1878
    9.3741    2.9293   -3.1625 H   0  0  0  0  0  0  0  0  0  0  0  0  # atno 2577 bound_to 2569
    7.5096    5.2032    0.9675 H   0  0  0  0  0  0  0  0  0  0  0  0  # atno 2891 bound_to 2887
   17.9839    2.0500   -0.0935 H   0  0  0  0  0  0  0  0  0  0  0  0  # atno 3175 bound_to 3171
   14.0535    9.8565   10.3216 H   0  0  0  0  0  0  0  0  0  0  0  0  # atno 5278 bound_to 5270
   16.4997   13.9498    7.3919 LP  0  0  0  0  0  0  0  0  0  0  0  0  # atno 5914 bound_to 677 
   17.1545   13.1101    6.1538 LP  0  0  0  0  0  0  0  0  0  0  0  0  # atno 5915 bound_to 677 
   21.1525   11.5263   -1.2422 LP  0  0  0  0  0  0  0  0  0  0  0  0  # atno 5920 bound_to 698 
   19.6800   11.7999   -1.8930 LP  0  0  0  0  0  0  0  0  0  0  0  0  # atno 5921 bound_to 698 
   10.9566    3.1053   -3.1484 LP  0  0  0  0  0  0  0  0  0  0  0  0  # atno 5950 bound_to 2569
   10.2438    1.8746   -2.3460 LP  0  0  0  0  0  0  0  0  0  0  0  0  # atno 5951 bound_to 2569
    7.3891    6.7023    1.4916 LP  0  0  0  0  0  0  0  0  0  0  0  0  # atno 5982 bound_to 2887
    8.3823    6.3265    0.2511 LP  0  0  0  0  0  0  0  0  0  0  0  0  # atno 5983 bound_to 2887
   18.7144    2.4346   -1.4551 LP  0  0  0  0  0  0  0  0  0  0  0  0  # atno 6000 bound_to 3171
   19.2474    3.0167   -0.0255 LP  0  0  0  0  0  0  0  0  0  0  0  0  # atno 6001 bound_to 3171
   13.9178   10.2190    8.7766 LP  0  0  0  0  0  0  0  0  0  0  0  0  # atno 6004 bound_to 5270
   12.5924    9.9776    9.6994 LP  0  0  0  0  0  0  0  0  0  0  0  0  # atno 6005 bound_to 5270
    9.9937   19.0136    7.3233 LP  0  0  0  0  0  0  0  0  0  0  0  0  # atno 6055 bound_to 637 
   11.4112   19.3181    8.0747 LP  0  0  0  0  0  0  0  0  0  0  0  0  # atno 6056 bound_to 637 
    1.7862   10.5989   10.4095 LP  0  0  0  0  0  0  0  0  0  0  0  0  # atno 6063 bound_to 1878
    0.5795   11.4642   11.0891 LP  0  0  0  0  0  0  0  0  0  0  0  0  # atno 6064 bound_to 1878
   -7.1566   16.7330   -0.0514 LP  0  0  0  0  0  0  0  0  0  0  0  0  # atno 6067 bound_to 957 
   -6.8243   15.3261   -0.8110 LP  0  0  0  0  0  0  0  0  0  0  0  0  # atno 6068 bound_to 957 

>  <STRIFE_LigEff_Score>  (102) 
2.796173684210526

$$$$
unknown|pharmsElabsTestPreDocking|sdf|103|dock3
     RDKit          3D

 17 17  0  0  0  0  0  0  0  0999 V2000
    3.6319   10.0321    5.4110 C   0  0  0  0  0  0  0  0  0  0  0  0
    4.8777    9.6142    5.1744 C   0  0  0  0  0  0  0  0  0  0  0  0
    5.4610    9.3360    3.8392 C   0  0  0  0  0  0  0  0  0  0  0  0
    4.6523    9.2618    2.7544 C   0  0  0  0  0  0  0  0  0  0  0  0
    5.1269    8.9186    1.3752 C   0  0  0  0  0  0  0  0  0  0  0  0
    6.8675    9.0142    3.6914 N   0  0  0  0  0  0  0  0  0  0  0  0
    7.8680    9.3847    2.7138 C   0  0  0  0  0  0  0  0  0  0  0  0
    7.5179   10.2030    1.8248 O   0  0  0  0  0  0  0  0  0  0  0  0
    9.3206    9.0005    2.6367 C   0  0  0  0  0  0  0  0  0  0  0  0
    9.5984    7.5387    2.9446 C   0  0  0  0  0  0  0  0  0  0  0  0
   11.0099    7.1030    2.6094 C   0  0  0  0  0  0  0  0  0  0  0  0
   12.1344    8.1265    2.7974 C   0  0  0  0  0  0  0  0  0  0  0  0
   13.4064    7.7761    1.9863 C   0  0  0  0  0  0  0  0  0  0  0  0
   14.4125    8.8899    1.6955 C   0  0  0  0  0  0  0  0  0  0  0  0
   13.1129    6.9703    0.8002 N   0  0  0  0  0  0  0  0  0  0  0  0
   11.7641    9.6154    2.5861 C   0  0  0  0  0  0  0  0  0  0  0  0
   10.3556   10.0390    2.9806 C   0  0  0  0  0  0  0  0  0  0  0  0
  1  2  2  0
  2  3  1  0
  3  4  2  0
  4  5  1  0
  3  6  1  0
  6  7  1  0
  7  8  2  0
  7  9  1  0
  9 10  1  0
 10 11  1  0
 11 12  1  0
 12 13  1  0
 13 14  1  0
 13 15  1  0
 12 16  1  0
 16 17  1  0
 17  9  1  0
M  CHG  1  15   1
M  END
>  <EmbedRMS>  (103) 
0.29216731409503444

>  <Gold.Version>  (103) 
2020.3.0

>  <Gold.Id.Protein>  (103) 
unknown|1q8t_protein|pdb

>  <Gold.PLP.Fitness>  (103) 
44.2063

>  <Gold.PLP.PLP>  (103) 
-39.2535

>  <Gold.PLP.part.hbond>  (103) 
-1.0287

>  <Gold.PLP.part.metal>  (103) 
0.0000

>  <Gold.PLP.part.buried>  (103) 
-3.5283

>  <Gold.PLP.part.nonpolar>  (103) 
-35.0000

>  <Gold.PLP.part.repulsive>  (103) 
0.0584

>  <Gold.PLP.ligand.clash>  (103) 
0.0000

>  <Gold.PLP.ligand.torsion>  (103) 
1.6146

>  <Gold.PLP.Chemscore.Hbond>  (103) 
2.4114

>  <Gold.PLP.Chemscore.CHOScore>  (103) 
0.0000

>  <Gold.PLP.Chemscore.Metal>  (103) 
0.0000

>  <Gold.Chemscore.Hbonds>  (103) 
donor molecule, donor type, donor heavy atom, donor atom, acceptor molecule, acceptor atom, score
      L1  H    15    36       P1  2902  1.89
      L1  H    15    37       P1  2691  0.52

>  <Gold.PLP.Chemscore.Internal.Correction>  (103) 
0.9478

>  <Gold.PLP.Constraint>  (103) 
-0.0000

>  <Gold.Protein.RotatedTorsions>  (103) 
[  681  677  676  673 ] final  -10.57 input -179.99 | X-H torsion
[  702  698  697  694 ] final  -55.15 input  179.99 | X-H torsion
[ 2577 2569 2568 2566 ] final -148.40 input   -0.13 | X-H torsion
[ 2891 2887 2886 2883 ] final  -94.98 input  179.98 | X-H torsion
[ 3175 3171 3170 3167 ] final  169.61 input -179.99 | X-H torsion
[ 5278 5270 5269 5267 ] final   15.71 input    0.55 | X-H torsion
[  641  637  636  633 ] final  165.10 input  179.99 | X-H torsion
[ 1886 1878 1877 1875 ] final   85.24 input    1.60 | X-H torsion
[  965  957  956  954 ] final  -24.49 input    0.45 | X-H torsion

>  <Gold.Protein.ActiveResidues>  (103) 
 LYS47   THR48   LEU49   GLY50   THR51   GLY52   SER53   PHE54   GLY55   ARG56  
 VAL57   MET58   LEU59   TYR69   ALA70   MET71   LYS72   ILE73   LEU74   GLU91  
 LEU95   VAL104  LYS105  MET118  VAL119  MET120  GLU121  TYR122  VAL123  PRO124 
 GLY125  GLY126  GLU127  MET128  PHE129  TYR164  ASP166  LEU167  LYS168  PRO169 
 GLU170  ASN171  LEU172  LEU173  ILE174  GLN181  VAL182  THR183  ASP184  PHE185 
 GLY186  PHE187  GLY200  THR201  ASN326  PHE327  TYR330  ARG18   ARG19   ASN20  
 ALA21   ILE22   HIS23  

>  <Gold.Protein.RotatedAtoms>  (103) 
   11.2839   19.4790    8.4123 H   0  0  0  0  0  0  0  0  0  0  0  0  # atno 641  bound_to 637 
   15.7701   12.6938    6.5731 H   0  0  0  0  0  0  0  0  0  0  0  0  # atno 681  bound_to 677 
   20.2094   11.6910   -0.2392 H   0  0  0  0  0  0  0  0  0  0  0  0  # atno 702  bound_to 698 
   -6.5765   15.5749   -1.3108 H   0  0  0  0  0  0  0  0  0  0  0  0  # atno 965  bound_to 957 
    1.6571   12.2927   10.7364 H   0  0  0  0  0  0  0  0  0  0  0  0  # atno 1886 bound_to 1878
   10.9478    2.2879   -2.6018 H   0  0  0  0  0  0  0  0  0  0  0  0  # atno 2577 bound_to 2569
    7.2294    5.5013    1.3635 H   0  0  0  0  0  0  0  0  0  0  0  0  # atno 2891 bound_to 2887
   18.0680    2.1343    0.0743 H   0  0  0  0  0  0  0  0  0  0  0  0  # atno 3175 bound_to 3171
   12.6343   10.0199    9.5990 H   0  0  0  0  0  0  0  0  0  0  0  0  # atno 5278 bound_to 5270
   16.3474   13.9004    7.4374 LP  0  0  0  0  0  0  0  0  0  0  0  0  # atno 5914 bound_to 677 
   17.2283   13.2365    6.2334 LP  0  0  0  0  0  0  0  0  0  0  0  0  # atno 5915 bound_to 677 
   21.0458   11.5519   -1.5877 LP  0  0  0  0  0  0  0  0  0  0  0  0  # atno 5920 bound_to 698 
   19.4384   11.8376   -1.6254 LP  0  0  0  0  0  0  0  0  0  0  0  0  # atno 5921 bound_to 698 
    9.3575    2.2358   -2.6618 LP  0  0  0  0  0  0  0  0  0  0  0  0  # atno 5950 bound_to 2569
   10.1859    3.4195   -3.4230 LP  0  0  0  0  0  0  0  0  0  0  0  0  # atno 5951 bound_to 2569
    7.7677    6.9802    1.1197 LP  0  0  0  0  0  0  0  0  0  0  0  0  # atno 5982 bound_to 2887
    8.2986    5.7349    0.2064 LP  0  0  0  0  0  0  0  0  0  0  0  0  # atno 5983 bound_to 2887
   18.5399    2.3078   -1.4366 LP  0  0  0  0  0  0  0  0  0  0  0  0  # atno 6000 bound_to 3171
   19.3334    3.0548   -0.2205 LP  0  0  0  0  0  0  0  0  0  0  0  0  # atno 6001 bound_to 3171
   13.9895    9.8167   10.4108 LP  0  0  0  0  0  0  0  0  0  0  0  0  # atno 6004 bound_to 5270
   14.0139   10.2079    8.8255 LP  0  0  0  0  0  0  0  0  0  0  0  0  # atno 6005 bound_to 5270
    9.7051   19.6467    8.5317 LP  0  0  0  0  0  0  0  0  0  0  0  0  # atno 6055 bound_to 637 
   10.3755   18.9400    7.2210 LP  0  0  0  0  0  0  0  0  0  0  0  0  # atno 6056 bound_to 637 
    2.0407   10.8012   10.3318 LP  0  0  0  0  0  0  0  0  0  0  0  0  # atno 6063 bound_to 1878
    0.6003   11.1369   11.0241 LP  0  0  0  0  0  0  0  0  0  0  0  0  # atno 6064 bound_to 1878
   -6.6747   17.1503   -1.1016 LP  0  0  0  0  0  0  0  0  0  0  0  0  # atno 6067 bound_to 957 
   -7.2070   16.1182    0.0465 LP  0  0  0  0  0  0  0  0  0  0  0  0  # atno 6068 bound_to 957 

>  <STRIFE_LigEff_Score>  (103) 
2.600370588235294

$$$$
unknown|pharmsElabsTestPreDocking|sdf|104|dock3
     RDKit          3D

 17 17  0  0  0  0  0  0  0  0999 V2000
   14.6078    9.1932    1.3194 C   0  0  0  0  0  0  0  0  0  0  0  0
   13.7373    8.0076    1.7003 C   0  0  0  0  0  0  0  0  0  0  0  0
   13.9998    6.7880    0.9437 N   0  0  0  0  0  0  0  0  0  0  0  0
   12.2546    8.3113    2.0802 C   0  0  0  0  0  0  0  0  0  0  0  0
   11.4949    7.2577    2.9014 C   0  0  0  0  0  0  0  0  0  0  0  0
    9.9737    7.5137    2.8662 C   0  0  0  0  0  0  0  0  0  0  0  0
    9.5825    8.9710    2.6049 C   0  0  0  0  0  0  0  0  0  0  0  0
    8.1165    9.2686    2.7422 C   0  0  0  0  0  0  0  0  0  0  0  0
    7.8274   10.1753    3.5613 O   0  0  0  0  0  0  0  0  0  0  0  0
    7.0489    8.6020    2.0549 N   0  0  0  0  0  0  0  0  0  0  0  0
    5.7246    8.9410    2.4040 N   0  0  0  0  0  0  0  0  0  0  0  0
    5.2842    8.8998    3.6230 C   0  0  0  0  0  0  0  0  0  0  0  0
    3.9258    9.2637    3.9330 N   0  0  0  0  0  0  0  0  0  0  0  0
    2.9921    9.6921    2.8937 C   0  0  0  0  0  0  0  0  0  0  0  0
    3.4805    9.2122    5.2641 N   0  0  0  0  0  0  0  0  0  0  0  0
   10.5647   10.0959    2.8918 C   0  0  0  0  0  0  0  0  0  0  0  0
   12.0471    9.7047    2.7080 C   0  0  0  0  0  0  0  0  0  0  0  0
  1  2  1  0
  2  3  1  0
  2  4  1  0
  4  5  1  0
  5  6  1  0
  6  7  1  0
  7  8  1  0
  8  9  2  0
  8 10  1  0
 10 11  1  0
 11 12  2  0
 12 13  1  0
 13 14  1  0
 13 15  1  0
  7 16  1  0
 16 17  1  0
 17  4  1  0
M  CHG  1   3   1
M  END
>  <EmbedRMS>  (104) 
0.2570984896337683

>  <Gold.Version>  (104) 
2020.3.0

>  <Gold.Id.Protein>  (104) 
unknown|1q8t_protein|pdb

>  <Gold.PLP.Fitness>  (104) 
45.1145

>  <Gold.PLP.PLP>  (104) 
-34.4080

>  <Gold.PLP.part.hbond>  (104) 
-4.7505

>  <Gold.PLP.part.metal>  (104) 
0.0000

>  <Gold.PLP.part.buried>  (104) 
-2.6427

>  <Gold.PLP.part.nonpolar>  (104) 
-27.6962

>  <Gold.PLP.part.repulsive>  (104) 
0.0908

>  <Gold.PLP.ligand.clash>  (104) 
0.0000

>  <Gold.PLP.ligand.torsion>  (104) 
0.9333

>  <Gold.PLP.Chemscore.Hbond>  (104) 
3.8588

>  <Gold.PLP.Chemscore.CHOScore>  (104) 
0.0000

>  <Gold.PLP.Chemscore.Metal>  (104) 
0.0000

>  <Gold.Chemscore.Hbonds>  (104) 
donor molecule, donor type, donor heavy atom, donor atom, acceptor molecule, acceptor atom, score
      L1  H     3    22       P1  2691  0.82
      L1  H     3    24       P1  2902  2.00
      L1  H    10    31       P1  2887  0.45
      P1  H  1888  1903       L1    15  0.59

>  <Gold.PLP.Chemscore.Internal.Correction>  (104) 
0.9967

>  <Gold.PLP.Constraint>  (104) 
-0.0000

>  <Gold.Protein.RotatedTorsions>  (104) 
[  681  677  676  673 ] final  123.38 input -179.99 | X-H torsion
[  702  698  697  694 ] final  -48.33 input  179.99 | X-H torsion
[ 2577 2569 2568 2566 ] final -112.40 input   -0.13 | X-H torsion
[ 2891 2887 2886 2883 ] final  -53.24 input  179.98 | X-H torsion
[ 3175 3171 3170 3167 ] final  -38.11 input -179.99 | X-H torsion
[ 5278 5270 5269 5267 ] final -100.06 input    0.55 | X-H torsion
[  641  637  636  633 ] final   28.15 input  179.99 | X-H torsion
[ 1886 1878 1877 1875 ] final -156.85 input    1.60 | X-H torsion
[  965  957  956  954 ] final -162.13 input    0.45 | X-H torsion

>  <Gold.Protein.ActiveResidues>  (104) 
 LYS47   THR48   LEU49   GLY50   THR51   GLY52   SER53   PHE54   GLY55   ARG56  
 VAL57   MET58   LEU59   TYR69   ALA70   MET71   LYS72   ILE73   LEU74   GLU91  
 LEU95   VAL104  LYS105  MET118  VAL119  MET120  GLU121  TYR122  VAL123  PRO124 
 GLY125  GLY126  GLU127  MET128  PHE129  TYR164  ASP166  LEU167  LYS168  PRO169 
 GLU170  ASN171  LEU172  LEU173  ILE174  GLN181  VAL182  THR183  ASP184  PHE185 
 GLY186  PHE187  GLY200  THR201  ASN326  PHE327  TYR330  ARG18   ARG19   ASN20  
 ALA21   ILE22   HIS23  

>  <Gold.Protein.RotatedAtoms>  (104) 
    9.6222   19.5164    8.3037 H   0  0  0  0  0  0  0  0  0  0  0  0  # atno 641  bound_to 637 
   17.2401   13.4142    6.3766 H   0  0  0  0  0  0  0  0  0  0  0  0  # atno 681  bound_to 677 
   20.1047   11.7097   -0.2480 H   0  0  0  0  0  0  0  0  0  0  0  0  # atno 702  bound_to 698 
   -6.7779   17.1627   -0.8351 H   0  0  0  0  0  0  0  0  0  0  0  0  # atno 965  bound_to 957 
    0.6287   11.1849   11.0008 H   0  0  0  0  0  0  0  0  0  0  0  0  # atno 1886 bound_to 1878
   11.0678    2.7358   -2.9040 H   0  0  0  0  0  0  0  0  0  0  0  0  # atno 2577 bound_to 2569
    7.5549    5.1893    0.9117 H   0  0  0  0  0  0  0  0  0  0  0  0  # atno 2891 bound_to 2887
   19.3562    2.9834   -0.7284 H   0  0  0  0  0  0  0  0  0  0  0  0  # atno 3175 bound_to 3171
   13.9076    9.8346   10.4041 H   0  0  0  0  0  0  0  0  0  0  0  0  # atno 5278 bound_to 5270
   15.8852   12.5783    6.4129 LP  0  0  0  0  0  0  0  0  0  0  0  0  # atno 5914 bound_to 677 
   16.1433   13.8004    7.4647 LP  0  0  0  0  0  0  0  0  0  0  0  0  # atno 5915 bound_to 677 
   21.0926   11.5416   -1.4862 LP  0  0  0  0  0  0  0  0  0  0  0  0  # atno 5920 bound_to 698 
   19.5017   11.8281   -1.7175 LP  0  0  0  0  0  0  0  0  0  0  0  0  # atno 5921 bound_to 698 
    9.7861    1.9269   -2.4159 LP  0  0  0  0  0  0  0  0  0  0  0  0  # atno 5950 bound_to 2569
    9.6310    3.2568   -3.3507 LP  0  0  0  0  0  0  0  0  0  0  0  0  # atno 5951 bound_to 2569
    7.3492    6.6450    1.5242 LP  0  0  0  0  0  0  0  0  0  0  0  0  # atno 5982 bound_to 2887
    8.3746    6.3985    0.2774 LP  0  0  0  0  0  0  0  0  0  0  0  0  # atno 5983 bound_to 2887
   18.3658    2.4170    0.3824 LP  0  0  0  0  0  0  0  0  0  0  0  0  # atno 6000 bound_to 3171
   18.1518    2.0520   -1.1948 LP  0  0  0  0  0  0  0  0  0  0  0  0  # atno 6001 bound_to 3171
   14.0724   10.1994    8.8625 LP  0  0  0  0  0  0  0  0  0  0  0  0  # atno 6004 bound_to 5270
   12.5913   10.0202    9.5267 LP  0  0  0  0  0  0  0  0  0  0  0  0  # atno 6005 bound_to 5270
   10.6528   18.9338    7.2391 LP  0  0  0  0  0  0  0  0  0  0  0  0  # atno 6055 bound_to 637 
   11.1779   19.6136    8.6279 LP  0  0  0  0  0  0  0  0  0  0  0  0  # atno 6056 bound_to 637 
    1.7059   12.3280   10.7398 LP  0  0  0  0  0  0  0  0  0  0  0  0  # atno 6063 bound_to 1878
    2.0175   10.7763   10.3378 LP  0  0  0  0  0  0  0  0  0  0  0  0  # atno 6064 bound_to 1878
   -7.1722   15.8432   -0.0359 LP  0  0  0  0  0  0  0  0  0  0  0  0  # atno 6067 bound_to 957 
   -6.4975   15.7531   -1.5202 LP  0  0  0  0  0  0  0  0  0  0  0  0  # atno 6068 bound_to 957 

>  <STRIFE_LigEff_Score>  (104) 
2.6537941176470587

$$$$
unknown|pharmsElabsTestPreDocking|sdf|105|dock2
     RDKit          3D

 16 16  0  0  0  0  0  0  0  0999 V2000
   13.8550    9.4491    1.3850 C   0  0  0  0  0  0  0  0  0  0  0  0
   13.3041    8.1289    1.9237 C   0  0  0  0  0  0  0  0  0  0  0  0
   13.2932    7.0976    0.8771 N   0  0  0  0  0  0  0  0  0  0  0  0
   11.9863    8.1633    2.7227 C   0  0  0  0  0  0  0  0  0  0  0  0
   10.8756    7.1226    2.4183 C   0  0  0  0  0  0  0  0  0  0  0  0
    9.5220    7.7005    2.0315 C   0  0  0  0  0  0  0  0  0  0  0  0
    9.1209    8.8530    2.9503 C   0  0  0  0  0  0  0  0  0  0  0  0
    7.7207    9.3106    2.6390 C   0  0  0  0  0  0  0  0  0  0  0  0
    7.4193    9.6263    1.4563 O   0  0  0  0  0  0  0  0  0  0  0  0
    6.7569    9.3940    3.7013 N   0  0  0  0  0  0  0  0  0  0  0  0
    5.3907    9.8326    3.5882 C   0  0  0  0  0  0  0  0  0  0  0  0
    4.7656   10.0427    2.0885 S   0  0  0  0  0  0  0  0  0  0  0  0
    4.4398    9.8910    4.7564 C   0  0  0  0  0  0  0  0  0  0  0  0
    3.2852    9.0262    4.5319 N   0  0  0  0  0  0  0  0  0  0  0  0
   10.1043   10.0034    2.7646 C   0  0  0  0  0  0  0  0  0  0  0  0
   11.5338    9.6014    3.1218 C   0  0  0  0  0  0  0  0  0  0  0  0
  1  2  1  0
  2  3  1  0
  2  4  1  0
  4  5  1  0
  5  6  1  0
  6  7  1  0
  7  8  1  0
  8  9  2  0
  8 10  1  0
 10 11  1  0
 11 12  2  0
 11 13  1  0
 13 14  1  0
  7 15  1  0
 15 16  1  0
 16  4  1  0
M  CHG  1   3   1
M  END
>  <EmbedRMS>  (105) 
0.21492586170883154

>  <Gold.Version>  (105) 
2020.3.0

>  <Gold.Id.Protein>  (105) 
unknown|1q8t_protein|pdb

>  <Gold.PLP.Fitness>  (105) 
42.0139

>  <Gold.PLP.PLP>  (105) 
-33.1779

>  <Gold.PLP.part.hbond>  (105) 
-2.8914

>  <Gold.PLP.part.metal>  (105) 
0.0000

>  <Gold.PLP.part.buried>  (105) 
-2.4371

>  <Gold.PLP.part.nonpolar>  (105) 
-27.8522

>  <Gold.PLP.part.repulsive>  (105) 
0.0491

>  <Gold.PLP.ligand.clash>  (105) 
0.0000

>  <Gold.PLP.ligand.torsion>  (105) 
1.4412

>  <Gold.PLP.Chemscore.Hbond>  (105) 
3.7600

>  <Gold.PLP.Chemscore.CHOScore>  (105) 
0.0000

>  <Gold.PLP.Chemscore.Metal>  (105) 
0.0000

>  <Gold.Chemscore.Hbonds>  (105) 
donor molecule, donor type, donor heavy atom, donor atom, acceptor molecule, acceptor atom, score
      L1  H     3    22       P1  2902  2.00
      L1  H     3    23       P1  2691  0.82
      P1  H  1888  1903       L1    14  0.94

>  <Gold.PLP.Chemscore.Internal.Correction>  (105) 
0.4383

>  <Gold.PLP.Constraint>  (105) 
-0.0000

>  <Gold.Protein.RotatedTorsions>  (105) 
[  681  677  676  673 ] final  -86.85 input -179.99 | X-H torsion
[  702  698  697  694 ] final -128.78 input  179.99 | X-H torsion
[ 2577 2569 2568 2566 ] final  134.90 input   -0.13 | X-H torsion
[ 2891 2887 2886 2883 ] final  129.41 input  179.98 | X-H torsion
[ 3175 3171 3170 3167 ] final   44.92 input -179.99 | X-H torsion
[ 5278 5270 5269 5267 ] final  -82.41 input    0.55 | X-H torsion
[  641  637  636  633 ] final -128.33 input  179.99 | X-H torsion
[ 1886 1878 1877 1875 ] final   72.38 input    1.60 | X-H torsion
[  965  957  956  954 ] final  -22.70 input    0.45 | X-H torsion

>  <Gold.Protein.ActiveResidues>  (105) 
 LYS47   THR48   LEU49   GLY50   THR51   GLY52   SER53   PHE54   GLY55   ARG56  
 VAL57   MET58   LEU59   TYR69   ALA70   MET71   LYS72   ILE73   LEU74   GLU91  
 LEU95   VAL104  LYS105  MET118  VAL119  MET120  GLU121  TYR122  VAL123  PRO124 
 GLY125  GLY126  GLU127  MET128  PHE129  TYR164  ASP166  LEU167  LYS168  PRO169 
 GLU170  ASN171  LEU172  LEU173  ILE174  GLN181  VAL182  THR183  ASP184  PHE185 
 GLY186  PHE187  GLY200  THR201  ASN326  PHE327  TYR330  ARG18   ARG19   ASN20  
 ALA21   ILE22   HIS23  

>  <Gold.Protein.RotatedAtoms>  (105) 
   11.1300   19.0444    7.5444 H   0  0  0  0  0  0  0  0  0  0  0  0  # atno 641  bound_to 637 
   15.8060   13.4902    7.3404 H   0  0  0  0  0  0  0  0  0  0  0  0  # atno 681  bound_to 677 
   21.0726   11.5500   -0.8627 H   0  0  0  0  0  0  0  0  0  0  0  0  # atno 702  bound_to 698 
   -6.5858   15.5576   -1.2909 H   0  0  0  0  0  0  0  0  0  0  0  0  # atno 965  bound_to 957 
    1.8272   12.2300   10.6507 H   0  0  0  0  0  0  0  0  0  0  0  0  # atno 1886 bound_to 1878
    9.9131    1.9237   -2.4247 H   0  0  0  0  0  0  0  0  0  0  0  0  # atno 2577 bound_to 2569
    7.9149    6.9440    0.9151 H   0  0  0  0  0  0  0  0  0  0  0  0  # atno 2891 bound_to 2887
   18.6138    2.3455   -1.4005 H   0  0  0  0  0  0  0  0  0  0  0  0  # atno 3175 bound_to 3171
   13.6435    9.8138   10.4774 H   0  0  0  0  0  0  0  0  0  0  0  0  # atno 5278 bound_to 5270
   17.2510   13.7418    6.7203 LP  0  0  0  0  0  0  0  0  0  0  0  0  # atno 5914 bound_to 677 
   16.2869   12.5570    6.1429 LP  0  0  0  0  0  0  0  0  0  0  0  0  # atno 5915 bound_to 677 
   20.0350   11.7401   -2.0563 LP  0  0  0  0  0  0  0  0  0  0  0  0  # atno 5920 bound_to 698 
   19.5412   11.7976   -0.5008 LP  0  0  0  0  0  0  0  0  0  0  0  0  # atno 5921 bound_to 698 
    9.5380    3.1914   -3.3121 LP  0  0  0  0  0  0  0  0  0  0  0  0  # atno 5950 bound_to 2569
   11.0948    2.8474   -2.9591 LP  0  0  0  0  0  0  0  0  0  0  0  0  # atno 5951 bound_to 2569
    8.1927    5.5120    0.2757 LP  0  0  0  0  0  0  0  0  0  0  0  0  # atno 5982 bound_to 2887
    7.1521    5.6847    1.5223 LP  0  0  0  0  0  0  0  0  0  0  0  0  # atno 5983 bound_to 2887
   19.3069    3.0446   -0.1489 LP  0  0  0  0  0  0  0  0  0  0  0  0  # atno 6000 bound_to 3171
   17.9919    2.0958    0.0439 LP  0  0  0  0  0  0  0  0  0  0  0  0  # atno 6001 bound_to 3171
   14.2807   10.1534    9.0577 LP  0  0  0  0  0  0  0  0  0  0  0  0  # atno 6004 bound_to 5270
   12.6609   10.0880    9.2543 LP  0  0  0  0  0  0  0  0  0  0  0  0  # atno 6005 bound_to 5270
   10.6703   19.7725    8.8836 LP  0  0  0  0  0  0  0  0  0  0  0  0  # atno 6055 bound_to 637 
    9.5724   19.2719    7.7832 LP  0  0  0  0  0  0  0  0  0  0  0  0  # atno 6056 bound_to 637 
    1.8874   10.6628   10.3758 LP  0  0  0  0  0  0  0  0  0  0  0  0  # atno 6063 bound_to 1878
    0.5744   11.3413   11.0703 LP  0  0  0  0  0  0  0  0  0  0  0  0  # atno 6064 bound_to 1878
   -6.6634   17.1394   -1.1265 LP  0  0  0  0  0  0  0  0  0  0  0  0  # atno 6067 bound_to 957 
   -7.2086   16.1474    0.0505 LP  0  0  0  0  0  0  0  0  0  0  0  0  # atno 6068 bound_to 957 

>  <STRIFE_LigEff_Score>  (105) 
2.62586875

$$$$
unknown|pharmsElabsTestPreDocking|sdf|106|dock1
     RDKit          3D

 19 20  0  0  0  0  0  0  0  0999 V2000
    3.6013    9.2182    1.8133 C   0  0  0  0  0  0  0  0  0  0  0  0
    3.9911    9.4597    3.2369 C   0  0  0  0  0  0  0  0  0  0  0  0
    3.3042    8.9580    4.2843 N   0  0  0  0  0  0  0  0  0  0  0  0
    3.9876    9.3890    5.3655 C   0  0  0  0  0  0  0  0  0  0  0  0
    5.0695   10.1394    4.9619 C   0  0  0  0  0  0  0  0  0  0  0  0
    5.0541   10.1966    3.6208 N   0  0  0  0  0  0  0  0  0  0  0  0
    6.0623   10.8232    2.7726 C   0  0  0  0  0  0  0  0  0  0  0  0
    7.3841   10.3303    3.1355 N   0  0  0  0  0  0  0  0  0  0  0  0
    8.0364    9.3085    2.3788 C   0  0  0  0  0  0  0  0  0  0  0  0
    7.4819    8.8280    1.3506 O   0  0  0  0  0  0  0  0  0  0  0  0
    9.3966    8.8271    2.8037 C   0  0  0  0  0  0  0  0  0  0  0  0
    9.8763    7.7067    1.8840 C   0  0  0  0  0  0  0  0  0  0  0  0
   11.1815    7.0997    2.3780 C   0  0  0  0  0  0  0  0  0  0  0  0
   12.2648    8.1157    2.8295 C   0  0  0  0  0  0  0  0  0  0  0  0
   13.6537    8.0972    2.1613 C   0  0  0  0  0  0  0  0  0  0  0  0
   14.2547    9.4286    1.7110 C   0  0  0  0  0  0  0  0  0  0  0  0
   13.7441    7.0917    1.0937 N   0  0  0  0  0  0  0  0  0  0  0  0
   11.7861    9.5425    3.2386 C   0  0  0  0  0  0  0  0  0  0  0  0
   10.4011    9.9734    2.7601 C   0  0  0  0  0  0  0  0  0  0  0  0
  1  2  1  0
  2  3  2  0
  3  4  1  0
  4  5  2  0
  5  6  1  0
  6  7  1  0
  7  8  1  0
  8  9  1  0
  9 10  2  0
  9 11  1  0
 11 12  1  0
 12 13  1  0
 13 14  1  0
 14 15  1  0
 15 16  1  0
 15 17  1  0
 14 18  1  0
 18 19  1  0
  6  2  1  0
 19 11  1  0
M  CHG  1  17   1
M  END
>  <EmbedRMS>  (106) 
0.19660536923015426

>  <Gold.Version>  (106) 
2020.3.0

>  <Gold.Id.Protein>  (106) 
unknown|1q8t_protein|pdb

>  <Gold.PLP.Fitness>  (106) 
54.1826

>  <Gold.PLP.PLP>  (106) 
-39.6018

>  <Gold.PLP.part.hbond>  (106) 
-4.0000

>  <Gold.PLP.part.metal>  (106) 
0.0000

>  <Gold.PLP.part.buried>  (106) 
2.0102

>  <Gold.PLP.part.nonpolar>  (106) 
-38.5988

>  <Gold.PLP.part.repulsive>  (106) 
0.1844

>  <Gold.PLP.ligand.clash>  (106) 
0.0000

>  <Gold.PLP.ligand.torsion>  (106) 
1.4736

>  <Gold.PLP.Chemscore.Hbond>  (106) 
4.6749

>  <Gold.PLP.Chemscore.CHOScore>  (106) 
0.9773

>  <Gold.PLP.Chemscore.Metal>  (106) 
0.0000

>  <Gold.Chemscore.Hbonds>  (106) 
donor molecule, donor type, donor heavy atom, donor atom, acceptor molecule, acceptor atom, score
      L1  H    17    38       P1  2691  0.98
      L1  H    17    39       P1  2902  2.00
      P1  H  2887  2891       L1    10  1.00
      P1  H  1888  1903       L1     3  0.70
      L1  C     4    23       P1  1891  0.98

>  <Gold.PLP.Chemscore.Internal.Correction>  (106) 
0.5716

>  <Gold.PLP.Constraint>  (106) 
-0.0000

>  <Gold.Protein.RotatedTorsions>  (106) 
[  681  677  676  673 ] final  -91.52 input -179.99 | X-H torsion
[  702  698  697  694 ] final    8.70 input  179.99 | X-H torsion
[ 2577 2569 2568 2566 ] final   89.58 input   -0.13 | X-H torsion
[ 2891 2887 2886 2883 ] final  149.37 input  179.98 | X-H torsion
[ 3175 3171 3170 3167 ] final    8.93 input -179.99 | X-H torsion
[ 5278 5270 5269 5267 ] final   51.89 input    0.55 | X-H torsion
[  641  637  636  633 ] final -146.27 input  179.99 | X-H torsion
[ 1886 1878 1877 1875 ] final  -87.99 input    1.60 | X-H torsion
[  965  957  956  954 ] final -133.79 input    0.45 | X-H torsion

>  <Gold.Protein.ActiveResidues>  (106) 
 LYS47   THR48   LEU49   GLY50   THR51   GLY52   SER53   PHE54   GLY55   ARG56  
 VAL57   MET58   LEU59   TYR69   ALA70   MET71   LYS72   ILE73   LEU74   GLU91  
 LEU95   VAL104  LYS105  MET118  VAL119  MET120  GLU121  TYR122  VAL123  PRO124 
 GLY125  GLY126  GLU127  MET128  PHE129  TYR164  ASP166  LEU167  LYS168  PRO169 
 GLU170  ASN171  LEU172  LEU173  ILE174  GLN181  VAL182  THR183  ASP184  PHE185 
 GLY186  PHE187  GLY200  THR201  ASN326  PHE327  TYR330  ARG18   ARG19   ASN20  
 ALA21   ILE22   HIS23  

>  <Gold.Protein.RotatedAtoms>  (106) 
   11.2833   19.1437    7.7556 H   0  0  0  0  0  0  0  0  0  0  0  0  # atno 641  bound_to 637 
   15.8511   13.5424    7.3642 H   0  0  0  0  0  0  0  0  0  0  0  0  # atno 681  bound_to 677 
   19.4305   11.8391   -0.7588 H   0  0  0  0  0  0  0  0  0  0  0  0  # atno 702  bound_to 698 
   -6.6056   17.0321   -1.2164 H   0  0  0  0  0  0  0  0  0  0  0  0  # atno 965  bound_to 957 
    1.3016   10.5461   10.5952 H   0  0  0  0  0  0  0  0  0  0  0  0  # atno 1886 bound_to 1878
    9.3847    2.2691   -2.7032 H   0  0  0  0  0  0  0  0  0  0  0  0  # atno 2577 bound_to 2569
    7.7099    6.9234    1.1476 H   0  0  0  0  0  0  0  0  0  0  0  0  # atno 2891 bound_to 2887
   19.0435    2.6776   -1.2939 H   0  0  0  0  0  0  0  0  0  0  0  0  # atno 3175 bound_to 3171
   12.8150   10.1478    9.0885 H   0  0  0  0  0  0  0  0  0  0  0  0  # atno 5278 bound_to 5270
   17.2722   13.6963    6.6620 LP  0  0  0  0  0  0  0  0  0  0  0  0  # atno 5914 bound_to 677 
   16.2182   12.5475    6.1761 LP  0  0  0  0  0  0  0  0  0  0  0  0  # atno 5915 bound_to 677 
   20.9868   11.5431   -0.5923 LP  0  0  0  0  0  0  0  0  0  0  0  0  # atno 5920 bound_to 698 
   20.3167   11.6905   -2.0741 LP  0  0  0  0  0  0  0  0  0  0  0  0  # atno 5921 bound_to 698 
   10.2190    3.4199   -3.4208 LP  0  0  0  0  0  0  0  0  0  0  0  0  # atno 5950 bound_to 2569
   10.9702    2.2552   -2.5571 LP  0  0  0  0  0  0  0  0  0  0  0  0  # atno 5951 bound_to 2569
    8.3212    5.8020    0.1962 LP  0  0  0  0  0  0  0  0  0  0  0  0  # atno 5982 bound_to 2887
    7.2393    5.4164    1.3570 LP  0  0  0  0  0  0  0  0  0  0  0  0  # atno 5983 bound_to 2887
   18.9715    2.8532    0.2872 LP  0  0  0  0  0  0  0  0  0  0  0  0  # atno 6000 bound_to 3171
   17.8753    1.9376   -0.5044 LP  0  0  0  0  0  0  0  0  0  0  0  0  # atno 6001 bound_to 3171
   13.4149    9.7841   10.5184 LP  0  0  0  0  0  0  0  0  0  0  0  0  # atno 6004 bound_to 5270
   14.3984   10.1060    9.2551 LP  0  0  0  0  0  0  0  0  0  0  0  0  # atno 6005 bound_to 5270
   10.3770   19.7933    8.8922 LP  0  0  0  0  0  0  0  0  0  0  0  0  # atno 6055 bound_to 637 
    9.7042   19.1466    7.5521 LP  0  0  0  0  0  0  0  0  0  0  0  0  # atno 6056 bound_to 637 
    0.7682   11.9622   11.0908 LP  0  0  0  0  0  0  0  0  0  0  0  0  # atno 6063 bound_to 1878
    2.2469   11.8146   10.4137 LP  0  0  0  0  0  0  0  0  0  0  0  0  # atno 6064 bound_to 1878
   -7.2105   16.2936    0.0579 LP  0  0  0  0  0  0  0  0  0  0  0  0  # atno 6067 bound_to 957 
   -6.6405   15.4403   -1.2124 LP  0  0  0  0  0  0  0  0  0  0  0  0  # atno 6068 bound_to 957 

>  <STRIFE_LigEff_Score>  (106) 
2.851715789473684

$$$$
unknown|pharmsElabsTestPreDocking|sdf|107|dock2
     RDKit          3D

 18 19  0  0  0  0  0  0  0  0999 V2000
   14.5073    9.3102    1.2184 C   0  0  0  0  0  0  0  0  0  0  0  0
   13.6741    8.0927    1.5820 C   0  0  0  0  0  0  0  0  0  0  0  0
   13.9542    6.9004    0.7896 N   0  0  0  0  0  0  0  0  0  0  0  0
   12.1915    8.3479    1.9919 C   0  0  0  0  0  0  0  0  0  0  0  0
   11.5012    7.2949    2.8730 C   0  0  0  0  0  0  0  0  0  0  0  0
    9.9720    7.4848    2.8693 C   0  0  0  0  0  0  0  0  0  0  0  0
    9.5172    8.9168    2.5766 C   0  0  0  0  0  0  0  0  0  0  0  0
    8.0434    9.1416    2.7136 C   0  0  0  0  0  0  0  0  0  0  0  0
    7.5080    9.5658    1.6664 O   0  0  0  0  0  0  0  0  0  0  0  0
    7.2488    8.9109    3.9001 N   0  0  0  0  0  0  0  0  0  0  0  0
    5.8390    9.2625    4.0309 C   0  0  0  0  0  0  0  0  0  0  0  0
    4.9769    9.0729    2.9336 C   0  0  0  0  0  0  0  0  0  0  0  0
    3.6137    9.3883    3.0285 C   0  0  0  0  0  0  0  0  0  0  0  0
    3.0901    9.9062    4.2138 C   0  0  0  0  0  0  0  0  0  0  0  0
    3.9206   10.1001    5.3097 C   0  0  0  0  0  0  0  0  0  0  0  0
    5.2704    9.7725    5.2307 C   0  0  0  0  0  0  0  0  0  0  0  0
   10.4509   10.0921    2.7964 C   0  0  0  0  0  0  0  0  0  0  0  0
   11.9412    9.7565    2.5728 C   0  0  0  0  0  0  0  0  0  0  0  0
  1  2  1  0
  2  3  1  0
  2  4  1  0
  4  5  1  0
  5  6  1  0
  6  7  1  0
  7  8  1  0
  8  9  2  0
  8 10  1  0
 10 11  1  0
 11 12  2  0
 12 13  1  0
 13 14  2  0
 14 15  1  0
 15 16  2  0
  7 17  1  0
 17 18  1  0
 18  4  1  0
 16 11  1  0
M  CHG  1   3   1
M  END
>  <EmbedRMS>  (107) 
0.24964892458419108

>  <Gold.Version>  (107) 
2020.3.0

>  <Gold.Id.Protein>  (107) 
unknown|1q8t_protein|pdb

>  <Gold.PLP.Fitness>  (107) 
55.0395

>  <Gold.PLP.PLP>  (107) 
-47.2457

>  <Gold.PLP.part.hbond>  (107) 
-2.0000

>  <Gold.PLP.part.metal>  (107) 
0.0000

>  <Gold.PLP.part.buried>  (107) 
-1.5828

>  <Gold.PLP.part.nonpolar>  (107) 
-44.3286

>  <Gold.PLP.part.repulsive>  (107) 
0.0845

>  <Gold.PLP.ligand.clash>  (107) 
0.0000

>  <Gold.PLP.ligand.torsion>  (107) 
1.0361

>  <Gold.PLP.Chemscore.Hbond>  (107) 
2.9760

>  <Gold.PLP.Chemscore.CHOScore>  (107) 
0.0000

>  <Gold.PLP.Chemscore.Metal>  (107) 
0.0000

>  <Gold.Chemscore.Hbonds>  (107) 
donor molecule, donor type, donor heavy atom, donor atom, acceptor molecule, acceptor atom, score
      L1  H     3    23       P1  2691  0.98
      L1  H     3    25       P1  2902  2.00

>  <Gold.PLP.Chemscore.Internal.Correction>  (107) 
0.9380

>  <Gold.PLP.Constraint>  (107) 
-0.0000

>  <Gold.Protein.RotatedTorsions>  (107) 
[  681  677  676  673 ] final   22.96 input -179.99 | X-H torsion
[  702  698  697  694 ] final    0.23 input  179.99 | X-H torsion
[ 2577 2569 2568 2566 ] final  177.69 input   -0.13 | X-H torsion
[ 2891 2887 2886 2883 ] final   66.28 input  179.98 | X-H torsion
[ 3175 3171 3170 3167 ] final   46.58 input -179.99 | X-H torsion
[ 5278 5270 5269 5267 ] final -114.15 input    0.55 | X-H torsion
[  641  637  636  633 ] final -179.23 input  179.99 | X-H torsion
[ 1886 1878 1877 1875 ] final  -95.15 input    1.60 | X-H torsion
[  965  957  956  954 ] final  120.63 input    0.45 | X-H torsion

>  <Gold.Protein.ActiveResidues>  (107) 
 LYS47   THR48   LEU49   GLY50   THR51   GLY52   SER53   PHE54   GLY55   ARG56  
 VAL57   MET58   LEU59   TYR69   ALA70   MET71   LYS72   ILE73   LEU74   GLU91  
 LEU95   VAL104  LYS105  MET118  VAL119  MET120  GLU121  TYR122  VAL123  PRO124 
 GLY125  GLY126  GLU127  MET128  PHE129  TYR164  ASP166  LEU167  LYS168  PRO169 
 GLU170  ASN171  LEU172  LEU173  ILE174  GLN181  VAL182  THR183  ASP184  PHE185 
 GLY186  PHE187  GLY200  THR201  ASN326  PHE327  TYR330  ARG18   ARG19   ASN20  
 ALA21   ILE22   HIS23  

>  <Gold.Protein.RotatedAtoms>  (107) 
   11.3529   19.3694    8.2053 H   0  0  0  0  0  0  0  0  0  0  0  0  # atno 641  bound_to 637 
   16.1473   12.5892    6.2357 H   0  0  0  0  0  0  0  0  0  0  0  0  # atno 681  bound_to 677 
   19.4935   11.8257   -0.6431 H   0  0  0  0  0  0  0  0  0  0  0  0  # atno 702  bound_to 698 
   -7.1602   16.5143   -0.0088 H   0  0  0  0  0  0  0  0  0  0  0  0  # atno 965  bound_to 957 
    1.2017   10.5631   10.6421 H   0  0  0  0  0  0  0  0  0  0  0  0  # atno 1886 bound_to 1878
   10.5635    1.9849   -2.4195 H   0  0  0  0  0  0  0  0  0  0  0  0  # atno 2577 bound_to 2569
    8.3326    6.3773    0.2954 H   0  0  0  0  0  0  0  0  0  0  0  0  # atno 2891 bound_to 2887
   18.5929    2.3304   -1.3971 H   0  0  0  0  0  0  0  0  0  0  0  0  # atno 3175 bound_to 3171
   14.0942    9.8644   10.2915 H   0  0  0  0  0  0  0  0  0  0  0  0  # atno 5278 bound_to 5270
   15.8887   13.6082    7.4318 LP  0  0  0  0  0  0  0  0  0  0  0  0  # atno 5914 bound_to 677 
   17.2900   13.6388    6.5941 LP  0  0  0  0  0  0  0  0  0  0  0  0  # atno 5915 bound_to 677 
   21.0577   11.5329   -0.7117 LP  0  0  0  0  0  0  0  0  0  0  0  0  # atno 5920 bound_to 698 
   20.1796   11.7149   -2.0764 LP  0  0  0  0  0  0  0  0  0  0  0  0  # atno 5921 bound_to 698 
    9.2387    2.6727   -2.9738 LP  0  0  0  0  0  0  0  0  0  0  0  0  # atno 5950 bound_to 2569
   10.7093    3.3017   -3.3028 LP  0  0  0  0  0  0  0  0  0  0  0  0  # atno 5951 bound_to 2569
    7.5521    5.1421    0.9291 LP  0  0  0  0  0  0  0  0  0  0  0  0  # atno 5982 bound_to 2887
    7.3531    6.6510    1.5210 LP  0  0  0  0  0  0  0  0  0  0  0  0  # atno 5983 bound_to 2887
   19.3169    3.0486   -0.1741 LP  0  0  0  0  0  0  0  0  0  0  0  0  # atno 6000 bound_to 3171
   18.0040    2.1076    0.0655 LP  0  0  0  0  0  0  0  0  0  0  0  0  # atno 6001 bound_to 3171
   13.8681   10.2235    8.7564 LP  0  0  0  0  0  0  0  0  0  0  0  0  # atno 6004 bound_to 5270
   12.5993    9.9648    9.7512 LP  0  0  0  0  0  0  0  0  0  0  0  0  # atno 6005 bound_to 5270
    9.8821   19.7236    8.7016 LP  0  0  0  0  0  0  0  0  0  0  0  0  # atno 6055 bound_to 637 
   10.1258   18.9785    7.2691 LP  0  0  0  0  0  0  0  0  0  0  0  0  # atno 6056 bound_to 637 
    0.8414   12.0527   11.0740 LP  0  0  0  0  0  0  0  0  0  0  0  0  # atno 6063 bound_to 1878
    2.2789   11.7062   10.3811 LP  0  0  0  0  0  0  0  0  0  0  0  0  # atno 6064 bound_to 1878
   -6.7325   15.3544   -1.0121 LP  0  0  0  0  0  0  0  0  0  0  0  0  # atno 6067 bound_to 957 
   -6.5345   16.9247   -1.4142 LP  0  0  0  0  0  0  0  0  0  0  0  0  # atno 6068 bound_to 957 

>  <STRIFE_LigEff_Score>  (107) 
3.05775

$$$$
unknown|pharmsElabsTestPreDocking|sdf|108|dock9
     RDKit          3D

 16 16  0  0  0  0  0  0  0  0999 V2000
   14.5559    7.4811    3.3863 C   0  0  0  0  0  0  0  0  0  0  0  0
   13.5428    7.9870    2.3454 C   0  0  0  0  0  0  0  0  0  0  0  0
   13.6184    7.1703    1.1304 N   0  0  0  0  0  0  0  0  0  0  0  0
   12.0675    8.1847    2.8476 C   0  0  0  0  0  0  0  0  0  0  0  0
   11.0287    7.3942    2.0534 C   0  0  0  0  0  0  0  0  0  0  0  0
    9.5964    7.5308    2.5463 C   0  0  0  0  0  0  0  0  0  0  0  0
    9.2388    8.9434    2.9410 C   0  0  0  0  0  0  0  0  0  0  0  0
    7.7694    9.1595    3.1576 C   0  0  0  0  0  0  0  0  0  0  0  0
    7.4826   10.1293    3.9004 O   0  0  0  0  0  0  0  0  0  0  0  0
    6.7053    8.3694    2.6016 N   0  0  0  0  0  0  0  0  0  0  0  0
    5.3166    8.6011    3.0248 C   0  0  0  0  0  0  0  0  0  0  0  0
    4.6533    9.5989    2.1071 C   0  0  0  0  0  0  0  0  0  0  0  0
    5.2567   10.6958    1.8068 N   0  0  0  0  0  0  0  0  0  0  0  0
    3.3104    9.3715    1.6511 N   0  0  0  0  0  0  0  0  0  0  0  0
   10.2026    9.6747    3.8487 C   0  0  0  0  0  0  0  0  0  0  0  0
   11.6476    9.5864    3.3324 C   0  0  0  0  0  0  0  0  0  0  0  0
  1  2  1  0
  2  3  1  0
  2  4  1  0
  4  5  1  0
  5  6  1  0
  6  7  1  0
  7  8  1  0
  8  9  2  0
  8 10  1  0
 10 11  1  0
 11 12  1  0
 12 13  2  0
 12 14  1  0
  7 15  1  0
 15 16  1  0
 16  4  1  0
M  CHG  2   3   1  14   1
M  END
>  <EmbedRMS>  (108) 
0.2785311156398337

>  <Gold.Version>  (108) 
2020.3.0

>  <Gold.Id.Protein>  (108) 
unknown|1q8t_protein|pdb

>  <Gold.PLP.Fitness>  (108) 
37.5713

>  <Gold.PLP.PLP>  (108) 
-29.0995

>  <Gold.PLP.part.hbond>  (108) 
-4.0000

>  <Gold.PLP.part.metal>  (108) 
0.0000

>  <Gold.PLP.part.buried>  (108) 
-3.0669

>  <Gold.PLP.part.nonpolar>  (108) 
-21.6636

>  <Gold.PLP.part.repulsive>  (108) 
0.0694

>  <Gold.PLP.ligand.clash>  (108) 
0.0000

>  <Gold.PLP.ligand.torsion>  (108) 
2.1240

>  <Gold.PLP.Chemscore.Hbond>  (108) 
3.9714

>  <Gold.PLP.Chemscore.CHOScore>  (108) 
0.0000

>  <Gold.PLP.Chemscore.Metal>  (108) 
0.0000

>  <Gold.Chemscore.Hbonds>  (108) 
donor molecule, donor type, donor heavy atom, donor atom, acceptor molecule, acceptor atom, score
      L1  H     3    21       P1  2902  2.00
      L1  H     3    22       P1  2691  1.00
      L1  H    10    30       P1  2887  0.70
      L1  H    14    35       P1  1855  0.27

>  <Gold.PLP.Chemscore.Internal.Correction>  (108) 
0.8055

>  <Gold.PLP.Constraint>  (108) 
-0.0000

>  <Gold.Protein.RotatedTorsions>  (108) 
[  681  677  676  673 ] final  140.77 input -179.99 | X-H torsion
[  702  698  697  694 ] final -124.29 input  179.99 | X-H torsion
[ 2577 2569 2568 2566 ] final  -16.81 input   -0.13 | X-H torsion
[ 2891 2887 2886 2883 ] final   15.26 input  179.98 | X-H torsion
[ 3175 3171 3170 3167 ] final  110.81 input -179.99 | X-H torsion
[ 5278 5270 5269 5267 ] final    5.64 input    0.55 | X-H torsion
[  641  637  636  633 ] final   83.35 input  179.99 | X-H torsion
[ 1886 1878 1877 1875 ] final  112.20 input    1.60 | X-H torsion
[  965  957  956  954 ] final  170.14 input    0.45 | X-H torsion

>  <Gold.Protein.ActiveResidues>  (108) 
 LYS47   THR48   LEU49   GLY50   THR51   GLY52   SER53   PHE54   GLY55   ARG56  
 VAL57   MET58   LEU59   TYR69   ALA70   MET71   LYS72   ILE73   LEU74   GLU91  
 LEU95   VAL104  LYS105  MET118  VAL119  MET120  GLU121  TYR122  VAL123  PRO124 
 GLY125  GLY126  GLU127  MET128  PHE129  TYR164  ASP166  LEU167  LYS168  PRO169 
 GLU170  ASN171  LEU172  LEU173  ILE174  GLN181  VAL182  THR183  ASP184  PHE185 
 GLY186  PHE187  GLY200  THR201  ASN326  PHE327  TYR330  ARG18   ARG19   ASN20  
 ALA21   ILE22   HIS23  

>  <Gold.Protein.RotatedAtoms>  (108) 
   10.2221   19.7500    8.8270 H   0  0  0  0  0  0  0  0  0  0  0  0  # atno 641  bound_to 637 
   17.2455   13.6083    6.5656 H   0  0  0  0  0  0  0  0  0  0  0  0  # atno 681  bound_to 677 
   21.0487   11.5530   -0.7966 H   0  0  0  0  0  0  0  0  0  0  0  0  # atno 702  bound_to 698 
   -6.9532   17.0830   -0.4515 H   0  0  0  0  0  0  0  0  0  0  0  0  # atno 965  bound_to 957 
    1.2745   12.2821   10.9032 H   0  0  0  0  0  0  0  0  0  0  0  0  # atno 1886 bound_to 1878
   10.0067    3.3513   -3.4091 H   0  0  0  0  0  0  0  0  0  0  0  0  # atno 2577 bound_to 2569
    8.2006    5.6176    0.2664 H   0  0  0  0  0  0  0  0  0  0  0  0  # atno 2891 bound_to 2887
   17.9733    1.9522   -0.7808 H   0  0  0  0  0  0  0  0  0  0  0  0  # atno 3175 bound_to 3171
   12.6458    9.9825    9.7513 H   0  0  0  0  0  0  0  0  0  0  0  0  # atno 5278 bound_to 5270
   16.1083   12.5423    6.2390 LP  0  0  0  0  0  0  0  0  0  0  0  0  # atno 5914 bound_to 677 
   15.9144   13.6321    7.4396 LP  0  0  0  0  0  0  0  0  0  0  0  0  # atno 5915 bound_to 677 
   20.1067   11.7277   -2.0692 LP  0  0  0  0  0  0  0  0  0  0  0  0  # atno 5920 bound_to 698 
   19.4945   11.8070   -0.5574 LP  0  0  0  0  0  0  0  0  0  0  0  0  # atno 5921 bound_to 698 
   11.0671    2.4238   -2.6670 LP  0  0  0  0  0  0  0  0  0  0  0  0  # atno 5950 bound_to 2569
    9.4672    2.1119   -2.5677 LP  0  0  0  0  0  0  0  0  0  0  0  0  # atno 5951 bound_to 2569
    7.1704    5.5998    1.4808 LP  0  0  0  0  0  0  0  0  0  0  0  0  # atno 5982 bound_to 2887
    7.8737    6.9929    0.9999 LP  0  0  0  0  0  0  0  0  0  0  0  0  # atno 5983 bound_to 2887
   19.2301    2.8560   -1.1539 LP  0  0  0  0  0  0  0  0  0  0  0  0  # atno 6000 bound_to 3171
   18.7429    2.6983    0.3967 LP  0  0  0  0  0  0  0  0  0  0  0  0  # atno 6001 bound_to 3171
   14.1264    9.8403   10.3208 LP  0  0  0  0  0  0  0  0  0  0  0  0  # atno 6004 bound_to 5270
   13.8649   10.2237    8.7552 LP  0  0  0  0  0  0  0  0  0  0  0  0  # atno 6005 bound_to 5270
    9.8156   19.0829    7.4397 LP  0  0  0  0  0  0  0  0  0  0  0  0  # atno 6055 bound_to 637 
   11.3833   19.2183    7.8763 LP  0  0  0  0  0  0  0  0  0  0  0  0  # atno 6056 bound_to 637 
    2.2567   11.1827   10.3016 LP  0  0  0  0  0  0  0  0  0  0  0  0  # atno 6063 bound_to 1878
    0.7869   10.7665   10.8786 LP  0  0  0  0  0  0  0  0  0  0  0  0  # atno 6064 bound_to 1878
   -7.0528   15.5007   -0.3054 LP  0  0  0  0  0  0  0  0  0  0  0  0  # atno 6067 bound_to 957 
   -6.4322   16.1796   -1.6546 LP  0  0  0  0  0  0  0  0  0  0  0  0  # atno 6068 bound_to 957 

>  <STRIFE_LigEff_Score>  (108) 
2.34820625

$$$$
unknown|pharmsElabsTestPreDocking|sdf|109|dock2
     RDKit          3D

 17 17  0  0  0  0  0  0  0  0999 V2000
    3.7386   10.0958    5.5274 C   0  0  0  0  0  0  0  0  0  0  0  0
    5.0173    9.8136    5.2665 C   0  0  0  0  0  0  0  0  0  0  0  0
    5.5743    9.4602    3.9378 C   0  0  0  0  0  0  0  0  0  0  0  0
    4.7468    9.3434    2.8711 C   0  0  0  0  0  0  0  0  0  0  0  0
    5.1935    8.9245    1.5036 C   0  0  0  0  0  0  0  0  0  0  0  0
    6.9736    9.1108    3.7841 N   0  0  0  0  0  0  0  0  0  0  0  0
    7.9636    9.4195    2.7748 C   0  0  0  0  0  0  0  0  0  0  0  0
    7.6110   10.2000    1.8534 O   0  0  0  0  0  0  0  0  0  0  0  0
    9.4092    9.0104    2.6940 C   0  0  0  0  0  0  0  0  0  0  0  0
    9.6477    7.5193    2.8615 C   0  0  0  0  0  0  0  0  0  0  0  0
   11.0579    7.0854    2.5178 C   0  0  0  0  0  0  0  0  0  0  0  0
   12.1987    8.0583    2.8328 C   0  0  0  0  0  0  0  0  0  0  0  0
   13.4833    7.7597    2.0209 C   0  0  0  0  0  0  0  0  0  0  0  0
   14.4681    8.9024    1.7728 C   0  0  0  0  0  0  0  0  0  0  0  0
   13.2149    6.9856    0.8080 N   0  0  0  0  0  0  0  0  0  0  0  0
   11.8657    9.5692    2.7619 C   0  0  0  0  0  0  0  0  0  0  0  0
   10.4569    9.9850    3.1635 C   0  0  0  0  0  0  0  0  0  0  0  0
  1  2  2  0
  2  3  1  0
  3  4  2  0
  4  5  1  0
  3  6  1  0
  6  7  1  0
  7  8  2  0
  7  9  1  0
  9 10  1  0
 10 11  1  0
 11 12  1  0
 12 13  1  0
 13 14  1  0
 13 15  1  0
 12 16  1  0
 16 17  1  0
 17  9  1  0
M  CHG  1  15   1
M  END
>  <EmbedRMS>  (109) 
0.29216731409503444

>  <Gold.Version>  (109) 
2020.3.0

>  <Gold.Id.Protein>  (109) 
unknown|1q8t_protein|pdb

>  <Gold.PLP.Fitness>  (109) 
44.3439

>  <Gold.PLP.PLP>  (109) 
-39.2265

>  <Gold.PLP.part.hbond>  (109) 
-1.2192

>  <Gold.PLP.part.metal>  (109) 
0.0000

>  <Gold.PLP.part.buried>  (109) 
-3.1505

>  <Gold.PLP.part.nonpolar>  (109) 
-35.4138

>  <Gold.PLP.part.repulsive>  (109) 
0.0569

>  <Gold.PLP.ligand.clash>  (109) 
0.0000

>  <Gold.PLP.ligand.torsion>  (109) 
1.7581

>  <Gold.PLP.Chemscore.Hbond>  (109) 
2.5547

>  <Gold.PLP.Chemscore.CHOScore>  (109) 
0.0000

>  <Gold.PLP.Chemscore.Metal>  (109) 
0.0000

>  <Gold.Chemscore.Hbonds>  (109) 
donor molecule, donor type, donor heavy atom, donor atom, acceptor molecule, acceptor atom, score
      L1  H    15    37       P1  2902  1.95
      L1  H    15    38       P1  2691  0.60

>  <Gold.PLP.Chemscore.Internal.Correction>  (109) 
0.9695

>  <Gold.PLP.Constraint>  (109) 
-0.0000

>  <Gold.Protein.RotatedTorsions>  (109) 
[  681  677  676  673 ] final  -16.99 input -179.99 | X-H torsion
[  702  698  697  694 ] final   46.42 input  179.99 | X-H torsion
[ 2577 2569 2568 2566 ] final  175.63 input   -0.13 | X-H torsion
[ 2891 2887 2886 2883 ] final -171.00 input  179.98 | X-H torsion
[ 3175 3171 3170 3167 ] final  168.85 input -179.99 | X-H torsion
[ 5278 5270 5269 5267 ] final  -67.66 input    0.55 | X-H torsion
[  641  637  636  633 ] final  155.61 input  179.99 | X-H torsion
[ 1886 1878 1877 1875 ] final  -92.38 input    1.60 | X-H torsion
[  965  957  956  954 ] final  -67.01 input    0.45 | X-H torsion

>  <Gold.Protein.ActiveResidues>  (109) 
 LYS47   THR48   LEU49   GLY50   THR51   GLY52   SER53   PHE54   GLY55   ARG56  
 VAL57   MET58   LEU59   TYR69   ALA70   MET71   LYS72   ILE73   LEU74   GLU91  
 LEU95   VAL104  LYS105  MET118  VAL119  MET120  GLU121  TYR122  VAL123  PRO124 
 GLY125  GLY126  GLU127  MET128  PHE129  TYR164  ASP166  LEU167  LYS168  PRO169 
 GLU170  ASN171  LEU172  LEU173  ILE174  GLN181  VAL182  THR183  ASP184  PHE185 
 GLY186  PHE187  GLY200  THR201  ASN326  PHE327  TYR330  ARG18   ARG19   ASN20  
 ALA21   ILE22   HIS23  

>  <Gold.Protein.RotatedAtoms>  (109) 
   11.2122   19.5411    8.5260 H   0  0  0  0  0  0  0  0  0  0  0  0  # atno 641  bound_to 637 
   15.7202   12.7382    6.6480 H   0  0  0  0  0  0  0  0  0  0  0  0  # atno 681  bound_to 677 
   19.3732   11.8604   -1.3350 H   0  0  0  0  0  0  0  0  0  0  0  0  # atno 702  bound_to 698 
   -6.4395   16.1398   -1.6002 H   0  0  0  0  0  0  0  0  0  0  0  0  # atno 965  bound_to 957 
    1.2400   10.5549   10.6239 H   0  0  0  0  0  0  0  0  0  0  0  0  # atno 1886 bound_to 1878
   10.5343    1.9730   -2.4134 H   0  0  0  0  0  0  0  0  0  0  0  0  # atno 2577 bound_to 2569
    7.3401    6.5910    1.4963 H   0  0  0  0  0  0  0  0  0  0  0  0  # atno 2891 bound_to 2887
   18.0622    2.1289    0.0654 H   0  0  0  0  0  0  0  0  0  0  0  0  # atno 3175 bound_to 3171
   13.4134    9.8117   10.4764 H   0  0  0  0  0  0  0  0  0  0  0  0  # atno 5278 bound_to 5270
   16.4439   13.9341    7.4110 LP  0  0  0  0  0  0  0  0  0  0  0  0  # atno 5914 bound_to 677 
   17.1842   13.1560    6.1809 LP  0  0  0  0  0  0  0  0  0  0  0  0  # atno 5915 bound_to 677 
   20.4998   11.6226   -0.2344 LP  0  0  0  0  0  0  0  0  0  0  0  0  # atno 5920 bound_to 698 
   20.8640   11.5887   -1.8259 LP  0  0  0  0  0  0  0  0  0  0  0  0  # atno 5921 bound_to 698 
    9.2419    2.7004   -2.9929 LP  0  0  0  0  0  0  0  0  0  0  0  0  # atno 5950 bound_to 2569
   10.7368    3.2865   -3.2903 LP  0  0  0  0  0  0  0  0  0  0  0  0  # atno 5951 bound_to 2569
    8.3694    6.4322    0.2914 LP  0  0  0  0  0  0  0  0  0  0  0  0  # atno 5982 bound_to 2887
    7.5804    5.1360    0.8948 LP  0  0  0  0  0  0  0  0  0  0  0  0  # atno 5983 bound_to 2887
   18.5499    2.3149   -1.4390 LP  0  0  0  0  0  0  0  0  0  0  0  0  # atno 6000 bound_to 3171
   19.3294    3.0534   -0.2087 LP  0  0  0  0  0  0  0  0  0  0  0  0  # atno 6001 bound_to 3171
   14.4013   10.1043    9.2619 LP  0  0  0  0  0  0  0  0  0  0  0  0  # atno 6004 bound_to 5270
   12.7823   10.1394    9.0512 LP  0  0  0  0  0  0  0  0  0  0  0  0  # atno 6005 bound_to 5270
    9.6250   19.5895    8.4108 LP  0  0  0  0  0  0  0  0  0  0  0  0  # atno 6055 bound_to 637 
   10.5312   18.9319    7.2221 LP  0  0  0  0  0  0  0  0  0  0  0  0  # atno 6056 bound_to 637 
    0.8119   12.0188   11.0812 LP  0  0  0  0  0  0  0  0  0  0  0  0  # atno 6063 bound_to 1878
    2.2681   11.7487   10.3932 LP  0  0  0  0  0  0  0  0  0  0  0  0  # atno 6064 bound_to 1878
   -6.9579   17.1447   -0.4793 LP  0  0  0  0  0  0  0  0  0  0  0  0  # atno 6067 bound_to 957 
   -7.0681   15.5288   -0.2710 LP  0  0  0  0  0  0  0  0  0  0  0  0  # atno 6068 bound_to 957 

>  <STRIFE_LigEff_Score>  (109) 
2.6084647058823527

$$$$
unknown|pharmsElabsTestPreDocking|sdf|110|dock1
     RDKit          3D

 18 19  0  0  0  0  0  0  0  0999 V2000
   14.7881    7.8040    3.1011 C   0  0  0  0  0  0  0  0  0  0  0  0
   13.7432    8.1127    2.0183 C   0  0  0  0  0  0  0  0  0  0  0  0
   13.7955    7.0954    0.9623 N   0  0  0  0  0  0  0  0  0  0  0  0
   12.2798    8.3741    2.5204 C   0  0  0  0  0  0  0  0  0  0  0  0
   11.2091    7.3977    1.9994 C   0  0  0  0  0  0  0  0  0  0  0  0
    9.8093    7.9731    1.9123 C   0  0  0  0  0  0  0  0  0  0  0  0
    9.4702    8.8699    3.0985 C   0  0  0  0  0  0  0  0  0  0  0  0
    8.0330    9.3084    2.9902 C   0  0  0  0  0  0  0  0  0  0  0  0
    7.6617    9.9396    1.9643 O   0  0  0  0  0  0  0  0  0  0  0  0
    7.1230    9.0269    4.0649 N   0  0  0  0  0  0  0  0  0  0  0  0
    5.7220    9.3508    4.1280 C   0  0  0  0  0  0  0  0  0  0  0  0
    5.0775    9.7867    5.3064 C   0  0  0  0  0  0  0  0  0  0  0  0
    3.7160   10.0737    5.2809 C   0  0  0  0  0  0  0  0  0  0  0  0
    2.9963    9.9306    4.0988 C   0  0  0  0  0  0  0  0  0  0  0  0
    3.6549    9.4991    2.9487 C   0  0  0  0  0  0  0  0  0  0  0  0
    4.9847    9.2226    2.9893 N   0  0  0  0  0  0  0  0  0  0  0  0
   10.3839   10.1007    3.1291 C   0  0  0  0  0  0  0  0  0  0  0  0
   11.8818    9.8111    2.9168 C   0  0  0  0  0  0  0  0  0  0  0  0
  1  2  1  0
  2  3  1  0
  2  4  1  0
  4  5  1  0
  5  6  1  0
  6  7  1  0
  7  8  1  0
  8  9  2  0
  8 10  1  0
 10 11  1  0
 11 12  2  0
 12 13  1  0
 13 14  2  0
 14 15  1  0
 15 16  2  0
  7 17  1  0
 17 18  1  0
 18  4  1  0
 16 11  1  0
M  CHG  1   3   1
M  END
>  <EmbedRMS>  (110) 
0.16489371128598093

>  <Gold.Version>  (110) 
2020.3.0

>  <Gold.Id.Protein>  (110) 
unknown|1q8t_protein|pdb

>  <Gold.PLP.Fitness>  (110) 
51.7969

>  <Gold.PLP.PLP>  (110) 
-44.4376

>  <Gold.PLP.part.hbond>  (110) 
-2.0000

>  <Gold.PLP.part.metal>  (110) 
0.0000

>  <Gold.PLP.part.buried>  (110) 
-2.0199

>  <Gold.PLP.part.nonpolar>  (110) 
-40.4940

>  <Gold.PLP.part.repulsive>  (110) 
0.0652

>  <Gold.PLP.ligand.clash>  (110) 
0.0000

>  <Gold.PLP.ligand.torsion>  (110) 
1.4517

>  <Gold.PLP.Chemscore.Hbond>  (110) 
3.0000

>  <Gold.PLP.Chemscore.CHOScore>  (110) 
0.2258

>  <Gold.PLP.Chemscore.Metal>  (110) 
0.0000

>  <Gold.Chemscore.Hbonds>  (110) 
donor molecule, donor type, donor heavy atom, donor atom, acceptor molecule, acceptor atom, score
      L1  H     3    24       P1  2691  1.00
      L1  H     3    25       P1  2902  2.00
      L1  C    15    36       P1  1855  0.23

>  <Gold.PLP.Chemscore.Internal.Correction>  (110) 
0.5852

>  <Gold.PLP.Constraint>  (110) 
-0.0000

>  <Gold.Protein.RotatedTorsions>  (110) 
[  681  677  676  673 ] final  -41.03 input -179.99 | X-H torsion
[  702  698  697  694 ] final  -69.05 input  179.99 | X-H torsion
[ 2577 2569 2568 2566 ] final -175.70 input   -0.13 | X-H torsion
[ 2891 2887 2886 2883 ] final   54.03 input  179.98 | X-H torsion
[ 3175 3171 3170 3167 ] final -153.37 input -179.99 | X-H torsion
[ 5278 5270 5269 5267 ] final  137.62 input    0.55 | X-H torsion
[  641  637  636  633 ] final  150.89 input  179.99 | X-H torsion
[ 1886 1878 1877 1875 ] final  154.65 input    1.60 | X-H torsion
[  965  957  956  954 ] final  151.53 input    0.45 | X-H torsion

>  <Gold.Protein.ActiveResidues>  (110) 
 LYS47   THR48   LEU49   GLY50   THR51   GLY52   SER53   PHE54   GLY55   ARG56  
 VAL57   MET58   LEU59   TYR69   ALA70   MET71   LYS72   ILE73   LEU74   GLU91  
 LEU95   VAL104  LYS105  MET118  VAL119  MET120  GLU121  TYR122  VAL123  PRO124 
 GLY125  GLY126  GLU127  MET128  PHE129  TYR164  ASP166  LEU167  LYS168  PRO169 
 GLU170  ASN171  LEU172  LEU173  ILE174  GLN181  VAL182  THR183  ASP184  PHE185 
 GLY186  PHE187  GLY200  THR201  ASN326  PHE327  TYR330  ARG18   ARG19   ASN20  
 ALA21   ILE22   HIS23  

>  <Gold.Protein.RotatedAtoms>  (110) 
   11.1688   19.5700    8.5780 H   0  0  0  0  0  0  0  0  0  0  0  0  # atno 641  bound_to 637 
   15.6166   12.9585    6.9307 H   0  0  0  0  0  0  0  0  0  0  0  0  # atno 681  bound_to 677 
   20.4219   11.6537   -0.2604 H   0  0  0  0  0  0  0  0  0  0  0  0  # atno 702  bound_to 698 
   -7.0540   16.9217   -0.2334 H   0  0  0  0  0  0  0  0  0  0  0  0  # atno 965  bound_to 957 
    0.7718   11.9040   11.0604 H   0  0  0  0  0  0  0  0  0  0  0  0  # atno 1886 bound_to 1878
   10.6537    2.0289   -2.4435 H   0  0  0  0  0  0  0  0  0  0  0  0  # atno 2577 bound_to 2569
    8.3425    6.1946    0.2402 H   0  0  0  0  0  0  0  0  0  0  0  0  # atno 2891 bound_to 2887
   18.4462    2.4514    0.3569 H   0  0  0  0  0  0  0  0  0  0  0  0  # atno 3175 bound_to 3171
   14.0151   10.2108    8.8838 H   0  0  0  0  0  0  0  0  0  0  0  0  # atno 5278 bound_to 5270
   16.7950   13.9834    7.2423 LP  0  0  0  0  0  0  0  0  0  0  0  0  # atno 5914 bound_to 677 
   16.9422   12.8749    6.0522 LP  0  0  0  0  0  0  0  0  0  0  0  0  # atno 5915 bound_to 677 
   20.9156   11.5786   -1.7731 LP  0  0  0  0  0  0  0  0  0  0  0  0  # atno 5920 bound_to 698 
   19.3450   11.8501   -1.4176 LP  0  0  0  0  0  0  0  0  0  0  0  0  # atno 5921 bound_to 698 
    9.2365    2.5833   -2.9119 LP  0  0  0  0  0  0  0  0  0  0  0  0  # atno 5950 bound_to 2569
   10.6165    3.3447   -3.3395 LP  0  0  0  0  0  0  0  0  0  0  0  0  # atno 5951 bound_to 2569
    7.4316    5.1949    1.0813 LP  0  0  0  0  0  0  0  0  0  0  0  0  # atno 5982 bound_to 2887
    7.4632    6.7906    1.4269 LP  0  0  0  0  0  0  0  0  0  0  0  0  # atno 5983 bound_to 2887
   18.1048    2.0245   -1.1387 LP  0  0  0  0  0  0  0  0  0  0  0  0  # atno 6000 bound_to 3171
   19.3706    3.0043   -0.8158 LP  0  0  0  0  0  0  0  0  0  0  0  0  # atno 6001 bound_to 3171
   12.5887   10.0110    9.5637 LP  0  0  0  0  0  0  0  0  0  0  0  0  # atno 6004 bound_to 5270
   13.9618    9.8128   10.4251 LP  0  0  0  0  0  0  0  0  0  0  0  0  # atno 6005 bound_to 5270
    9.5936   19.5586    8.3469 LP  0  0  0  0  0  0  0  0  0  0  0  0  # atno 6055 bound_to 637 
   10.6083   18.9322    7.2312 LP  0  0  0  0  0  0  0  0  0  0  0  0  # atno 6056 bound_to 637 
    2.2318   11.8532   10.4270 LP  0  0  0  0  0  0  0  0  0  0  0  0  # atno 6063 bound_to 1878
    1.3410   10.4941   10.5879 LP  0  0  0  0  0  0  0  0  0  0  0  0  # atno 6064 bound_to 1878
   -6.9405   15.3664   -0.5549 LP  0  0  0  0  0  0  0  0  0  0  0  0  # atno 6067 bound_to 957 
   -6.4383   16.4837   -1.6348 LP  0  0  0  0  0  0  0  0  0  0  0  0  # atno 6068 bound_to 957 

>  <STRIFE_LigEff_Score>  (110) 
2.8776055555555557

$$$$
unknown|pharmsElabsTestPreDocking|sdf|111|dock6
     RDKit          3D

 18 19  0  0  0  0  0  0  0  0999 V2000
   14.4730    9.2699    1.2552 C   0  0  0  0  0  0  0  0  0  0  0  0
   13.6615    8.0489    1.6544 C   0  0  0  0  0  0  0  0  0  0  0  0
   13.9647    6.8385    0.8986 N   0  0  0  0  0  0  0  0  0  0  0  0
   12.1737    8.2891    2.0547 C   0  0  0  0  0  0  0  0  0  0  0  0
   11.4795    7.2149    2.9065 C   0  0  0  0  0  0  0  0  0  0  0  0
    9.9495    7.3983    2.8914 C   0  0  0  0  0  0  0  0  0  0  0  0
    9.4913    8.8342    2.6243 C   0  0  0  0  0  0  0  0  0  0  0  0
    8.0152    9.0498    2.7511 C   0  0  0  0  0  0  0  0  0  0  0  0
    7.4796    9.4426    1.6919 O   0  0  0  0  0  0  0  0  0  0  0  0
    7.2188    8.8426    3.9408 N   0  0  0  0  0  0  0  0  0  0  0  0
    5.8057    9.1853    4.0584 C   0  0  0  0  0  0  0  0  0  0  0  0
    5.3304    9.7468    5.2593 C   0  0  0  0  0  0  0  0  0  0  0  0
    3.9807   10.0998    5.4022 C   0  0  0  0  0  0  0  0  0  0  0  0
    3.0819    9.8902    4.3555 C   0  0  0  0  0  0  0  0  0  0  0  0
    3.5279    9.3395    3.1613 C   0  0  0  0  0  0  0  0  0  0  0  0
    4.8687    9.0037    3.0039 C   0  0  0  0  0  0  0  0  0  0  0  0
   10.4175   10.0085    2.8781 C   0  0  0  0  0  0  0  0  0  0  0  0
   11.9114    9.6840    2.6624 C   0  0  0  0  0  0  0  0  0  0  0  0
  1  2  1  0
  2  3  1  0
  2  4  1  0
  4  5  1  0
  5  6  1  0
  6  7  1  0
  7  8  1  0
  8  9  2  0
  8 10  1  0
 10 11  1  0
 11 12  2  0
 12 13  1  0
 13 14  2  0
 14 15  1  0
 15 16  2  0
  7 17  1  0
 17 18  1  0
 18  4  1  0
 16 11  1  0
M  CHG  1   3   1
M  END
>  <EmbedRMS>  (111) 
0.24964892458419108

>  <Gold.Version>  (111) 
2020.3.0

>  <Gold.Id.Protein>  (111) 
unknown|1q8t_protein|pdb

>  <Gold.PLP.Fitness>  (111) 
54.9126

>  <Gold.PLP.PLP>  (111) 
-47.2153

>  <Gold.PLP.part.hbond>  (111) 
-1.9815

>  <Gold.PLP.part.metal>  (111) 
0.0000

>  <Gold.PLP.part.buried>  (111) 
-1.1839

>  <Gold.PLP.part.nonpolar>  (111) 
-44.9952

>  <Gold.PLP.part.repulsive>  (111) 
0.0871

>  <Gold.PLP.ligand.clash>  (111) 
0.0000

>  <Gold.PLP.ligand.torsion>  (111) 
0.9883

>  <Gold.PLP.Chemscore.Hbond>  (111) 
2.9120

>  <Gold.PLP.Chemscore.CHOScore>  (111) 
0.0000

>  <Gold.PLP.Chemscore.Metal>  (111) 
0.0000

>  <Gold.Chemscore.Hbonds>  (111) 
donor molecule, donor type, donor heavy atom, donor atom, acceptor molecule, acceptor atom, score
      L1  H     3    23       P1  2691  0.91
      L1  H     3    25       P1  2902  2.00

>  <Gold.PLP.Chemscore.Internal.Correction>  (111) 
0.9378

>  <Gold.PLP.Constraint>  (111) 
-0.0000

>  <Gold.Protein.RotatedTorsions>  (111) 
[  681  677  676  673 ] final -102.72 input -179.99 | X-H torsion
[  702  698  697  694 ] final  145.95 input  179.99 | X-H torsion
[ 2577 2569 2568 2566 ] final  -34.28 input   -0.13 | X-H torsion
[ 2891 2887 2886 2883 ] final  138.35 input  179.98 | X-H torsion
[ 3175 3171 3170 3167 ] final  -37.54 input -179.99 | X-H torsion
[ 5278 5270 5269 5267 ] final -155.65 input    0.55 | X-H torsion
[  641  637  636  633 ] final  156.74 input  179.99 | X-H torsion
[ 1886 1878 1877 1875 ] final   57.72 input    1.60 | X-H torsion
[  965  957  956  954 ] final  -73.58 input    0.45 | X-H torsion

>  <Gold.Protein.ActiveResidues>  (111) 
 LYS47   THR48   LEU49   GLY50   THR51   GLY52   SER53   PHE54   GLY55   ARG56  
 VAL57   MET58   LEU59   TYR69   ALA70   MET71   LYS72   ILE73   LEU74   GLU91  
 LEU95   VAL104  LYS105  MET118  VAL119  MET120  GLU121  TYR122  VAL123  PRO124 
 GLY125  GLY126  GLU127  MET128  PHE129  TYR164  ASP166  LEU167  LYS168  PRO169 
 GLU170  ASN171  LEU172  LEU173  ILE174  GLN181  VAL182  THR183  ASP184  PHE185 
 GLY186  PHE187  GLY200  THR201  ASN326  PHE327  TYR330  ARG18   ARG19   ASN20  
 ALA21   ILE22   HIS23  

>  <Gold.Protein.RotatedAtoms>  (111) 
   11.2219   19.5339    8.5131 H   0  0  0  0  0  0  0  0  0  0  0  0  # atno 641  bound_to 637 
   15.9745   13.6597    7.4041 H   0  0  0  0  0  0  0  0  0  0  0  0  # atno 681  bound_to 677 
   20.5721   11.6600   -1.9634 H   0  0  0  0  0  0  0  0  0  0  0  0  # atno 702  bound_to 698 
   -6.4349   16.2419   -1.6079 H   0  0  0  0  0  0  0  0  0  0  0  0  # atno 965  bound_to 957 
    1.9966   12.1097   10.5555 H   0  0  0  0  0  0  0  0  0  0  0  0  # atno 1886 bound_to 1878
   10.2779    3.3696   -3.4020 H   0  0  0  0  0  0  0  0  0  0  0  0  # atno 2577 bound_to 2569
    7.8241    6.9480    1.0212 H   0  0  0  0  0  0  0  0  0  0  0  0  # atno 2891 bound_to 2887
   19.3550    2.9813   -0.7370 H   0  0  0  0  0  0  0  0  0  0  0  0  # atno 3175 bound_to 3171
   14.4139    9.9988    9.7599 H   0  0  0  0  0  0  0  0  0  0  0  0  # atno 5278 bound_to 5270
   17.3002   13.5760    6.5255 LP  0  0  0  0  0  0  0  0  0  0  0  0  # atno 5914 bound_to 677 
   16.0603   12.5443    6.2707 LP  0  0  0  0  0  0  0  0  0  0  0  0  # atno 5915 bound_to 677 
   19.3092   11.8486   -1.0110 LP  0  0  0  0  0  0  0  0  0  0  0  0  # atno 5920 bound_to 698 
   20.7935   11.5735   -0.3883 LP  0  0  0  0  0  0  0  0  0  0  0  0  # atno 5921 bound_to 698 
   10.9342    2.2110   -2.5290 LP  0  0  0  0  0  0  0  0  0  0  0  0  # atno 5950 bound_to 2569
    9.3144    2.3054   -2.7132 LP  0  0  0  0  0  0  0  0  0  0  0  0  # atno 5951 bound_to 2569
    8.2578    5.6357    0.2299 LP  0  0  0  0  0  0  0  0  0  0  0  0  # atno 5982 bound_to 2887
    7.1826    5.5568    1.4564 LP  0  0  0  0  0  0  0  0  0  0  0  0  # atno 5983 bound_to 2887
   18.3729    2.4226    0.3850 LP  0  0  0  0  0  0  0  0  0  0  0  0  # atno 6000 bound_to 3171
   18.1460    2.0485   -1.1883 LP  0  0  0  0  0  0  0  0  0  0  0  0  # atno 6001 bound_to 3171
   13.2002   10.2176    8.7520 LP  0  0  0  0  0  0  0  0  0  0  0  0  # atno 6004 bound_to 5270
   12.9307    9.8292   10.3150 LP  0  0  0  0  0  0  0  0  0  0  0  0  # atno 6005 bound_to 5270
    9.6333   19.5967    8.4258 LP  0  0  0  0  0  0  0  0  0  0  0  0  # atno 6055 bound_to 637 
   10.5126   18.9322    7.2208 LP  0  0  0  0  0  0  0  0  0  0  0  0  # atno 6056 bound_to 637 
    1.6857   10.5519   10.4458 LP  0  0  0  0  0  0  0  0  0  0  0  0  # atno 6063 bound_to 1878
    0.5979   11.5789   11.1005 LP  0  0  0  0  0  0  0  0  0  0  0  0  # atno 6064 bound_to 1878
   -6.9988   17.0991   -0.3904 LP  0  0  0  0  0  0  0  0  0  0  0  0  # atno 6067 bound_to 957 
   -7.0320   15.4669   -0.3517 LP  0  0  0  0  0  0  0  0  0  0  0  0  # atno 6068 bound_to 957 

>  <STRIFE_LigEff_Score>  (111) 
3.0507

$$$$
unknown|pharmsElabsTestPreDocking|sdf|112|dock7
     RDKit          3D

 17 18  0  0  0  0  0  0  0  0999 V2000
   14.1353    9.7472    1.1005 C   0  0  0  0  0  0  0  0  0  0  0  0
   13.6437    8.4913    1.8199 C   0  0  0  0  0  0  0  0  0  0  0  0
   13.5763    7.3494    0.8978 N   0  0  0  0  0  0  0  0  0  0  0  0
   12.3842    8.6048    2.7013 C   0  0  0  0  0  0  0  0  0  0  0  0
   11.4541    7.3742    2.8742 C   0  0  0  0  0  0  0  0  0  0  0  0
   10.0030    7.5854    2.4680 C   0  0  0  0  0  0  0  0  0  0  0  0
    9.4598    8.9105    2.9990 C   0  0  0  0  0  0  0  0  0  0  0  0
    7.9879    9.0273    2.7099 C   0  0  0  0  0  0  0  0  0  0  0  0
    7.5745    8.9341    1.5220 O   0  0  0  0  0  0  0  0  0  0  0  0
    7.0774    9.2682    3.7920 N   0  0  0  0  0  0  0  0  0  0  0  0
    5.6538    9.3821    3.6724 C   0  0  0  0  0  0  0  0  0  0  0  0
    4.8822    9.1706    2.5402 C   0  0  0  0  0  0  0  0  0  0  0  0
    3.5959    9.4172    2.9668 C   0  0  0  0  0  0  0  0  0  0  0  0
    3.6231    9.7510    4.2691 N   0  0  0  0  0  0  0  0  0  0  0  0
    4.8696    9.7330    4.7082 N   0  0  0  0  0  0  0  0  0  0  0  0
   10.2193   10.0589    2.3437 C   0  0  0  0  0  0  0  0  0  0  0  0
   11.7137   10.0120    2.6560 C   0  0  0  0  0  0  0  0  0  0  0  0
  1  2  1  0
  2  3  1  0
  2  4  1  0
  4  5  1  0
  5  6  1  0
  6  7  1  0
  7  8  1  0
  8  9  2  0
  8 10  1  0
 10 11  1  0
 11 12  1  0
 12 13  2  0
 13 14  1  0
 14 15  1  0
  7 16  1  0
 16 17  1  0
 17  4  1  0
 15 11  2  0
M  CHG  1   3   1
M  END
>  <EmbedRMS>  (112) 
0.20783527019262546

>  <Gold.Version>  (112) 
2020.3.0

>  <Gold.Id.Protein>  (112) 
unknown|1q8t_protein|pdb

>  <Gold.PLP.Fitness>  (112) 
46.6117

>  <Gold.PLP.PLP>  (112) 
-34.5268

>  <Gold.PLP.part.hbond>  (112) 
-3.0000

>  <Gold.PLP.part.metal>  (112) 
0.0000

>  <Gold.PLP.part.buried>  (112) 
-6.6020

>  <Gold.PLP.part.nonpolar>  (112) 
-26.0598

>  <Gold.PLP.part.repulsive>  (112) 
0.1504

>  <Gold.PLP.ligand.clash>  (112) 
0.0000

>  <Gold.PLP.ligand.torsion>  (112) 
1.2568

>  <Gold.PLP.Chemscore.Hbond>  (112) 
3.7360

>  <Gold.PLP.Chemscore.CHOScore>  (112) 
1.0000

>  <Gold.PLP.Chemscore.Metal>  (112) 
0.0000

>  <Gold.Chemscore.Hbonds>  (112) 
donor molecule, donor type, donor heavy atom, donor atom, acceptor molecule, acceptor atom, score
      L1  H     3    22       P1  2691  0.74
      L1  H     3    24       P1  2902  2.00
      P1  H  2887  2891       L1     9  1.00
      L1  C    13    33       P1  1855  1.00

>  <Gold.PLP.Chemscore.Internal.Correction>  (112) 
0.3905

>  <Gold.PLP.Constraint>  (112) 
-0.0000

>  <Gold.Protein.RotatedTorsions>  (112) 
[  681  677  676  673 ] final  143.75 input -179.99 | X-H torsion
[  702  698  697  694 ] final   23.24 input  179.99 | X-H torsion
[ 2577 2569 2568 2566 ] final   69.98 input   -0.13 | X-H torsion
[ 2891 2887 2886 2883 ] final  150.46 input  179.98 | X-H torsion
[ 3175 3171 3170 3167 ] final -172.35 input -179.99 | X-H torsion
[ 5278 5270 5269 5267 ] final    3.49 input    0.55 | X-H torsion
[  641  637  636  633 ] final -158.62 input  179.99 | X-H torsion
[ 1886 1878 1877 1875 ] final   41.49 input    1.60 | X-H torsion
[  965  957  956  954 ] final  176.51 input    0.45 | X-H torsion

>  <Gold.Protein.ActiveResidues>  (112) 
 LYS47   THR48   LEU49   GLY50   THR51   GLY52   SER53   PHE54   GLY55   ARG56  
 VAL57   MET58   LEU59   TYR69   ALA70   MET71   LYS72   ILE73   LEU74   GLU91  
 LEU95   VAL104  LYS105  MET118  VAL119  MET120  GLU121  TYR122  VAL123  PRO124 
 GLY125  GLY126  GLU127  MET128  PHE129  TYR164  ASP166  LEU167  LYS168  PRO169 
 GLU170  ASN171  LEU172  LEU173  ILE174  GLN181  VAL182  THR183  ASP184  PHE185 
 GLY186  PHE187  GLY200  THR201  ASN326  PHE327  TYR330  ARG18   ARG19   ASN20  
 ALA21   ILE22   HIS23  

>  <Gold.Protein.RotatedAtoms>  (112) 
   11.3433   19.2242    7.9199 H   0  0  0  0  0  0  0  0  0  0  0  0  # atno 641  bound_to 637 
   17.2389   13.6389    6.6001 H   0  0  0  0  0  0  0  0  0  0  0  0  # atno 681  bound_to 677 
   19.3639   11.8551   -0.9750 H   0  0  0  0  0  0  0  0  0  0  0  0  # atno 702  bound_to 698 
   -6.9146   17.1193   -0.5357 H   0  0  0  0  0  0  0  0  0  0  0  0  # atno 965  bound_to 957 
    2.1408   11.9250   10.4604 H   0  0  0  0  0  0  0  0  0  0  0  0  # atno 1886 bound_to 1878
    9.2925    2.5045   -2.8735 H   0  0  0  0  0  0  0  0  0  0  0  0  # atno 2577 bound_to 2569
    7.6987    6.9193    1.1596 H   0  0  0  0  0  0  0  0  0  0  0  0  # atno 2891 bound_to 2887
   18.2311    2.2783    0.2518 H   0  0  0  0  0  0  0  0  0  0  0  0  # atno 3175 bound_to 3171
   12.6518    9.9746    9.7834 H   0  0  0  0  0  0  0  0  0  0  0  0  # atno 5278 bound_to 5270
   16.1502   12.5428    6.2135 LP  0  0  0  0  0  0  0  0  0  0  0  0  # atno 5914 bound_to 677 
   15.8795   13.5994    7.4288 LP  0  0  0  0  0  0  0  0  0  0  0  0  # atno 5915 bound_to 677 
   20.8277   11.5680   -0.4163 LP  0  0  0  0  0  0  0  0  0  0  0  0  # atno 5920 bound_to 698 
   20.5459   11.6489   -2.0227 LP  0  0  0  0  0  0  0  0  0  0  0  0  # atno 5921 bound_to 698 
   10.5320    3.3742   -3.3662 LP  0  0  0  0  0  0  0  0  0  0  0  0  # atno 5950 bound_to 2569
   10.7543    2.0530   -2.4325 LP  0  0  0  0  0  0  0  0  0  0  0  0  # atno 5951 bound_to 2569
    8.3264    5.8189    0.1943 LP  0  0  0  0  0  0  0  0  0  0  0  0  # atno 5982 bound_to 2887
    7.2460    5.4038    1.3463 LP  0  0  0  0  0  0  0  0  0  0  0  0  # atno 5983 bound_to 2887
   18.3110    2.1518   -1.3335 LP  0  0  0  0  0  0  0  0  0  0  0  0  # atno 6000 bound_to 3171
   19.3907    3.0592   -0.5105 LP  0  0  0  0  0  0  0  0  0  0  0  0  # atno 6001 bound_to 3171
   14.1534    9.8460   10.2987 LP  0  0  0  0  0  0  0  0  0  0  0  0  # atno 6004 bound_to 5270
   13.8316   10.2262    8.7435 LP  0  0  0  0  0  0  0  0  0  0  0  0  # atno 6005 bound_to 5270
   10.1788   19.7832    8.8507 LP  0  0  0  0  0  0  0  0  0  0  0  0  # atno 6055 bound_to 637 
    9.8392   19.0719    7.4206 LP  0  0  0  0  0  0  0  0  0  0  0  0  # atno 6056 bound_to 637 
    1.4442   10.4956   10.5427 LP  0  0  0  0  0  0  0  0  0  0  0  0  # atno 6063 bound_to 1878
    0.6875   11.8295   11.1038 LP  0  0  0  0  0  0  0  0  0  0  0  0  # atno 6064 bound_to 1878
   -7.0862   15.5660   -0.2306 LP  0  0  0  0  0  0  0  0  0  0  0  0  # atno 6067 bound_to 957 
   -6.4395   16.0760   -1.6407 LP  0  0  0  0  0  0  0  0  0  0  0  0  # atno 6068 bound_to 957 

>  <STRIFE_LigEff_Score>  (112) 
2.741864705882353

$$$$
unknown|pharmsElabsTestPreDocking|sdf|113|dock3
     RDKit          3D

 17 17  0  0  0  0  0  0  0  0999 V2000
    3.5388    8.5974    1.9781 C   0  0  0  0  0  0  0  0  0  0  0  0
    4.7284    9.1999    2.0431 C   0  0  0  0  0  0  0  0  0  0  0  0
    5.5625    9.3448    3.2612 C   0  0  0  0  0  0  0  0  0  0  0  0
    5.0188    9.8580    4.3914 C   0  0  0  0  0  0  0  0  0  0  0  0
    5.7868   10.1112    5.6528 C   0  0  0  0  0  0  0  0  0  0  0  0
    6.9856    9.0666    3.2288 N   0  0  0  0  0  0  0  0  0  0  0  0
    8.0061    9.2547    2.2201 C   0  0  0  0  0  0  0  0  0  0  0  0
    7.6562    9.8331    1.1592 O   0  0  0  0  0  0  0  0  0  0  0  0
    9.4750    8.9340    2.2720 C   0  0  0  0  0  0  0  0  0  0  0  0
    9.7873    7.4783    2.5750 C   0  0  0  0  0  0  0  0  0  0  0  0
   11.2418    7.1107    2.3650 C   0  0  0  0  0  0  0  0  0  0  0  0
   12.2976    8.1757    2.6783 C   0  0  0  0  0  0  0  0  0  0  0  0
   13.6537    7.8990    1.9833 C   0  0  0  0  0  0  0  0  0  0  0  0
   14.5983    9.0758    1.7386 C   0  0  0  0  0  0  0  0  0  0  0  0
   13.5169    7.0432    0.8038 N   0  0  0  0  0  0  0  0  0  0  0  0
   11.8831    9.6523    2.4633 C   0  0  0  0  0  0  0  0  0  0  0  0
   10.4267   10.0066    2.7324 C   0  0  0  0  0  0  0  0  0  0  0  0
  1  2  2  0
  2  3  1  0
  3  4  2  0
  4  5  1  0
  3  6  1  0
  6  7  1  0
  7  8  2  0
  7  9  1  0
  9 10  1  0
 10 11  1  0
 11 12  1  0
 12 13  1  0
 13 14  1  0
 13 15  1  0
 12 16  1  0
 16 17  1  0
 17  9  1  0
M  CHG  1  15   1
M  END
>  <EmbedRMS>  (113) 
0.29216731409503444

>  <Gold.Version>  (113) 
2020.3.0

>  <Gold.Id.Protein>  (113) 
unknown|1q8t_protein|pdb

>  <Gold.PLP.Fitness>  (113) 
44.9983

>  <Gold.PLP.PLP>  (113) 
-39.1968

>  <Gold.PLP.part.hbond>  (113) 
-1.8721

>  <Gold.PLP.part.metal>  (113) 
0.0000

>  <Gold.PLP.part.buried>  (113) 
-2.0239

>  <Gold.PLP.part.nonpolar>  (113) 
-35.2505

>  <Gold.PLP.part.repulsive>  (113) 
0.0597

>  <Gold.PLP.ligand.clash>  (113) 
0.0000

>  <Gold.PLP.ligand.torsion>  (113) 
2.0607

>  <Gold.PLP.Chemscore.Hbond>  (113) 
3.0000

>  <Gold.PLP.Chemscore.CHOScore>  (113) 
0.0000

>  <Gold.PLP.Chemscore.Metal>  (113) 
0.0000

>  <Gold.Chemscore.Hbonds>  (113) 
donor molecule, donor type, donor heavy atom, donor atom, acceptor molecule, acceptor atom, score
      L1  H    15    37       P1  2902  2.00
      L1  H    15    38       P1  2691  1.00

>  <Gold.PLP.Chemscore.Internal.Correction>  (113) 
0.9231

>  <Gold.PLP.Constraint>  (113) 
-0.0000

>  <Gold.Protein.RotatedTorsions>  (113) 
[  681  677  676  673 ] final  -99.23 input -179.99 | X-H torsion
[  702  698  697  694 ] final  -90.95 input  179.99 | X-H torsion
[ 2577 2569 2568 2566 ] final  -97.87 input   -0.13 | X-H torsion
[ 2891 2887 2886 2883 ] final  -26.17 input  179.98 | X-H torsion
[ 3175 3171 3170 3167 ] final   -5.92 input -179.99 | X-H torsion
[ 5278 5270 5269 5267 ] final -114.84 input    0.55 | X-H torsion
[  641  637  636  633 ] final  -26.93 input  179.99 | X-H torsion
[ 1886 1878 1877 1875 ] final   42.98 input    1.60 | X-H torsion
[  965  957  956  954 ] final    6.27 input    0.45 | X-H torsion

>  <Gold.Protein.ActiveResidues>  (113) 
 LYS47   THR48   LEU49   GLY50   THR51   GLY52   SER53   PHE54   GLY55   ARG56  
 VAL57   MET58   LEU59   TYR69   ALA70   MET71   LYS72   ILE73   LEU74   GLU91  
 LEU95   VAL104  LYS105  MET118  VAL119  MET120  GLU121  TYR122  VAL123  PRO124 
 GLY125  GLY126  GLU127  MET128  PHE129  TYR164  ASP166  LEU167  LYS168  PRO169 
 GLU170  ASN171  LEU172  LEU173  ILE174  GLN181  VAL182  THR183  ASP184  PHE185 
 GLY186  PHE187  GLY200  THR201  ASN326  PHE327  TYR330  ARG18   ARG19   ASN20  
 ALA21   ILE22   HIS23  

>  <Gold.Protein.RotatedAtoms>  (113) 
    9.7480   19.1387    7.5778 H   0  0  0  0  0  0  0  0  0  0  0  0  # atno 641  bound_to 637 
   15.9340   13.6245    7.3943 H   0  0  0  0  0  0  0  0  0  0  0  0  # atno 681  bound_to 677 
   20.7298   11.6018   -0.3963 H   0  0  0  0  0  0  0  0  0  0  0  0  # atno 702  bound_to 698 
   -6.7581   15.3831   -0.9160 H   0  0  0  0  0  0  0  0  0  0  0  0  # atno 965  bound_to 957 
    2.1298   11.9439   10.4684 H   0  0  0  0  0  0  0  0  0  0  0  0  # atno 1886 bound_to 1878
   11.0180    2.9156   -3.0325 H   0  0  0  0  0  0  0  0  0  0  0  0  # atno 2577 bound_to 2569
    7.8320    5.2236    0.5989 H   0  0  0  0  0  0  0  0  0  0  0  0  # atno 2891 bound_to 2887
   19.1842    2.7999   -1.1566 H   0  0  0  0  0  0  0  0  0  0  0  0  # atno 3175 bound_to 3171
   14.1024    9.8661   10.2850 H   0  0  0  0  0  0  0  0  0  0  0  0  # atno 5278 bound_to 5270
   17.2949   13.6150    6.5674 LP  0  0  0  0  0  0  0  0  0  0  0  0  # atno 5914 bound_to 677 
   16.1083   12.5423    6.2391 LP  0  0  0  0  0  0  0  0  0  0  0  0  # atno 5915 bound_to 677 
   20.6326   11.6328   -1.9860 LP  0  0  0  0  0  0  0  0  0  0  0  0  # atno 5920 bound_to 698 
   19.3041   11.8505   -1.0618 LP  0  0  0  0  0  0  0  0  0  0  0  0  # atno 5921 bound_to 698 
   10.0134    1.8765   -2.3642 LP  0  0  0  0  0  0  0  0  0  0  0  0  # atno 5950 bound_to 2569
    9.4561    3.1179   -3.2670 LP  0  0  0  0  0  0  0  0  0  0  0  0  # atno 5951 bound_to 2569
    7.1794    6.2507    1.6263 LP  0  0  0  0  0  0  0  0  0  0  0  0  # atno 5982 bound_to 2887
    8.2526    6.7567    0.5044 LP  0  0  0  0  0  0  0  0  0  0  0  0  # atno 5983 bound_to 2887
   18.7857    2.7282    0.3834 LP  0  0  0  0  0  0  0  0  0  0  0  0  # atno 6000 bound_to 3171
   17.9129    1.9339   -0.7452 LP  0  0  0  0  0  0  0  0  0  0  0  0  # atno 6001 bound_to 3171
   13.8576   10.2243    8.7525 LP  0  0  0  0  0  0  0  0  0  0  0  0  # atno 6004 bound_to 5270
   12.6011    9.9622    9.7620 LP  0  0  0  0  0  0  0  0  0  0  0  0  # atno 6005 bound_to 5270
   11.3318   19.1519    7.7406 LP  0  0  0  0  0  0  0  0  0  0  0  0  # atno 6055 bound_to 637 
   10.3664   19.7932    8.8909 LP  0  0  0  0  0  0  0  0  0  0  0  0  # atno 6056 bound_to 637 
    1.4666   10.4977   10.5331 LP  0  0  0  0  0  0  0  0  0  0  0  0  # atno 6063 bound_to 1878
    0.6766   11.8076   11.1048 LP  0  0  0  0  0  0  0  0  0  0  0  0  # atno 6064 bound_to 1878
   -6.5097   16.8550   -1.4701 LP  0  0  0  0  0  0  0  0  0  0  0  0  # atno 6067 bound_to 957 
   -7.1808   16.6155   -0.0008 LP  0  0  0  0  0  0  0  0  0  0  0  0  # atno 6068 bound_to 957 

>  <STRIFE_LigEff_Score>  (113) 
2.646958823529412

$$$$
unknown|pharmsElabsTestPreDocking|sdf|114|dock2
     RDKit          3D

 18 19  0  0  0  0  0  0  0  0999 V2000
   14.7601    8.0157    3.2696 C   0  0  0  0  0  0  0  0  0  0  0  0
   13.7583    8.1772    2.1137 C   0  0  0  0  0  0  0  0  0  0  0  0
   13.9810    7.1370    1.1050 N   0  0  0  0  0  0  0  0  0  0  0  0
   12.2454    8.3126    2.5156 C   0  0  0  0  0  0  0  0  0  0  0  0
   11.2889    7.5364    1.6118 C   0  0  0  0  0  0  0  0  0  0  0  0
    9.8215    7.6098    2.0074 C   0  0  0  0  0  0  0  0  0  0  0  0
    9.3931    8.9892    2.4498 C   0  0  0  0  0  0  0  0  0  0  0  0
    7.9023    9.1609    2.5592 C   0  0  0  0  0  0  0  0  0  0  0  0
    7.3594    9.5860    1.5112 O   0  0  0  0  0  0  0  0  0  0  0  0
    7.0866    8.8830    3.7201 N   0  0  0  0  0  0  0  0  0  0  0  0
    5.6665    9.1905    3.7508 C   0  0  0  0  0  0  0  0  0  0  0  0
    5.0194    9.5016    4.9561 C   0  0  0  0  0  0  0  0  0  0  0  0
    3.6895    9.7979    4.9509 N   0  0  0  0  0  0  0  0  0  0  0  0
    2.9669    9.7996    3.7999 C   0  0  0  0  0  0  0  0  0  0  0  0
    3.5999    9.4912    2.5981 C   0  0  0  0  0  0  0  0  0  0  0  0
    4.9259    9.1970    2.6032 N   0  0  0  0  0  0  0  0  0  0  0  0
   10.2715    9.7023    3.4529 C   0  0  0  0  0  0  0  0  0  0  0  0
   11.7512    9.6772    3.0347 C   0  0  0  0  0  0  0  0  0  0  0  0
  1  2  1  0
  2  3  1  0
  2  4  1  0
  4  5  1  0
  5  6  1  0
  6  7  1  0
  7  8  1  0
  8  9  2  0
  8 10  1  0
 10 11  1  0
 11 12  2  0
 12 13  1  0
 13 14  2  0
 14 15  1  0
 15 16  2  0
  7 17  1  0
 17 18  1  0
 18  4  1  0
 16 11  1  0
M  CHG  1   3   1
M  END
>  <EmbedRMS>  (114) 
0.26001469916217457

>  <Gold.Version>  (114) 
2020.3.0

>  <Gold.Id.Protein>  (114) 
unknown|1q8t_protein|pdb

>  <Gold.PLP.Fitness>  (114) 
48.8385

>  <Gold.PLP.PLP>  (114) 
-38.0185

>  <Gold.PLP.part.hbond>  (114) 
-2.0000

>  <Gold.PLP.part.metal>  (114) 
0.0000

>  <Gold.PLP.part.buried>  (114) 
-2.2069

>  <Gold.PLP.part.nonpolar>  (114) 
-33.3452

>  <Gold.PLP.part.repulsive>  (114) 
0.1645

>  <Gold.PLP.ligand.clash>  (114) 
0.0000

>  <Gold.PLP.ligand.torsion>  (114) 
1.4342

>  <Gold.PLP.Chemscore.Hbond>  (114) 
3.0000

>  <Gold.PLP.Chemscore.CHOScore>  (114) 
1.2917

>  <Gold.PLP.Chemscore.Metal>  (114) 
0.0000

>  <Gold.Chemscore.Hbonds>  (114) 
donor molecule, donor type, donor heavy atom, donor atom, acceptor molecule, acceptor atom, score
      L1  H     3    24       P1  2902  2.00
      L1  H     3    25       P1  2691  1.00
      L1  C    14    34       P1  1855  0.88
      L1  C    15    35       P1  1855  0.41

>  <Gold.PLP.Chemscore.Internal.Correction>  (114) 
0.8132

>  <Gold.PLP.Constraint>  (114) 
-0.0000

>  <Gold.Protein.RotatedTorsions>  (114) 
[  681  677  676  673 ] final  113.80 input -179.99 | X-H torsion
[  702  698  697  694 ] final  -61.32 input  179.99 | X-H torsion
[ 2577 2569 2568 2566 ] final  -18.81 input   -0.13 | X-H torsion
[ 2891 2887 2886 2883 ] final  -24.45 input  179.98 | X-H torsion
[ 3175 3171 3170 3167 ] final -149.17 input -179.99 | X-H torsion
[ 5278 5270 5269 5267 ] final  -65.43 input    0.55 | X-H torsion
[  641  637  636  633 ] final  174.71 input  179.99 | X-H torsion
[ 1886 1878 1877 1875 ] final   87.01 input    1.60 | X-H torsion
[  965  957  956  954 ] final   85.71 input    0.45 | X-H torsion

>  <Gold.Protein.ActiveResidues>  (114) 
 LYS47   THR48   LEU49   GLY50   THR51   GLY52   SER53   PHE54   GLY55   ARG56  
 VAL57   MET58   LEU59   TYR69   ALA70   MET71   LYS72   ILE73   LEU74   GLU91  
 LEU95   VAL104  LYS105  MET118  VAL119  MET120  GLU121  TYR122  VAL123  PRO124 
 GLY125  GLY126  GLU127  MET128  PHE129  TYR164  ASP166  LEU167  LYS168  PRO169 
 GLU170  ASN171  LEU172  LEU173  ILE174  GLN181  VAL182  THR183  ASP184  PHE185 
 GLY186  PHE187  GLY200  THR201  ASN326  PHE327  TYR330  ARG18   ARG19   ASN20  
 ALA21   ILE22   HIS23  

>  <Gold.Protein.RotatedAtoms>  (114) 
   11.3339   19.4124    8.2875 H   0  0  0  0  0  0  0  0  0  0  0  0  # atno 641  bound_to 637 
   17.2054   13.3008    6.2857 H   0  0  0  0  0  0  0  0  0  0  0  0  # atno 681  bound_to 677 
   20.3042   11.6742   -0.2421 H   0  0  0  0  0  0  0  0  0  0  0  0  # atno 702  bound_to 698 
   -7.1584   15.9773   -0.0238 H   0  0  0  0  0  0  0  0  0  0  0  0  # atno 965  bound_to 957 
    1.6326   12.2979   10.7480 H   0  0  0  0  0  0  0  0  0  0  0  0  # atno 1886 bound_to 1878
   10.0374    3.3568   -3.4107 H   0  0  0  0  0  0  0  0  0  0  0  0  # atno 2577 bound_to 2569
    7.8496    5.2323    0.5806 H   0  0  0  0  0  0  0  0  0  0  0  0  # atno 2891 bound_to 2887
   18.4975    2.4908    0.3675 H   0  0  0  0  0  0  0  0  0  0  0  0  # atno 3175 bound_to 3171
   13.3790    9.8126   10.4713 H   0  0  0  0  0  0  0  0  0  0  0  0  # atno 5278 bound_to 5270
   15.7829   12.6252    6.5228 LP  0  0  0  0  0  0  0  0  0  0  0  0  # atno 5914 bound_to 677 
   16.2822   13.8729    7.4504 LP  0  0  0  0  0  0  0  0  0  0  0  0  # atno 5915 bound_to 677 
   20.9935   11.5628   -1.6739 LP  0  0  0  0  0  0  0  0  0  0  0  0  # atno 5920 bound_to 698 
   19.3909   11.8443   -1.5361 LP  0  0  0  0  0  0  0  0  0  0  0  0  # atno 5921 bound_to 698 
   11.0559    2.3980   -2.6500 LP  0  0  0  0  0  0  0  0  0  0  0  0  # atno 5950 bound_to 2569
    9.4461    2.1318   -2.5831 LP  0  0  0  0  0  0  0  0  0  0  0  0  # atno 5951 bound_to 2569
    7.1727    6.2232    1.6275 LP  0  0  0  0  0  0  0  0  0  0  0  0  # atno 5982 bound_to 2887
    8.2408    6.7750    0.5225 LP  0  0  0  0  0  0  0  0  0  0  0  0  # atno 5983 bound_to 2887
   18.0663    2.0030   -1.0857 LP  0  0  0  0  0  0  0  0  0  0  0  0  # atno 6000 bound_to 3171
   19.3551    2.9845   -0.8800 LP  0  0  0  0  0  0  0  0  0  0  0  0  # atno 6001 bound_to 3171
   14.4147   10.0963    9.2950 LP  0  0  0  0  0  0  0  0  0  0  0  0  # atno 6004 bound_to 5270
   12.8052   10.1465    9.0235 LP  0  0  0  0  0  0  0  0  0  0  0  0  # atno 6005 bound_to 5270
    9.8077   19.6968    8.6409 LP  0  0  0  0  0  0  0  0  0  0  0  0  # atno 6055 bound_to 637 
   10.2203   18.9600    7.2432 LP  0  0  0  0  0  0  0  0  0  0  0  0  # atno 6056 bound_to 637 
    2.0595   10.8228   10.3272 LP  0  0  0  0  0  0  0  0  0  0  0  0  # atno 6063 bound_to 1878
    0.6072   11.1098   11.0164 LP  0  0  0  0  0  0  0  0  0  0  0  0  # atno 6064 bound_to 1878
   -6.5304   15.6503   -1.4499 LP  0  0  0  0  0  0  0  0  0  0  0  0  # atno 6067 bound_to 957 
   -6.7384   17.1943   -0.9606 LP  0  0  0  0  0  0  0  0  0  0  0  0  # atno 6068 bound_to 957 

>  <STRIFE_LigEff_Score>  (114) 
2.7132500000000004

$$$$
unknown|pharmsElabsTestPreDocking|sdf|115|dock2
     RDKit          3D

 16 16  0  0  0  0  0  0  0  0999 V2000
   14.5101    9.4612    1.1616 C   0  0  0  0  0  0  0  0  0  0  0  0
   13.6692    8.2660    1.5770 C   0  0  0  0  0  0  0  0  0  0  0  0
   13.9255    7.0448    0.8207 N   0  0  0  0  0  0  0  0  0  0  0  0
   12.1953    8.5514    2.0001 C   0  0  0  0  0  0  0  0  0  0  0  0
   11.3770    7.3862    2.5785 C   0  0  0  0  0  0  0  0  0  0  0  0
    9.8697    7.7134    2.5845 C   0  0  0  0  0  0  0  0  0  0  0  0
    9.5473    9.2093    2.6221 C   0  0  0  0  0  0  0  0  0  0  0  0
    8.0947    9.5325    2.8088 C   0  0  0  0  0  0  0  0  0  0  0  0
    7.4858    9.8802    1.7671 O   0  0  0  0  0  0  0  0  0  0  0  0
    7.3892    9.5163    4.0605 N   0  0  0  0  0  0  0  0  0  0  0  0
    5.9966    9.9810    4.1446 C   0  0  0  0  0  0  0  0  0  0  0  0
    5.0538    9.1267    3.2859 C   0  0  0  0  0  0  0  0  0  0  0  0
    3.6285    9.0129    3.8553 C   0  0  0  0  0  0  0  0  0  0  0  0
    3.5919    9.1768    5.3156 N   0  0  0  0  0  0  0  0  0  0  0  0
   10.5710   10.2048    3.1471 C   0  0  0  0  0  0  0  0  0  0  0  0
   12.0374    9.7915    2.9028 C   0  0  0  0  0  0  0  0  0  0  0  0
  1  2  1  0
  2  3  1  0
  2  4  1  0
  4  5  1  0
  5  6  1  0
  6  7  1  0
  7  8  1  0
  8  9  2  0
  8 10  1  0
 10 11  1  0
 11 12  1  0
 12 13  1  0
 13 14  1  0
  7 15  1  0
 15 16  1  0
 16  4  1  0
M  CHG  2   3   1  14   1
M  END
>  <EmbedRMS>  (115) 
0.26685653268904913

>  <Gold.Version>  (115) 
2020.3.0

>  <Gold.Id.Protein>  (115) 
unknown|1q8t_protein|pdb

>  <Gold.PLP.Fitness>  (115) 
46.1794

>  <Gold.PLP.PLP>  (115) 
-35.0555

>  <Gold.PLP.part.hbond>  (115) 
-3.0000

>  <Gold.PLP.part.metal>  (115) 
0.0000

>  <Gold.PLP.part.buried>  (115) 
-5.6805

>  <Gold.PLP.part.nonpolar>  (115) 
-27.2806

>  <Gold.PLP.part.repulsive>  (115) 
0.1673

>  <Gold.PLP.ligand.clash>  (115) 
0.0000

>  <Gold.PLP.ligand.torsion>  (115) 
0.9657

>  <Gold.PLP.Chemscore.Hbond>  (115) 
3.9920

>  <Gold.PLP.Chemscore.CHOScore>  (115) 
0.0000

>  <Gold.PLP.Chemscore.Metal>  (115) 
0.0000

>  <Gold.Chemscore.Hbonds>  (115) 
donor molecule, donor type, donor heavy atom, donor atom, acceptor molecule, acceptor atom, score
      L1  H     3    22       P1  2691  0.99
      L1  H     3    23       P1  2902  2.00
      L1  H    14    38       P1  1891  1.00

>  <Gold.PLP.Chemscore.Internal.Correction>  (115) 
1.0793

>  <Gold.PLP.Constraint>  (115) 
-0.0000

>  <Gold.Protein.RotatedTorsions>  (115) 
[  681  677  676  673 ] final   87.10 input -179.99 | X-H torsion
[  702  698  697  694 ] final  156.61 input  179.99 | X-H torsion
[ 2577 2569 2568 2566 ] final    6.00 input   -0.13 | X-H torsion
[ 2891 2887 2886 2883 ] final  -54.51 input  179.98 | X-H torsion
[ 3175 3171 3170 3167 ] final  -67.55 input -179.99 | X-H torsion
[ 5278 5270 5269 5267 ] final -172.89 input    0.55 | X-H torsion
[  641  637  636  633 ] final  -87.77 input  179.99 | X-H torsion
[ 1886 1878 1877 1875 ] final -168.58 input    1.60 | X-H torsion
[  965  957  956  954 ] final  158.92 input    0.45 | X-H torsion

>  <Gold.Protein.ActiveResidues>  (115) 
 LYS47   THR48   LEU49   GLY50   THR51   GLY52   SER53   PHE54   GLY55   ARG56  
 VAL57   MET58   LEU59   TYR69   ALA70   MET71   LYS72   ILE73   LEU74   GLU91  
 LEU95   VAL104  LYS105  MET118  VAL119  MET120  GLU121  TYR122  VAL123  PRO124 
 GLY125  GLY126  GLU127  MET128  PHE129  TYR164  ASP166  LEU167  LYS168  PRO169 
 GLU170  ASN171  LEU172  LEU173  ILE174  GLN181  VAL182  THR183  ASP184  PHE185 
 GLY186  PHE187  GLY200  THR201  ASN326  PHE327  TYR330  ARG18   ARG19   ASN20  
 ALA21   ILE22   HIS23  

>  <Gold.Protein.RotatedAtoms>  (115) 
   10.5798   18.9388    7.2774 H   0  0  0  0  0  0  0  0  0  0  0  0  # atno 641  bound_to 637 
   16.9999   12.9904    6.1053 H   0  0  0  0  0  0  0  0  0  0  0  0  # atno 681  bound_to 677 
   20.7169   11.6328   -1.8858 H   0  0  0  0  0  0  0  0  0  0  0  0  # atno 702  bound_to 698 
   -7.0166   16.9951   -0.3142 H   0  0  0  0  0  0  0  0  0  0  0  0  # atno 965  bound_to 957 
    0.6108   11.3629   11.0391 H   0  0  0  0  0  0  0  0  0  0  0  0  # atno 1886 bound_to 1878
    9.6800    3.2290   -3.3481 H   0  0  0  0  0  0  0  0  0  0  0  0  # atno 2577 bound_to 2569
    7.5425    5.1925    0.9268 H   0  0  0  0  0  0  0  0  0  0  0  0  # atno 2891 bound_to 2887
   19.3220    3.0172   -0.2759 H   0  0  0  0  0  0  0  0  0  0  0  0  # atno 3175 bound_to 3171
   14.4180   10.0632    9.4992 H   0  0  0  0  0  0  0  0  0  0  0  0  # atno 5278 bound_to 5270
   15.6011   12.8440    6.8524 LP  0  0  0  0  0  0  0  0  0  0  0  0  # atno 5914 bound_to 677 
   16.6802   13.9807    7.3108 LP  0  0  0  0  0  0  0  0  0  0  0  0  # atno 5915 bound_to 677 
   19.3030   11.8531   -1.1860 LP  0  0  0  0  0  0  0  0  0  0  0  0  # atno 5920 bound_to 698 
   20.6473   11.5976   -0.2948 LP  0  0  0  0  0  0  0  0  0  0  0  0  # atno 5921 bound_to 698 
   11.1159    2.7291   -2.8755 LP  0  0  0  0  0  0  0  0  0  0  0  0  # atno 5950 bound_to 2569
    9.7624    1.9353   -2.4235 LP  0  0  0  0  0  0  0  0  0  0  0  0  # atno 5951 bound_to 2569
    7.3597    6.6609    1.5158 LP  0  0  0  0  0  0  0  0  0  0  0  0  # atno 5982 bound_to 2887
    8.3771    6.3792    0.2699 LP  0  0  0  0  0  0  0  0  0  0  0  0  # atno 5983 bound_to 2887
   18.0509    2.1518    0.1376 LP  0  0  0  0  0  0  0  0  0  0  0  0  # atno 6000 bound_to 3171
   18.5027    2.2816   -1.4262 LP  0  0  0  0  0  0  0  0  0  0  0  0  # atno 6001 bound_to 3171
   12.9533   10.1822    8.8849 LP  0  0  0  0  0  0  0  0  0  0  0  0  # atno 6004 bound_to 5270
   13.1733    9.7969   10.4565 LP  0  0  0  0  0  0  0  0  0  0  0  0  # atno 6005 bound_to 5270
   11.2203   19.5880    8.5825 LP  0  0  0  0  0  0  0  0  0  0  0  0  # atno 6055 bound_to 637 
    9.6019   19.5675    8.3653 LP  0  0  0  0  0  0  0  0  0  0  0  0  # atno 6056 bound_to 637 
    1.8675   12.2630   10.6575 LP  0  0  0  0  0  0  0  0  0  0  0  0  # atno 6063 bound_to 1878
    1.8748   10.6538   10.3798 LP  0  0  0  0  0  0  0  0  0  0  0  0  # atno 6064 bound_to 1878
   -6.9873   15.4090   -0.4512 LP  0  0  0  0  0  0  0  0  0  0  0  0  # atno 6067 bound_to 957 
   -6.4310   16.3638   -1.6535 LP  0  0  0  0  0  0  0  0  0  0  0  0  # atno 6068 bound_to 957 

>  <STRIFE_LigEff_Score>  (115) 
2.8862125

$$$$
unknown|pharmsElabsTestPreDocking|sdf|116|dock4
     RDKit          3D

 17 18  0  0  0  0  0  0  0  0999 V2000
   14.5662    7.8760    2.7615 C   0  0  0  0  0  0  0  0  0  0  0  0
   13.2058    7.9625    2.0713 C   0  0  0  0  0  0  0  0  0  0  0  0
   13.1751    8.9995    1.0380 N   0  0  0  0  0  0  0  0  0  0  0  0
   11.9316    7.9650    2.9512 C   0  0  0  0  0  0  0  0  0  0  0  0
   10.7957    7.0955    2.3931 C   0  0  0  0  0  0  0  0  0  0  0  0
    9.4007    7.3868    2.9197 C   0  0  0  0  0  0  0  0  0  0  0  0
    9.1294    8.8633    3.0614 C   0  0  0  0  0  0  0  0  0  0  0  0
    7.6800    9.2009    3.2472 C   0  0  0  0  0  0  0  0  0  0  0  0
    7.4557    9.9283    4.2408 O   0  0  0  0  0  0  0  0  0  0  0  0
    6.5842    8.7709    2.4109 N   0  0  0  0  0  0  0  0  0  0  0  0
    5.1994    9.0521    2.7389 C   0  0  0  0  0  0  0  0  0  0  0  0
    4.6449    9.2710    3.9991 C   0  0  0  0  0  0  0  0  0  0  0  0
    3.2999    9.4792    3.7963 C   0  0  0  0  0  0  0  0  0  0  0  0
    3.0100    9.3948    2.4858 N   0  0  0  0  0  0  0  0  0  0  0  0
    4.1593    9.1341    1.8328 C   0  0  0  0  0  0  0  0  0  0  0  0
   10.1342    9.6627    3.8402 C   0  0  0  0  0  0  0  0  0  0  0  0
   11.5625    9.4168    3.3581 C   0  0  0  0  0  0  0  0  0  0  0  0
  1  2  1  0
  2  3  1  0
  2  4  1  0
  4  5  1  0
  5  6  1  0
  6  7  1  0
  7  8  1  0
  8  9  2  0
  8 10  1  0
 10 11  1  0
 11 12  1  0
 12 13  2  0
 13 14  1  0
 14 15  1  0
  7 16  1  0
 16 17  1  0
 17  4  1  0
 15 11  2  0
M  CHG  1   3   1
M  END
>  <EmbedRMS>  (116) 
0.3005329260886256

>  <Gold.Version>  (116) 
2020.3.0

>  <Gold.Id.Protein>  (116) 
unknown|1q8t_protein|pdb

>  <Gold.PLP.Fitness>  (116) 
48.7266

>  <Gold.PLP.PLP>  (116) 
-41.1316

>  <Gold.PLP.part.hbond>  (116) 
-2.3410

>  <Gold.PLP.part.metal>  (116) 
0.0000

>  <Gold.PLP.part.buried>  (116) 
-4.0673

>  <Gold.PLP.part.nonpolar>  (116) 
-34.5764

>  <Gold.PLP.part.repulsive>  (116) 
0.0975

>  <Gold.PLP.ligand.clash>  (116) 
0.0000

>  <Gold.PLP.ligand.torsion>  (116) 
1.0719

>  <Gold.PLP.Chemscore.Hbond>  (116) 
3.0400

>  <Gold.PLP.Chemscore.CHOScore>  (116) 
0.0000

>  <Gold.PLP.Chemscore.Metal>  (116) 
0.0000

>  <Gold.Chemscore.Hbonds>  (116) 
donor molecule, donor type, donor heavy atom, donor atom, acceptor molecule, acceptor atom, score
      L1  H     3    23       P1  2902  2.00
      L1  H    10    31       P1  2887  0.04
      L1  H    14    34       P1  1855  1.00

>  <Gold.PLP.Chemscore.Internal.Correction>  (116) 
0.6187

>  <Gold.PLP.Constraint>  (116) 
-0.0000

>  <Gold.Protein.RotatedTorsions>  (116) 
[  681  677  676  673 ] final  -61.78 input -179.99 | X-H torsion
[  702  698  697  694 ] final  -64.95 input  179.99 | X-H torsion
[ 2577 2569 2568 2566 ] final  101.39 input   -0.13 | X-H torsion
[ 2891 2887 2886 2883 ] final  -89.67 input  179.98 | X-H torsion
[ 3175 3171 3170 3167 ] final  -21.12 input -179.99 | X-H torsion
[ 5278 5270 5269 5267 ] final  -98.03 input    0.55 | X-H torsion
[  641  637  636  633 ] final   49.92 input  179.99 | X-H torsion
[ 1886 1878 1877 1875 ] final -166.04 input    1.60 | X-H torsion
[  965  957  956  954 ] final   10.37 input    0.45 | X-H torsion

>  <Gold.Protein.ActiveResidues>  (116) 
 LYS47   THR48   LEU49   GLY50   THR51   GLY52   SER53   PHE54   GLY55   ARG56  
 VAL57   MET58   LEU59   TYR69   ALA70   MET71   LYS72   ILE73   LEU74   GLU91  
 LEU95   VAL104  LYS105  MET118  VAL119  MET120  GLU121  TYR122  VAL123  PRO124 
 GLY125  GLY126  GLU127  MET128  PHE129  TYR164  ASP166  LEU167  LYS168  PRO169 
 GLU170  ASN171  LEU172  LEU173  ILE174  GLN181  VAL182  THR183  ASP184  PHE185 
 GLY186  PHE187  GLY200  THR201  ASN326  PHE327  TYR330  ARG18   ARG19   ASN20  
 ALA21   ILE22   HIS23  

>  <Gold.Protein.RotatedAtoms>  (116) 
    9.7894   19.6426    8.5693 H   0  0  0  0  0  0  0  0  0  0  0  0  # atno 641  bound_to 637 
   15.6409   13.1944    7.1494 H   0  0  0  0  0  0  0  0  0  0  0  0  # atno 681  bound_to 677 
   20.3599   11.6645   -0.2487 H   0  0  0  0  0  0  0  0  0  0  0  0  # atno 702  bound_to 698 
   -6.7845   15.3760   -0.8581 H   0  0  0  0  0  0  0  0  0  0  0  0  # atno 965  bound_to 957 
    0.6118   11.3239   11.0320 H   0  0  0  0  0  0  0  0  0  0  0  0  # atno 1886 bound_to 1878
    9.4858    2.1461   -2.6105 H   0  0  0  0  0  0  0  0  0  0  0  0  # atno 2577 bound_to 2569
    7.2586    5.4405    1.3151 H   0  0  0  0  0  0  0  0  0  0  0  0  # atno 2891 bound_to 2887
   19.2908    2.9030   -0.9719 H   0  0  0  0  0  0  0  0  0  0  0  0  # atno 3175 bound_to 3171
   13.8786    9.8313   10.4165 H   0  0  0  0  0  0  0  0  0  0  0  0  # atno 5278 bound_to 5270
   17.0505   13.9251    7.0263 LP  0  0  0  0  0  0  0  0  0  0  0  0  # atno 5914 bound_to 677 
   16.6612   12.6849    6.0379 LP  0  0  0  0  0  0  0  0  0  0  0  0  # atno 5915 bound_to 677 
   20.9585   11.5700   -1.7218 LP  0  0  0  0  0  0  0  0  0  0  0  0  # atno 5920 bound_to 698 
   19.3674   11.8474   -1.4812 LP  0  0  0  0  0  0  0  0  0  0  0  0  # atno 5921 bound_to 698 
   10.0257    3.4039   -3.4239 LP  0  0  0  0  0  0  0  0  0  0  0  0  # atno 5950 bound_to 2569
   11.0570    2.4006   -2.6517 LP  0  0  0  0  0  0  0  0  0  0  0  0  # atno 5951 bound_to 2569
    7.7098    6.9621    1.1824 LP  0  0  0  0  0  0  0  0  0  0  0  0  # atno 5982 bound_to 2887
    8.3258    5.8170    0.1945 LP  0  0  0  0  0  0  0  0  0  0  0  0  # atno 5983 bound_to 2887
   18.5853    2.5845    0.4196 LP  0  0  0  0  0  0  0  0  0  0  0  0  # atno 6000 bound_to 3171
   18.0011    1.9691   -0.9757 LP  0  0  0  0  0  0  0  0  0  0  0  0  # atno 6001 bound_to 3171
   14.0993   10.1950    8.8817 LP  0  0  0  0  0  0  0  0  0  0  0  0  # atno 6004 bound_to 5270
   12.5949   10.0281    9.4944 LP  0  0  0  0  0  0  0  0  0  0  0  0  # atno 6005 bound_to 5270
   10.2970   18.9486    7.2292 LP  0  0  0  0  0  0  0  0  0  0  0  0  # atno 6055 bound_to 637 
   11.3576   19.4658    8.3581 LP  0  0  0  0  0  0  0  0  0  0  0  0  # atno 6056 bound_to 637 
    1.8339   12.2802   10.6752 LP  0  0  0  0  0  0  0  0  0  0  0  0  # atno 6063 bound_to 1878
    1.9075   10.6778   10.3695 LP  0  0  0  0  0  0  0  0  0  0  0  0  # atno 6064 bound_to 1878
   -6.4936   16.8007   -1.5067 LP  0  0  0  0  0  0  0  0  0  0  0  0  # atno 6067 bound_to 957 
   -7.1691   16.6773   -0.0251 LP  0  0  0  0  0  0  0  0  0  0  0  0  # atno 6068 bound_to 957 

>  <STRIFE_LigEff_Score>  (116) 
2.866270588235294

$$$$
unknown|pharmsElabsTestPreDocking|sdf|117|dock2
     RDKit          3D

 16 16  0  0  0  0  0  0  0  0999 V2000
   13.8712    7.2190    3.7044 C   0  0  0  0  0  0  0  0  0  0  0  0
   13.0478    7.8537    2.5736 C   0  0  0  0  0  0  0  0  0  0  0  0
   13.2365    7.1007    1.3285 N   0  0  0  0  0  0  0  0  0  0  0  0
   11.5327    8.1208    2.8841 C   0  0  0  0  0  0  0  0  0  0  0  0
   10.5237    7.3450    2.0167 C   0  0  0  0  0  0  0  0  0  0  0  0
    9.1814    8.0272    1.8313 C   0  0  0  0  0  0  0  0  0  0  0  0
    8.6887    8.7032    3.1054 C   0  0  0  0  0  0  0  0  0  0  0  0
    7.3035    9.2535    2.8754 C   0  0  0  0  0  0  0  0  0  0  0  0
    7.0867   10.0239    1.8980 O   0  0  0  0  0  0  0  0  0  0  0  0
    6.2500    8.9156    3.7875 N   0  0  0  0  0  0  0  0  0  0  0  0
    4.8549    9.3681    3.6619 C   0  0  0  0  0  0  0  0  0  0  0  0
    4.1142    9.1976    5.0003 C   0  0  0  0  0  0  0  0  0  0  0  0
    4.8529   10.8603    3.2871 C   0  0  0  0  0  0  0  0  0  0  0  0
    4.1380    8.5815    2.5504 C   0  0  0  0  0  0  0  0  0  0  0  0
    9.6345    9.8348    3.5229 C   0  0  0  0  0  0  0  0  0  0  0  0
   11.1336    9.4797    3.4968 C   0  0  0  0  0  0  0  0  0  0  0  0
  1  2  1  0
  2  3  1  0
  2  4  1  0
  4  5  1  0
  5  6  1  0
  6  7  1  0
  7  8  1  0
  8  9  2  0
  8 10  1  0
 10 11  1  0
 11 12  1  0
 11 13  1  0
 11 14  1  0
  7 15  1  0
 15 16  1  0
 16  4  1  0
M  CHG  1   3   1
M  END
>  <EmbedRMS>  (117) 
0.17423024192686873

>  <Gold.Version>  (117) 
2020.3.0

>  <Gold.Id.Protein>  (117) 
unknown|1q8t_protein|pdb

>  <Gold.PLP.Fitness>  (117) 
40.7721

>  <Gold.PLP.PLP>  (117) 
-34.5232

>  <Gold.PLP.part.hbond>  (117) 
-1.9001

>  <Gold.PLP.part.metal>  (117) 
0.0000

>  <Gold.PLP.part.buried>  (117) 
-2.3129

>  <Gold.PLP.part.nonpolar>  (117) 
-30.6454

>  <Gold.PLP.part.repulsive>  (117) 
0.0364

>  <Gold.PLP.ligand.clash>  (117) 
0.0000

>  <Gold.PLP.ligand.torsion>  (117) 
1.6117

>  <Gold.PLP.Chemscore.Hbond>  (117) 
2.9600

>  <Gold.PLP.Chemscore.CHOScore>  (117) 
0.0000

>  <Gold.PLP.Chemscore.Metal>  (117) 
0.0000

>  <Gold.Chemscore.Hbonds>  (117) 
donor molecule, donor type, donor heavy atom, donor atom, acceptor molecule, acceptor atom, score
      L1  H     3    22       P1  2902  1.98
      L1  H     3    23       P1  2691  0.98

>  <Gold.PLP.Chemscore.Internal.Correction>  (117) 
0.5922

>  <Gold.PLP.Constraint>  (117) 
-0.0000

>  <Gold.Protein.RotatedTorsions>  (117) 
[  681  677  676  673 ] final  112.23 input -179.99 | X-H torsion
[  702  698  697  694 ] final  171.79 input  179.99 | X-H torsion
[ 2577 2569 2568 2566 ] final  179.34 input   -0.13 | X-H torsion
[ 2891 2887 2886 2883 ] final  137.99 input  179.98 | X-H torsion
[ 3175 3171 3170 3167 ] final   92.06 input -179.99 | X-H torsion
[ 5278 5270 5269 5267 ] final  -42.95 input    0.55 | X-H torsion
[  641  637  636  633 ] final  118.23 input  179.99 | X-H torsion
[ 1886 1878 1877 1875 ] final  120.45 input    1.60 | X-H torsion
[  965  957  956  954 ] final  -24.20 input    0.45 | X-H torsion

>  <Gold.Protein.ActiveResidues>  (117) 
 LYS47   THR48   LEU49   GLY50   THR51   GLY52   SER53   PHE54   GLY55   ARG56  
 VAL57   MET58   LEU59   TYR69   ALA70   MET71   LYS72   ILE73   LEU74   GLU91  
 LEU95   VAL104  LYS105  MET118  VAL119  MET120  GLU121  TYR122  VAL123  PRO124 
 GLY125  GLY126  GLU127  MET128  PHE129  TYR164  ASP166  LEU167  LYS168  PRO169 
 GLU170  ASN171  LEU172  LEU173  ILE174  GLN181  VAL182  THR183  ASP184  PHE185 
 GLY186  PHE187  GLY200  THR201  ASN326  PHE327  TYR330  ARG18   ARG19   ASN20  
 ALA21   ILE22   HIS23  

>  <Gold.Protein.RotatedAtoms>  (117) 
   10.7578   19.7202    8.8272 H   0  0  0  0  0  0  0  0  0  0  0  0  # atno 641  bound_to 637 
   17.1975   13.2819    6.2719 H   0  0  0  0  0  0  0  0  0  0  0  0  # atno 681  bound_to 677 
   20.8932   11.5986   -1.7315 H   0  0  0  0  0  0  0  0  0  0  0  0  # atno 702  bound_to 698 
   -6.5780   15.5720   -1.3075 H   0  0  0  0  0  0  0  0  0  0  0  0  # atno 965  bound_to 957 
    1.1605   12.2405   10.9464 H   0  0  0  0  0  0  0  0  0  0  0  0  # atno 1886 bound_to 1878
   10.5865    1.9951   -2.4249 H   0  0  0  0  0  0  0  0  0  0  0  0  # atno 2577 bound_to 2569
    7.8278    6.9483    1.0170 H   0  0  0  0  0  0  0  0  0  0  0  0  # atno 2891 bound_to 2887
   18.0948    2.0082   -1.0402 H   0  0  0  0  0  0  0  0  0  0  0  0  # atno 3175 bound_to 3171
   13.0528    9.8393   10.3492 H   0  0  0  0  0  0  0  0  0  0  0  0  # atno 5278 bound_to 5270
   15.7677   12.6347    6.5416 LP  0  0  0  0  0  0  0  0  0  0  0  0  # atno 5914 bound_to 677 
   16.3056   13.8832    7.4462 LP  0  0  0  0  0  0  0  0  0  0  0  0  # atno 5915 bound_to 677 
   19.3493   11.8496   -1.4308 LP  0  0  0  0  0  0  0  0  0  0  0  0  # atno 5920 bound_to 698 
   20.4156   11.6371   -0.2124 LP  0  0  0  0  0  0  0  0  0  0  0  0  # atno 5921 bound_to 698 
    9.2370    2.6504   -2.9585 LP  0  0  0  0  0  0  0  0  0  0  0  0  # atno 5950 bound_to 2569
   10.6868    3.3132   -3.3125 LP  0  0  0  0  0  0  0  0  0  0  0  0  # atno 5951 bound_to 2569
    8.2554    5.6306    0.2314 LP  0  0  0  0  0  0  0  0  0  0  0  0  # atno 5982 bound_to 2887
    7.1811    5.5617    1.4593 LP  0  0  0  0  0  0  0  0  0  0  0  0  # atno 5983 bound_to 2887
   19.3497    2.9781   -0.8987 LP  0  0  0  0  0  0  0  0  0  0  0  0  # atno 6000 bound_to 3171
   18.4954    2.5172    0.4145 LP  0  0  0  0  0  0  0  0  0  0  0  0  # atno 6001 bound_to 3171
   14.4724   10.0099    9.6476 LP  0  0  0  0  0  0  0  0  0  0  0  0  # atno 6004 bound_to 5270
   13.0907   10.2047    8.7994 LP  0  0  0  0  0  0  0  0  0  0  0  0  # atno 6005 bound_to 5270
    9.5456   19.3206    7.8755 LP  0  0  0  0  0  0  0  0  0  0  0  0  # atno 6055 bound_to 637 
   11.0890   19.0121    7.4402 LP  0  0  0  0  0  0  0  0  0  0  0  0  # atno 6056 bound_to 637 
    2.2885   11.3143   10.3100 LP  0  0  0  0  0  0  0  0  0  0  0  0  # atno 6063 bound_to 1878
    0.8751   10.6787   10.8248 LP  0  0  0  0  0  0  0  0  0  0  0  0  # atno 6064 bound_to 1878
   -6.6728   17.1485   -1.1057 LP  0  0  0  0  0  0  0  0  0  0  0  0  # atno 6067 bound_to 957 
   -7.2073   16.1231    0.0473 LP  0  0  0  0  0  0  0  0  0  0  0  0  # atno 6068 bound_to 957 

>  <STRIFE_LigEff_Score>  (117) 
2.54825625

$$$$
unknown|pharmsElabsTestPreDocking|sdf|118|dock5
     RDKit          3D

 18 19  0  0  0  0  0  0  0  0999 V2000
    4.9851    9.8070    5.5950 C   0  0  0  0  0  0  0  0  0  0  0  0
    4.7045    9.5461    4.1482 C   0  0  0  0  0  0  0  0  0  0  0  0
    3.4805    9.6981    3.6079 N   0  0  0  0  0  0  0  0  0  0  0  0
    3.6036    9.4944    2.2829 C   0  0  0  0  0  0  0  0  0  0  0  0
    4.9180    9.2008    1.9601 C   0  0  0  0  0  0  0  0  0  0  0  0
    5.6200    9.2133    3.1520 C   0  0  0  0  0  0  0  0  0  0  0  0
    7.0462    9.0077    3.2908 N   0  0  0  0  0  0  0  0  0  0  0  0
    7.9644    9.3101    2.2217 C   0  0  0  0  0  0  0  0  0  0  0  0
    7.5492    9.9312    1.2135 O   0  0  0  0  0  0  0  0  0  0  0  0
    9.4329    8.9922    2.2052 C   0  0  0  0  0  0  0  0  0  0  0  0
    9.7818    7.5248    2.4692 C   0  0  0  0  0  0  0  0  0  0  0  0
   11.2919    7.2471    2.6253 C   0  0  0  0  0  0  0  0  0  0  0  0
   12.1311    8.3062    1.8927 C   0  0  0  0  0  0  0  0  0  0  0  0
   13.6371    7.9911    1.6333 C   0  0  0  0  0  0  0  0  0  0  0  0
   14.5593    9.1765    1.4036 C   0  0  0  0  0  0  0  0  0  0  0  0
   13.9477    6.8104    0.8342 N   0  0  0  0  0  0  0  0  0  0  0  0
   11.8876    9.6904    2.5281 C   0  0  0  0  0  0  0  0  0  0  0  0
   10.4002   10.0979    2.5954 C   0  0  0  0  0  0  0  0  0  0  0  0
  1  2  1  0
  2  3  1  0
  3  4  1  0
  4  5  2  0
  5  6  1  0
  6  7  1  0
  7  8  1  0
  8  9  2  0
  8 10  1  0
 10 11  1  0
 11 12  1  0
 12 13  1  0
 13 14  1  0
 14 15  1  0
 14 16  1  0
 13 17  1  0
 17 18  1  0
  6  2  2  0
 18 10  1  0
M  CHG  1  16   1
M  END
>  <EmbedRMS>  (118) 
0.24995529680257836

>  <Gold.Version>  (118) 
2020.3.0

>  <Gold.Id.Protein>  (118) 
unknown|1q8t_protein|pdb

>  <Gold.PLP.Fitness>  (118) 
52.5990

>  <Gold.PLP.PLP>  (118) 
-41.2385

>  <Gold.PLP.part.hbond>  (118) 
-1.8699

>  <Gold.PLP.part.metal>  (118) 
0.0000

>  <Gold.PLP.part.buried>  (118) 
-3.6751

>  <Gold.PLP.part.nonpolar>  (118) 
-36.5190

>  <Gold.PLP.part.repulsive>  (118) 
0.1732

>  <Gold.PLP.ligand.clash>  (118) 
0.0000

>  <Gold.PLP.ligand.torsion>  (118) 
0.8775

>  <Gold.PLP.Chemscore.Hbond>  (118) 
2.9920

>  <Gold.PLP.Chemscore.CHOScore>  (118) 
1.0000

>  <Gold.PLP.Chemscore.Metal>  (118) 
0.0000

>  <Gold.Chemscore.Hbonds>  (118) 
donor molecule, donor type, donor heavy atom, donor atom, acceptor molecule, acceptor atom, score
      L1  H    16    36       P1  2691  0.99
      L1  H    16    38       P1  2902  2.00
      L1  C     4    23       P1  1855  1.00

>  <Gold.PLP.Chemscore.Internal.Correction>  (118) 
1.1396

>  <Gold.PLP.Constraint>  (118) 
-0.0000

>  <Gold.Protein.RotatedTorsions>  (118) 
[  681  677  676  673 ] final -125.63 input -179.99 | X-H torsion
[  702  698  697  694 ] final  103.03 input  179.99 | X-H torsion
[ 2577 2569 2568 2566 ] final  175.52 input   -0.13 | X-H torsion
[ 2891 2887 2886 2883 ] final -171.22 input  179.98 | X-H torsion
[ 3175 3171 3170 3167 ] final  -47.46 input -179.99 | X-H torsion
[ 5278 5270 5269 5267 ] final  -88.56 input    0.55 | X-H torsion
[  641  637  636  633 ] final  108.79 input  179.99 | X-H torsion
[ 1886 1878 1877 1875 ] final   72.67 input    1.60 | X-H torsion
[  965  957  956  954 ] final  -71.92 input    0.45 | X-H torsion

>  <Gold.Protein.ActiveResidues>  (118) 
 LYS47   THR48   LEU49   GLY50   THR51   GLY52   SER53   PHE54   GLY55   ARG56  
 VAL57   MET58   LEU59   TYR69   ALA70   MET71   LYS72   ILE73   LEU74   GLU91  
 LEU95   VAL104  LYS105  MET118  VAL119  MET120  GLU121  TYR122  VAL123  PRO124 
 GLY125  GLY126  GLU127  MET128  PHE129  TYR164  ASP166  LEU167  LYS168  PRO169 
 GLU170  ASN171  LEU172  LEU173  ILE174  GLN181  VAL182  THR183  ASP184  PHE185 
 GLY186  PHE187  GLY200  THR201  ASN326  PHE327  TYR330  ARG18   ARG19   ASN20  
 ALA21   ILE22   HIS23  

>  <Gold.Protein.RotatedAtoms>  (118) 
   10.6152   19.7429    8.8560 H   0  0  0  0  0  0  0  0  0  0  0  0  # atno 641  bound_to 637 
   16.2753   13.8496    7.4059 H   0  0  0  0  0  0  0  0  0  0  0  0  # atno 681  bound_to 677 
   19.9265   11.7746   -1.9744 H   0  0  0  0  0  0  0  0  0  0  0  0  # atno 702  bound_to 698 
   -6.4356   16.2161   -1.6070 H   0  0  0  0  0  0  0  0  0  0  0  0  # atno 965  bound_to 957 
    1.8236   12.2318   10.6525 H   0  0  0  0  0  0  0  0  0  0  0  0  # atno 1886 bound_to 1878
   10.5328    1.9723   -2.4131 H   0  0  0  0  0  0  0  0  0  0  0  0  # atno 2577 bound_to 2569
    7.3418    6.5938    1.4950 H   0  0  0  0  0  0  0  0  0  0  0  0  # atno 2891 bound_to 2887
   19.3658    3.0093   -0.5850 H   0  0  0  0  0  0  0  0  0  0  0  0  # atno 3175 bound_to 3171
   13.7380    9.8189   10.4609 H   0  0  0  0  0  0  0  0  0  0  0  0  # atno 5278 bound_to 5270
   17.2555   13.2986    6.2782 LP  0  0  0  0  0  0  0  0  0  0  0  0  # atno 5914 bound_to 677 
   15.7885   12.6219    6.5160 LP  0  0  0  0  0  0  0  0  0  0  0  0  # atno 5915 bound_to 677 
   19.6369   11.7789   -0.4080 LP  0  0  0  0  0  0  0  0  0  0  0  0  # atno 5920 bound_to 698 
   21.1449   11.5226   -0.9797 LP  0  0  0  0  0  0  0  0  0  0  0  0  # atno 5921 bound_to 698 
    9.2421    2.7019   -2.9939 LP  0  0  0  0  0  0  0  0  0  0  0  0  # atno 5950 bound_to 2569
   10.7383    3.2857   -3.2896 LP  0  0  0  0  0  0  0  0  0  0  0  0  # atno 5951 bound_to 2569
    8.3700    6.4288    0.2900 LP  0  0  0  0  0  0  0  0  0  0  0  0  # atno 5982 bound_to 2887
    7.5780    5.1365    0.8977 LP  0  0  0  0  0  0  0  0  0  0  0  0  # atno 5983 bound_to 2887
   18.2538    2.3270    0.3280 LP  0  0  0  0  0  0  0  0  0  0  0  0  # atno 6000 bound_to 3171
   18.2536    2.1148   -1.2912 LP  0  0  0  0  0  0  0  0  0  0  0  0  # atno 6001 bound_to 3171
   14.2152   10.1712    8.9828 LP  0  0  0  0  0  0  0  0  0  0  0  0  # atno 6004 bound_to 5270
   12.6269   10.0649    9.3467 LP  0  0  0  0  0  0  0  0  0  0  0  0  # atno 6005 bound_to 5270
    9.5880   19.2508    7.7436 LP  0  0  0  0  0  0  0  0  0  0  0  0  # atno 6055 bound_to 637 
   11.1969   19.0579    7.5418 LP  0  0  0  0  0  0  0  0  0  0  0  0  # atno 6056 bound_to 637 
    1.8910   10.6655   10.3746 LP  0  0  0  0  0  0  0  0  0  0  0  0  # atno 6063 bound_to 1878
    0.5745   11.3367   11.0695 LP  0  0  0  0  0  0  0  0  0  0  0  0  # atno 6064 bound_to 1878
   -6.9887   17.1117   -0.4124 LP  0  0  0  0  0  0  0  0  0  0  0  0  # atno 6067 bound_to 957 
   -7.0414   15.4816   -0.3308 LP  0  0  0  0  0  0  0  0  0  0  0  0  # atno 6068 bound_to 957 

>  <STRIFE_LigEff_Score>  (118) 
2.9221666666666666

$$$$
unknown|pharmsElabsTestPreDocking|sdf|119|dock6
     RDKit          3D

 13 13  0  0  0  0  0  0  0  0999 V2000
    5.0876    9.1948    2.6938 C   0  0  0  0  0  0  0  0  0  0  0  0
    6.4969    9.2296    2.2952 N   0  0  0  0  0  0  0  0  0  0  0  0
    7.5219    9.0388    3.2811 C   0  0  0  0  0  0  0  0  0  0  0  0
    7.1943    8.9262    4.4883 O   0  0  0  0  0  0  0  0  0  0  0  0
    8.9912    8.9318    2.9995 C   0  0  0  0  0  0  0  0  0  0  0  0
    9.5253    7.5003    2.9031 C   0  0  0  0  0  0  0  0  0  0  0  0
   11.0616    7.3988    2.8046 C   0  0  0  0  0  0  0  0  0  0  0  0
   11.6664    8.6833    2.2161 C   0  0  0  0  0  0  0  0  0  0  0  0
   13.1390    8.6269    1.7048 C   0  0  0  0  0  0  0  0  0  0  0  0
   13.7082    9.9005    1.1030 C   0  0  0  0  0  0  0  0  0  0  0  0
   13.5778    7.3949    1.0579 N   0  0  0  0  0  0  0  0  0  0  0  0
   11.3817    9.8689    3.1604 C   0  0  0  0  0  0  0  0  0  0  0  0
    9.8873   10.0544    3.4992 C   0  0  0  0  0  0  0  0  0  0  0  0
  1  2  1  0
  2  3  1  0
  3  4  2  0
  3  5  1  0
  5  6  1  0
  6  7  1  0
  7  8  1  0
  8  9  1  0
  9 10  1  0
  9 11  1  0
  8 12  1  0
 12 13  1  0
 13  5  1  0
M  CHG  1  11   1
M  END
>  <EmbedRMS>  (119) 
0.29639754771625826

>  <Gold.Version>  (119) 
2020.3.0

>  <Gold.Id.Protein>  (119) 
unknown|1q8t_protein|pdb

>  <Gold.PLP.Fitness>  (119) 
34.3518

>  <Gold.PLP.PLP>  (119) 
-25.9247

>  <Gold.PLP.part.hbond>  (119) 
-2.0000

>  <Gold.PLP.part.metal>  (119) 
0.0000

>  <Gold.PLP.part.buried>  (119) 
-3.3726

>  <Gold.PLP.part.nonpolar>  (119) 
-20.2742

>  <Gold.PLP.part.repulsive>  (119) 
0.0530

>  <Gold.PLP.ligand.clash>  (119) 
0.0000

>  <Gold.PLP.ligand.torsion>  (119) 
0.5730

>  <Gold.PLP.Chemscore.Hbond>  (119) 
2.8480

>  <Gold.PLP.Chemscore.CHOScore>  (119) 
0.0000

>  <Gold.PLP.Chemscore.Metal>  (119) 
0.0000

>  <Gold.Chemscore.Hbonds>  (119) 
donor molecule, donor type, donor heavy atom, donor atom, acceptor molecule, acceptor atom, score
      L1  H    11    28       P1  2691  0.85
      L1  H    11    29       P1  2902  2.00

>  <Gold.PLP.Chemscore.Internal.Correction>  (119) 
1.0290

>  <Gold.PLP.Constraint>  (119) 
-0.0000

>  <Gold.Protein.RotatedTorsions>  (119) 
[  681  677  676  673 ] final  -65.88 input -179.99 | X-H torsion
[  702  698  697  694 ] final    6.05 input  179.99 | X-H torsion
[ 2577 2569 2568 2566 ] final   -0.63 input   -0.13 | X-H torsion
[ 2891 2887 2886 2883 ] final   61.77 input  179.98 | X-H torsion
[ 3175 3171 3170 3167 ] final -116.63 input -179.99 | X-H torsion
[ 5278 5270 5269 5267 ] final  -80.81 input    0.55 | X-H torsion
[  641  637  636  633 ] final -120.45 input  179.99 | X-H torsion
[ 1886 1878 1877 1875 ] final  119.65 input    1.60 | X-H torsion
[  965  957  956  954 ] final  -32.57 input    0.45 | X-H torsion

>  <Gold.Protein.ActiveResidues>  (119) 
 LYS47   THR48   LEU49   GLY50   THR51   GLY52   SER53   PHE54   GLY55   ARG56  
 VAL57   MET58   LEU59   TYR69   ALA70   MET71   LYS72   ILE73   LEU74   GLU91  
 LEU95   VAL104  LYS105  MET118  VAL119  MET120  GLU121  TYR122  VAL123  PRO124 
 GLY125  GLY126  GLU127  MET128  PHE129  TYR164  ASP166  LEU167  LYS168  PRO169 
 GLU170  ASN171  LEU172  LEU173  ILE174  GLN181  VAL182  THR183  ASP184  PHE185 
 GLY186  PHE187  GLY200  THR201  ASN326  PHE327  TYR330  ARG18   ARG19   ASN20  
 ALA21   ILE22   HIS23  

>  <Gold.Protein.RotatedAtoms>  (119) 
   11.0414   19.0097    7.4666 H   0  0  0  0  0  0  0  0  0  0  0  0  # atno 641  bound_to 637 
   15.6582   13.2433    7.1872 H   0  0  0  0  0  0  0  0  0  0  0  0  # atno 681  bound_to 677 
   19.4484   11.8352   -0.7216 H   0  0  0  0  0  0  0  0  0  0  0  0  # atno 702  bound_to 698 
   -6.5378   15.6613   -1.3941 H   0  0  0  0  0  0  0  0  0  0  0  0  # atno 965  bound_to 957 
    1.1713   12.2453   10.9424 H   0  0  0  0  0  0  0  0  0  0  0  0  # atno 1886 bound_to 1878
    9.7690    3.2752   -3.3737 H   0  0  0  0  0  0  0  0  0  0  0  0  # atno 2577 bound_to 2569
    8.3394    6.3113    0.2718 H   0  0  0  0  0  0  0  0  0  0  0  0  # atno 2891 bound_to 2887
   18.9008    2.7793    0.2894 H   0  0  0  0  0  0  0  0  0  0  0  0  # atno 3175 bound_to 3171
   13.6186    9.8129   10.4801 H   0  0  0  0  0  0  0  0  0  0  0  0  # atno 5278 bound_to 5270
   17.0925   13.9030    6.9783 LP  0  0  0  0  0  0  0  0  0  0  0  0  # atno 5914 bound_to 677 
   16.6009   12.6556    6.0461 LP  0  0  0  0  0  0  0  0  0  0  0  0  # atno 5915 bound_to 677 
   21.0109   11.5396   -0.6286 LP  0  0  0  0  0  0  0  0  0  0  0  0  # atno 5920 bound_to 698 
   20.2738   11.6982   -2.0771 LP  0  0  0  0  0  0  0  0  0  0  0  0  # atno 5921 bound_to 698 
   11.1170    2.6396   -2.8133 LP  0  0  0  0  0  0  0  0  0  0  0  0  # atno 5950 bound_to 2569
    9.6676    1.9761   -2.4587 LP  0  0  0  0  0  0  0  0  0  0  0  0  # atno 5951 bound_to 2569
    7.5063    5.1568    0.9856 LP  0  0  0  0  0  0  0  0  0  0  0  0  # atno 5982 bound_to 2887
    7.3917    6.7058    1.4894 LP  0  0  0  0  0  0  0  0  0  0  0  0  # atno 5983 bound_to 2887
   17.8834    1.9318   -0.5950 LP  0  0  0  0  0  0  0  0  0  0  0  0  # atno 6000 bound_to 3171
   19.1135    2.7520   -1.2885 LP  0  0  0  0  0  0  0  0  0  0  0  0  # atno 6001 bound_to 3171
   14.2963   10.1485    9.0783 LP  0  0  0  0  0  0  0  0  0  0  0  0  # atno 6004 bound_to 5270
   12.6714   10.0939    9.2309 LP  0  0  0  0  0  0  0  0  0  0  0  0  # atno 6005 bound_to 5270
   10.7944   19.7505    8.8541 LP  0  0  0  0  0  0  0  0  0  0  0  0  # atno 6055 bound_to 637 
    9.5417   19.3305    7.8945 LP  0  0  0  0  0  0  0  0  0  0  0  0  # atno 6056 bound_to 637 
    2.2862   11.3014   10.3089 LP  0  0  0  0  0  0  0  0  0  0  0  0  # atno 6063 bound_to 1878
    0.8660   10.6866   10.8301 LP  0  0  0  0  0  0  0  0  0  0  0  0  # atno 6064 bound_to 1878
   -6.7270   17.1886   -0.9857 LP  0  0  0  0  0  0  0  0  0  0  0  0  # atno 6067 bound_to 957 
   -7.1955   15.9890    0.0184 LP  0  0  0  0  0  0  0  0  0  0  0  0  # atno 6068 bound_to 957 

>  <STRIFE_LigEff_Score>  (119) 
2.6424461538461537

$$$$
unknown|pharmsElabsTestPreDocking|sdf|120|dock4
     RDKit          3D

 16 16  0  0  0  0  0  0  0  0999 V2000
   14.1601    7.3655    3.5415 C   0  0  0  0  0  0  0  0  0  0  0  0
   13.7909    8.1659    2.2794 C   0  0  0  0  0  0  0  0  0  0  0  0
   14.0396    7.3372    1.0918 N   0  0  0  0  0  0  0  0  0  0  0  0
   12.3104    8.6653    2.3619 C   0  0  0  0  0  0  0  0  0  0  0  0
   11.3691    7.5180    1.9521 C   0  0  0  0  0  0  0  0  0  0  0  0
    9.9004    7.9221    1.8947 C   0  0  0  0  0  0  0  0  0  0  0  0
    9.5363    9.0828    2.8075 C   0  0  0  0  0  0  0  0  0  0  0  0
    8.0581    9.3007    2.9364 C   0  0  0  0  0  0  0  0  0  0  0  0
    7.3660    8.7844    2.0263 O   0  0  0  0  0  0  0  0  0  0  0  0
    7.4049   10.0393    3.9828 N   0  0  0  0  0  0  0  0  0  0  0  0
    5.9557   10.2848    3.9370 C   0  0  0  0  0  0  0  0  0  0  0  0
    5.2426    9.7329    5.1803 C   0  0  0  0  0  0  0  0  0  0  0  0
    3.7222    9.5981    5.0153 C   0  0  0  0  0  0  0  0  0  0  0  0
    3.3001    8.9777    3.3574 S   0  0  0  0  0  0  0  0  0  0  0  0
   10.4211    9.4723    3.9774 C   0  0  0  0  0  0  0  0  0  0  0  0
   11.9189    9.1560    3.7784 C   0  0  0  0  0  0  0  0  0  0  0  0
  1  2  1  0
  2  3  1  0
  2  4  1  0
  4  5  1  0
  5  6  1  0
  6  7  1  0
  7  8  1  0
  8  9  2  0
  8 10  1  0
 10 11  1  0
 11 12  1  0
 12 13  1  0
 13 14  1  0
  7 15  1  0
 15 16  1  0
 16  4  1  0
M  CHG  1   3   1
M  END
>  <EmbedRMS>  (120) 
0.18906818759074484

>  <Gold.Version>  (120) 
2020.3.0

>  <Gold.Id.Protein>  (120) 
unknown|1q8t_protein|pdb

>  <Gold.PLP.Fitness>  (120) 
50.7911

>  <Gold.PLP.PLP>  (120) 
-39.7512

>  <Gold.PLP.part.hbond>  (120) 
-3.0000

>  <Gold.PLP.part.metal>  (120) 
0.0000

>  <Gold.PLP.part.buried>  (120) 
-3.4432

>  <Gold.PLP.part.nonpolar>  (120) 
-34.1652

>  <Gold.PLP.part.repulsive>  (120) 
0.0410

>  <Gold.PLP.ligand.clash>  (120) 
0.0000

>  <Gold.PLP.ligand.torsion>  (120) 
0.8705

>  <Gold.PLP.Chemscore.Hbond>  (120) 
4.0000

>  <Gold.PLP.Chemscore.CHOScore>  (120) 
0.0000

>  <Gold.PLP.Chemscore.Metal>  (120) 
0.0000

>  <Gold.Chemscore.Hbonds>  (120) 
donor molecule, donor type, donor heavy atom, donor atom, acceptor molecule, acceptor atom, score
      L1  H     3    21       P1  2902  2.00
      L1  H     3    23       P1  2691  1.00
      P1  H  2887  2891       L1     9  1.00

>  <Gold.PLP.Chemscore.Internal.Correction>  (120) 
0.7808

>  <Gold.PLP.Constraint>  (120) 
-0.0000

>  <Gold.Protein.RotatedTorsions>  (120) 
[  681  677  676  673 ] final -149.21 input -179.99 | X-H torsion
[  702  698  697  694 ] final  127.24 input  179.99 | X-H torsion
[ 2577 2569 2568 2566 ] final -157.94 input   -0.13 | X-H torsion
[ 2891 2887 2886 2883 ] final  160.18 input  179.98 | X-H torsion
[ 3175 3171 3170 3167 ] final   80.89 input -179.99 | X-H torsion
[ 5278 5270 5269 5267 ] final  -14.58 input    0.55 | X-H torsion
[  641  637  636  633 ] final  -33.01 input  179.99 | X-H torsion
[ 1886 1878 1877 1875 ] final  115.38 input    1.60 | X-H torsion
[  965  957  956  954 ] final   70.08 input    0.45 | X-H torsion

>  <Gold.Protein.ActiveResidues>  (120) 
 LYS47   THR48   LEU49   GLY50   THR51   GLY52   SER53   PHE54   GLY55   ARG56  
 VAL57   MET58   LEU59   TYR69   ALA70   MET71   LYS72   ILE73   LEU74   GLU91  
 LEU95   VAL104  LYS105  MET118  VAL119  MET120  GLU121  TYR122  VAL123  PRO124 
 GLY125  GLY126  GLU127  MET128  PHE129  TYR164  ASP166  LEU167  LYS168  PRO169 
 GLU170  ASN171  LEU172  LEU173  ILE174  GLN181  VAL182  THR183  ASP184  PHE185 
 GLY186  PHE187  GLY200  THR201  ASN326  PHE327  TYR330  ARG18   ARG19   ASN20  
 ALA21   ILE22   HIS23  

>  <Gold.Protein.RotatedAtoms>  (120) 
    9.8082   19.1026    7.5137 H   0  0  0  0  0  0  0  0  0  0  0  0  # atno 641  bound_to 637 
   16.6104   13.9500    7.2979 H   0  0  0  0  0  0  0  0  0  0  0  0  # atno 681  bound_to 677 
   20.2928   11.7107   -2.0292 H   0  0  0  0  0  0  0  0  0  0  0  0  # atno 702  bound_to 698 
   -7.1147   15.7601   -0.1245 H   0  0  0  0  0  0  0  0  0  0  0  0  # atno 965  bound_to 957 
    1.2301   12.2681   10.9204 H   0  0  0  0  0  0  0  0  0  0  0  0  # atno 1886 bound_to 1878
   10.8619    2.1852   -2.5367 H   0  0  0  0  0  0  0  0  0  0  0  0  # atno 2577 bound_to 2569
    7.5993    6.8686    1.2625 H   0  0  0  0  0  0  0  0  0  0  0  0  # atno 2891 bound_to 2887
   18.1959    2.0661   -1.1698 H   0  0  0  0  0  0  0  0  0  0  0  0  # atno 3175 bound_to 3171
   12.7498    9.9124   10.0397 H   0  0  0  0  0  0  0  0  0  0  0  0  # atno 5278 bound_to 5270
   17.0752   13.0076    6.1013 LP  0  0  0  0  0  0  0  0  0  0  0  0  # atno 5914 bound_to 677 
   15.6161   12.8072    6.8065 LP  0  0  0  0  0  0  0  0  0  0  0  0  # atno 5915 bound_to 677 
   19.3961   11.8275   -0.7179 LP  0  0  0  0  0  0  0  0  0  0  0  0  # atno 5920 bound_to 698 
   21.0003   11.5411   -0.6122 LP  0  0  0  0  0  0  0  0  0  0  0  0  # atno 5921 bound_to 698 
    9.2922    2.3506   -2.7463 LP  0  0  0  0  0  0  0  0  0  0  0  0  # atno 5950 bound_to 2569
   10.3417    3.4129   -3.4070 LP  0  0  0  0  0  0  0  0  0  0  0  0  # atno 5951 bound_to 2569
    8.3633    5.9743    0.1888 LP  0  0  0  0  0  0  0  0  0  0  0  0  # atno 5982 bound_to 2887
    7.3136    5.3019    1.2435 LP  0  0  0  0  0  0  0  0  0  0  0  0  # atno 5983 bound_to 2887
   19.3854    3.0271   -0.7256 LP  0  0  0  0  0  0  0  0  0  0  0  0  # atno 6000 bound_to 3171
   18.3533    2.4072    0.3777 LP  0  0  0  0  0  0  0  0  0  0  0  0  # atno 6001 bound_to 3171
   14.3421    9.9025   10.0777 LP  0  0  0  0  0  0  0  0  0  0  0  0  # atno 6004 bound_to 5270
   13.5398   10.2352    8.6949 LP  0  0  0  0  0  0  0  0  0  0  0  0  # atno 6005 bound_to 5270
   11.3670   19.1929    7.8247 LP  0  0  0  0  0  0  0  0  0  0  0  0  # atno 6055 bound_to 637 
   10.2678   19.7902    8.8742 LP  0  0  0  0  0  0  0  0  0  0  0  0  # atno 6056 bound_to 637 
    2.2710   11.2330   10.3039 LP  0  0  0  0  0  0  0  0  0  0  0  0  # atno 6063 bound_to 1878
    0.8194   10.7310   10.8583 LP  0  0  0  0  0  0  0  0  0  0  0  0  # atno 6064 bound_to 1878
   -6.4706   15.8649   -1.5769 LP  0  0  0  0  0  0  0  0  0  0  0  0  # atno 6067 bound_to 957 
   -6.8443   17.2086   -0.7275 LP  0  0  0  0  0  0  0  0  0  0  0  0  # atno 6068 bound_to 957 

>  <STRIFE_LigEff_Score>  (120) 
3.17444375

$$$$
unknown|pharmsElabsTestPreDocking|sdf|121|dock5
     RDKit          3D

 17 17  0  0  0  0  0  0  0  0999 V2000
   14.6330    9.1385    1.4144 C   0  0  0  0  0  0  0  0  0  0  0  0
   13.7308    7.9411    1.6608 C   0  0  0  0  0  0  0  0  0  0  0  0
   13.9797    6.7981    0.7887 N   0  0  0  0  0  0  0  0  0  0  0  0
   12.2488    8.2391    2.0477 C   0  0  0  0  0  0  0  0  0  0  0  0
   11.5308    7.2345    2.9624 C   0  0  0  0  0  0  0  0  0  0  0  0
   10.0035    7.4525    2.9399 C   0  0  0  0  0  0  0  0  0  0  0  0
    9.5721    8.8763    2.5770 C   0  0  0  0  0  0  0  0  0  0  0  0
    8.1023    9.1501    2.7221 C   0  0  0  0  0  0  0  0  0  0  0  0
    7.8114   10.2217    3.3085 O   0  0  0  0  0  0  0  0  0  0  0  0
    7.0347    8.2990    2.2834 N   0  0  0  0  0  0  0  0  0  0  0  0
    5.7145    8.6703    2.6150 N   0  0  0  0  0  0  0  0  0  0  0  0
    5.3687    9.0592    3.8027 C   0  0  0  0  0  0  0  0  0  0  0  0
    4.0098    9.4372    4.0925 N   0  0  0  0  0  0  0  0  0  0  0  0
    3.6057    9.8773    5.4261 C   0  0  0  0  0  0  0  0  0  0  0  0
    3.0422    9.3806    3.0760 N   0  0  0  0  0  0  0  0  0  0  0  0
   10.5321   10.0418    2.7568 C   0  0  0  0  0  0  0  0  0  0  0  0
   12.0197    9.6714    2.5720 C   0  0  0  0  0  0  0  0  0  0  0  0
  1  2  1  0
  2  3  1  0
  2  4  1  0
  4  5  1  0
  5  6  1  0
  6  7  1  0
  7  8  1  0
  8  9  2  0
  8 10  1  0
 10 11  1  0
 11 12  2  0
 12 13  1  0
 13 14  1  0
 13 15  1  0
  7 16  1  0
 16 17  1  0
 17  4  1  0
M  CHG  1   3   1
M  END
>  <EmbedRMS>  (121) 
0.2570984896337683

>  <Gold.Version>  (121) 
2020.3.0

>  <Gold.Id.Protein>  (121) 
unknown|1q8t_protein|pdb

>  <Gold.PLP.Fitness>  (121) 
46.5549

>  <Gold.PLP.PLP>  (121) 
-35.9186

>  <Gold.PLP.part.hbond>  (121) 
-3.9469

>  <Gold.PLP.part.metal>  (121) 
0.0000

>  <Gold.PLP.part.buried>  (121) 
-2.5313

>  <Gold.PLP.part.nonpolar>  (121) 
-29.8784

>  <Gold.PLP.part.repulsive>  (121) 
0.0937

>  <Gold.PLP.ligand.clash>  (121) 
0.0008

>  <Gold.PLP.ligand.torsion>  (121) 
1.1791

>  <Gold.PLP.Chemscore.Hbond>  (121) 
4.0000

>  <Gold.PLP.Chemscore.CHOScore>  (121) 
0.0000

>  <Gold.PLP.Chemscore.Metal>  (121) 
0.0000

>  <Gold.Chemscore.Hbonds>  (121) 
donor molecule, donor type, donor heavy atom, donor atom, acceptor molecule, acceptor atom, score
      L1  H     3    23       P1  2902  2.00
      L1  H     3    24       P1  2691  1.00
      L1  H    10    31       P1  2887  1.00

>  <Gold.PLP.Chemscore.Internal.Correction>  (121) 
0.9952

>  <Gold.PLP.Constraint>  (121) 
-0.0000

>  <Gold.Protein.RotatedTorsions>  (121) 
[  681  677  676  673 ] final   89.06 input -179.99 | X-H torsion
[  702  698  697  694 ] final  137.20 input  179.99 | X-H torsion
[ 2577 2569 2568 2566 ] final   19.07 input   -0.13 | X-H torsion
[ 2891 2887 2886 2883 ] final   27.00 input  179.98 | X-H torsion
[ 3175 3171 3170 3167 ] final   12.53 input -179.99 | X-H torsion
[ 5278 5270 5269 5267 ] final   38.95 input    0.55 | X-H torsion
[  641  637  636  633 ] final -106.95 input  179.99 | X-H torsion
[ 1886 1878 1877 1875 ] final  108.22 input    1.60 | X-H torsion
[  965  957  956  954 ] final  -44.88 input    0.45 | X-H torsion

>  <Gold.Protein.ActiveResidues>  (121) 
 LYS47   THR48   LEU49   GLY50   THR51   GLY52   SER53   PHE54   GLY55   ARG56  
 VAL57   MET58   LEU59   TYR69   ALA70   MET71   LYS72   ILE73   LEU74   GLU91  
 LEU95   VAL104  LYS105  MET118  VAL119  MET120  GLU121  TYR122  VAL123  PRO124 
 GLY125  GLY126  GLU127  MET128  PHE129  TYR164  ASP166  LEU167  LYS168  PRO169 
 GLU170  ASN171  LEU172  LEU173  ILE174  GLN181  VAL182  THR183  ASP184  PHE185 
 GLY186  PHE187  GLY200  THR201  ASN326  PHE327  TYR330  ARG18   ARG19   ASN20  
 ALA21   ILE22   HIS23  

>  <Gold.Protein.RotatedAtoms>  (121) 
   10.8651   18.9652    7.3603 H   0  0  0  0  0  0  0  0  0  0  0  0  # atno 641  bound_to 637 
   17.0197   13.0118    6.1142 H   0  0  0  0  0  0  0  0  0  0  0  0  # atno 681  bound_to 677 
   20.4442   11.6835   -2.0057 H   0  0  0  0  0  0  0  0  0  0  0  0  # atno 702  bound_to 698 
   -6.4892   15.8155   -1.4976 H   0  0  0  0  0  0  0  0  0  0  0  0  # atno 965  bound_to 957 
    1.3309   12.2959   10.8807 H   0  0  0  0  0  0  0  0  0  0  0  0  # atno 1886 bound_to 1878
    9.5251    3.1152   -3.2805 H   0  0  0  0  0  0  0  0  0  0  0  0  # atno 2577 bound_to 2569
    8.2697    5.7825    0.2259 H   0  0  0  0  0  0  0  0  0  0  0  0  # atno 2891 bound_to 2887
   19.0049    2.6457   -1.3196 H   0  0  0  0  0  0  0  0  0  0  0  0  # atno 3175 bound_to 3171
   12.7123   10.1051    9.2570 H   0  0  0  0  0  0  0  0  0  0  0  0  # atno 5278 bound_to 5270
   15.6086   12.8243    6.8281 LP  0  0  0  0  0  0  0  0  0  0  0  0  # atno 5914 bound_to 677 
   16.6518   13.9779    7.3256 LP  0  0  0  0  0  0  0  0  0  0  0  0  # atno 5915 bound_to 677 
   19.3381   11.8408   -0.8703 LP  0  0  0  0  0  0  0  0  0  0  0  0  # atno 5920 bound_to 698 
   20.8991   11.5566   -0.4844 LP  0  0  0  0  0  0  0  0  0  0  0  0  # atno 5921 bound_to 698 
   11.0773    2.9011   -2.9977 LP  0  0  0  0  0  0  0  0  0  0  0  0  # atno 5950 bound_to 2569
    9.9641    1.8831   -2.3724 LP  0  0  0  0  0  0  0  0  0  0  0  0  # atno 5951 bound_to 2569
    7.2254    5.4448    1.3800 LP  0  0  0  0  0  0  0  0  0  0  0  0  # atno 5982 bound_to 2887
    7.7461    6.9744    1.1433 LP  0  0  0  0  0  0  0  0  0  0  0  0  # atno 5983 bound_to 2887
   19.0136    2.8802    0.2554 LP  0  0  0  0  0  0  0  0  0  0  0  0  # atno 6000 bound_to 3171
   17.8737    1.9442   -0.4455 LP  0  0  0  0  0  0  0  0  0  0  0  0  # atno 6001 bound_to 3171
   13.6273    9.7857   10.5209 LP  0  0  0  0  0  0  0  0  0  0  0  0  # atno 6004 bound_to 5270
   14.2940   10.1493    9.0753 LP  0  0  0  0  0  0  0  0  0  0  0  0  # atno 6005 bound_to 5270
   10.9918   19.6961    8.7692 LP  0  0  0  0  0  0  0  0  0  0  0  0  # atno 6055 bound_to 637 
    9.5299   19.4317    8.0914 LP  0  0  0  0  0  0  0  0  0  0  0  0  # atno 6056 bound_to 637 
    2.2353   11.1208   10.3005 LP  0  0  0  0  0  0  0  0  0  0  0  0  # atno 6063 bound_to 1878
    0.7490   10.8140   10.9034 LP  0  0  0  0  0  0  0  0  0  0  0  0  # atno 6064 bound_to 1878
   -6.8100   17.2117   -0.8028 LP  0  0  0  0  0  0  0  0  0  0  0  0  # atno 6067 bound_to 957 
   -7.1636   15.8035   -0.0554 LP  0  0  0  0  0  0  0  0  0  0  0  0  # atno 6068 bound_to 957 

>  <STRIFE_LigEff_Score>  (121) 
2.738523529411765

$$$$
unknown|pharmsElabsTestPreDocking|sdf|122|dock5
     RDKit          3D

 19 20  0  0  0  0  0  0  0  0999 V2000
    2.9986   10.1014    4.5628 C   0  0  0  0  0  0  0  0  0  0  0  0
    4.4663    9.8497    4.4661 C   0  0  0  0  0  0  0  0  0  0  0  0
    5.2912   10.1031    5.5608 C   0  0  0  0  0  0  0  0  0  0  0  0
    6.6561    9.8633    5.4594 C   0  0  0  0  0  0  0  0  0  0  0  0
    7.2053    9.3668    4.2586 C   0  0  0  0  0  0  0  0  0  0  0  0
    8.6078    9.0871    4.0786 N   0  0  0  0  0  0  0  0  0  0  0  0
    9.3295    9.0465    2.8384 C   0  0  0  0  0  0  0  0  0  0  0  0
    8.7673    9.3108    1.7418 O   0  0  0  0  0  0  0  0  0  0  0  0
   10.7980    8.7128    2.8459 C   0  0  0  0  0  0  0  0  0  0  0  0
   10.9967    7.3216    2.2544 C   0  0  0  0  0  0  0  0  0  0  0  0
   12.4390    6.8612    2.3251 C   0  0  0  0  0  0  0  0  0  0  0  0
   13.4828    7.9523    2.0221 C   0  0  0  0  0  0  0  0  0  0  0  0
   14.8440    7.4472    1.4277 C   0  0  0  0  0  0  0  0  0  0  0  0
   15.7713    6.6974    2.3959 C   0  0  0  0  0  0  0  0  0  0  0  0
   14.6588    6.6659    0.1997 N   0  0  0  0  0  0  0  0  0  0  0  0
   13.0215    9.3871    1.6921 C   0  0  0  0  0  0  0  0  0  0  0  0
   11.5689    9.7638    2.0391 C   0  0  0  0  0  0  0  0  0  0  0  0
    6.3323    9.1285    3.1858 C   0  0  0  0  0  0  0  0  0  0  0  0
    5.0021    9.3716    3.3119 N   0  0  0  0  0  0  0  0  0  0  0  0
  1  2  1  0
  2  3  2  0
  3  4  1  0
  4  5  2  0
  5  6  1  0
  6  7  1  0
  7  8  2  0
  7  9  1  0
  9 10  1  0
 10 11  1  0
 11 12  1  0
 12 13  1  0
 13 14  1  0
 13 15  1  0
 12 16  1  0
 16 17  1  0
  5 18  1  0
 18 19  2  0
 19  2  1  0
 17  9  1  0
M  CHG  1  15   1
M  END
>  <EmbedRMS>  (122) 
0.1605149994458257

>  <Gold.Version>  (122) 
2020.3.0

>  <Gold.Id.Protein>  (122) 
unknown|1q8t_protein|pdb

>  <Gold.PLP.Fitness>  (122) 
47.4426

>  <Gold.PLP.PLP>  (122) 
-40.2046

>  <Gold.PLP.part.hbond>  (122) 
-2.0000

>  <Gold.PLP.part.metal>  (122) 
0.0000

>  <Gold.PLP.part.buried>  (122) 
0.7007

>  <Gold.PLP.part.nonpolar>  (122) 
-39.5582

>  <Gold.PLP.part.repulsive>  (122) 
0.1280

>  <Gold.PLP.ligand.clash>  (122) 
0.0000

>  <Gold.PLP.ligand.torsion>  (122) 
0.9613

>  <Gold.PLP.Chemscore.Hbond>  (122) 
2.8640

>  <Gold.PLP.Chemscore.CHOScore>  (122) 
0.0000

>  <Gold.PLP.Chemscore.Metal>  (122) 
0.0000

>  <Gold.Chemscore.Hbonds>  (122) 
donor molecule, donor type, donor heavy atom, donor atom, acceptor molecule, acceptor atom, score
      L1  H    15    36       P1  2902  2.00
      L1  H    15    38       P1  2691  0.86

>  <Gold.PLP.Chemscore.Internal.Correction>  (122) 
0.5686

>  <Gold.PLP.Constraint>  (122) 
-0.0000

>  <Gold.Protein.RotatedTorsions>  (122) 
[  681  677  676  673 ] final -151.57 input -179.99 | X-H torsion
[  702  698  697  694 ] final  -89.10 input  179.99 | X-H torsion
[ 2577 2569 2568 2566 ] final   -0.60 input   -0.13 | X-H torsion
[ 2891 2887 2886 2883 ] final  -36.99 input  179.98 | X-H torsion
[ 3175 3171 3170 3167 ] final  105.32 input -179.99 | X-H torsion
[ 5278 5270 5269 5267 ] final  165.35 input    0.55 | X-H torsion
[  641  637  636  633 ] final  108.32 input  179.99 | X-H torsion
[ 1886 1878 1877 1875 ] final  -49.22 input    1.60 | X-H torsion
[  965  957  956  954 ] final  159.38 input    0.45 | X-H torsion

>  <Gold.Protein.ActiveResidues>  (122) 
 LYS47   THR48   LEU49   GLY50   THR51   GLY52   SER53   PHE54   GLY55   ARG56  
 VAL57   MET58   LEU59   TYR69   ALA70   MET71   LYS72   ILE73   LEU74   GLU91  
 LEU95   VAL104  LYS105  MET118  VAL119  MET120  GLU121  TYR122  VAL123  PRO124 
 GLY125  GLY126  GLU127  MET128  PHE129  TYR164  ASP166  LEU167  LYS168  PRO169 
 GLU170  ASN171  LEU172  LEU173  ILE174  GLN181  VAL182  THR183  ASP184  PHE185 
 GLY186  PHE187  GLY200  THR201  ASN326  PHE327  TYR330  ARG18   ARG19   ASN20  
 ALA21   ILE22   HIS23  

>  <Gold.Protein.RotatedAtoms>  (122) 
   10.6080   19.7438    8.8569 H   0  0  0  0  0  0  0  0  0  0  0  0  # atno 641  bound_to 637 
   16.6433   13.9540    7.2815 H   0  0  0  0  0  0  0  0  0  0  0  0  # atno 681  bound_to 677 
   20.7059   11.6057   -0.3803 H   0  0  0  0  0  0  0  0  0  0  0  0  # atno 702  bound_to 698 
   -7.0142   16.9992   -0.3194 H   0  0  0  0  0  0  0  0  0  0  0  0  # atno 965  bound_to 957 
    1.8382   10.6896   10.3831 H   0  0  0  0  0  0  0  0  0  0  0  0  # atno 1886 bound_to 1878
    9.7686    3.2750   -3.3736 H   0  0  0  0  0  0  0  0  0  0  0  0  # atno 2577 bound_to 2569
    7.7200    5.1864    0.7197 H   0  0  0  0  0  0  0  0  0  0  0  0  # atno 2891 bound_to 2887
   18.0019    1.9629   -0.8610 H   0  0  0  0  0  0  0  0  0  0  0  0  # atno 3175 bound_to 3171
   14.3100   10.1389    9.1876 H   0  0  0  0  0  0  0  0  0  0  0  0  # atno 5278 bound_to 5270
   17.0506   12.9800    6.0892 LP  0  0  0  0  0  0  0  0  0  0  0  0  # atno 5914 bound_to 677 
   15.6061   12.8306    6.8360 LP  0  0  0  0  0  0  0  0  0  0  0  0  # atno 5915 bound_to 677 
   20.6595   11.6278   -1.9724 LP  0  0  0  0  0  0  0  0  0  0  0  0  # atno 5920 bound_to 698 
   19.3023   11.8514   -1.0922 LP  0  0  0  0  0  0  0  0  0  0  0  0  # atno 5921 bound_to 698 
   11.1170    2.6400   -2.8135 LP  0  0  0  0  0  0  0  0  0  0  0  0  # atno 5950 bound_to 2569
    9.6680    1.9759   -2.4585 LP  0  0  0  0  0  0  0  0  0  0  0  0  # atno 5951 bound_to 2569
    7.2335    6.4185    1.6039 LP  0  0  0  0  0  0  0  0  0  0  0  0  # atno 5982 bound_to 2887
    8.3164    6.6280    0.3997 LP  0  0  0  0  0  0  0  0  0  0  0  0  # atno 5983 bound_to 2887
   19.2724    2.8963   -1.0851 LP  0  0  0  0  0  0  0  0  0  0  0  0  # atno 6000 bound_to 3171
   18.6705    2.6466    0.4123 LP  0  0  0  0  0  0  0  0  0  0  0  0  # atno 6001 bound_to 3171
   12.7180   10.1159    9.1437 LP  0  0  0  0  0  0  0  0  0  0  0  0  # atno 6004 bound_to 5270
   13.5223    9.7835   10.5255 LP  0  0  0  0  0  0  0  0  0  0  0  0  # atno 6005 bound_to 5270
    9.5907   19.2474    7.7372 LP  0  0  0  0  0  0  0  0  0  0  0  0  # atno 6055 bound_to 637 
   11.2018   19.0604    7.5472 LP  0  0  0  0  0  0  0  0  0  0  0  0  # atno 6056 bound_to 637 
    0.5743   11.3673   11.0749 LP  0  0  0  0  0  0  0  0  0  0  0  0  # atno 6063 bound_to 1878
    1.8760   12.2584   10.6529 LP  0  0  0  0  0  0  0  0  0  0  0  0  # atno 6064 bound_to 1878
   -6.9901   15.4121   -0.4450 LP  0  0  0  0  0  0  0  0  0  0  0  0  # atno 6067 bound_to 957 
   -6.4307   16.3564   -1.6542 LP  0  0  0  0  0  0  0  0  0  0  0  0  # atno 6068 bound_to 957 

>  <STRIFE_LigEff_Score>  (122) 
2.496978947368421

$$$$
unknown|pharmsElabsTestPreDocking|sdf|123|dock4
     RDKit          3D

 17 17  0  0  0  0  0  0  0  0999 V2000
   14.8988    8.0013    2.7919 C   0  0  0  0  0  0  0  0  0  0  0  0
   13.7411    8.1875    1.7964 C   0  0  0  0  0  0  0  0  0  0  0  0
   13.7662    7.1220    0.7898 N   0  0  0  0  0  0  0  0  0  0  0  0
   12.3131    8.3958    2.4183 C   0  0  0  0  0  0  0  0  0  0  0  0
   11.2079    7.6058    1.7193 C   0  0  0  0  0  0  0  0  0  0  0  0
    9.8219    7.7508    2.3307 C   0  0  0  0  0  0  0  0  0  0  0  0
    9.5016    9.1662    2.7497 C   0  0  0  0  0  0  0  0  0  0  0  0
    8.0532    9.3926    3.0871 C   0  0  0  0  0  0  0  0  0  0  0  0
    7.4158   10.0582    2.2355 O   0  0  0  0  0  0  0  0  0  0  0  0
    7.3649    8.9157    4.2599 N   0  0  0  0  0  0  0  0  0  0  0  0
    6.0798    9.4604    4.6525 C   0  0  0  0  0  0  0  0  0  0  0  0
    6.0100   10.2004    5.7171 N   0  0  0  0  0  0  0  0  0  0  0  0
    4.9076    9.2558    3.8241 N   0  0  0  0  0  0  0  0  0  0  0  0
    3.6019    9.8037    4.2135 C   0  0  0  0  0  0  0  0  0  0  0  0
    5.0549    8.6018    2.5837 N   0  0  0  0  0  0  0  0  0  0  0  0
   10.5442    9.9007    3.5634 C   0  0  0  0  0  0  0  0  0  0  0  0
   11.9403    9.8024    2.9264 C   0  0  0  0  0  0  0  0  0  0  0  0
  1  2  1  0
  2  3  1  0
  2  4  1  0
  4  5  1  0
  5  6  1  0
  6  7  1  0
  7  8  1  0
  8  9  2  0
  8 10  1  0
 10 11  1  0
 11 12  2  0
 11 13  1  0
 13 14  1  0
 13 15  1  0
  7 16  1  0
 16 17  1  0
 17  4  1  0
M  CHG  1   3   1
M  END
>  <EmbedRMS>  (123) 
0.2696792242440413

>  <Gold.Version>  (123) 
2020.3.0

>  <Gold.Id.Protein>  (123) 
unknown|1q8t_protein|pdb

>  <Gold.PLP.Fitness>  (123) 
40.4327

>  <Gold.PLP.PLP>  (123) 
-34.3405

>  <Gold.PLP.part.hbond>  (123) 
-2.0000

>  <Gold.PLP.part.metal>  (123) 
0.0000

>  <Gold.PLP.part.buried>  (123) 
-4.9931

>  <Gold.PLP.part.nonpolar>  (123) 
-27.3199

>  <Gold.PLP.part.repulsive>  (123) 
0.0607

>  <Gold.PLP.ligand.clash>  (123) 
0.0000

>  <Gold.PLP.ligand.torsion>  (123) 
1.8526

>  <Gold.PLP.Chemscore.Hbond>  (123) 
2.9920

>  <Gold.PLP.Chemscore.CHOScore>  (123) 
0.0000

>  <Gold.PLP.Chemscore.Metal>  (123) 
0.0000

>  <Gold.Chemscore.Hbonds>  (123) 
donor molecule, donor type, donor heavy atom, donor atom, acceptor molecule, acceptor atom, score
      L1  H     3    23       P1  2902  2.00
      L1  H     3    24       P1  2691  0.99

>  <Gold.PLP.Chemscore.Internal.Correction>  (123) 
0.8213

>  <Gold.PLP.Constraint>  (123) 
-0.0000

>  <Gold.Protein.RotatedTorsions>  (123) 
[  681  677  676  673 ] final  -51.68 input -179.99 | X-H torsion
[  702  698  697  694 ] final  -46.89 input  179.99 | X-H torsion
[ 2577 2569 2568 2566 ] final   59.56 input   -0.13 | X-H torsion
[ 2891 2887 2886 2883 ] final  -39.59 input  179.98 | X-H torsion
[ 3175 3171 3170 3167 ] final -104.44 input -179.99 | X-H torsion
[ 5278 5270 5269 5267 ] final -120.87 input    0.55 | X-H torsion
[  641  637  636  633 ] final -159.34 input  179.99 | X-H torsion
[ 1886 1878 1877 1875 ] final  -80.06 input    1.60 | X-H torsion
[  965  957  956  954 ] final   74.37 input    0.45 | X-H torsion

>  <Gold.Protein.ActiveResidues>  (123) 
 LYS47   THR48   LEU49   GLY50   THR51   GLY52   SER53   PHE54   GLY55   ARG56  
 VAL57   MET58   LEU59   TYR69   ALA70   MET71   LYS72   ILE73   LEU74   GLU91  
 LEU95   VAL104  LYS105  MET118  VAL119  MET120  GLU121  TYR122  VAL123  PRO124 
 GLY125  GLY126  GLU127  MET128  PHE129  TYR164  ASP166  LEU167  LYS168  PRO169 
 GLU170  ASN171  LEU172  LEU173  ILE174  GLN181  VAL182  THR183  ASP184  PHE185 
 GLY186  PHE187  GLY200  THR201  ASN326  PHE327  TYR330  ARG18   ARG19   ASN20  
 ALA21   ILE22   HIS23  

>  <Gold.Protein.RotatedAtoms>  (123) 
   11.3456   19.2292    7.9298 H   0  0  0  0  0  0  0  0  0  0  0  0  # atno 641  bound_to 637 
   15.6157   13.0764    7.0480 H   0  0  0  0  0  0  0  0  0  0  0  0  # atno 681  bound_to 677 
   20.0828   11.7137   -0.2515 H   0  0  0  0  0  0  0  0  0  0  0  0  # atno 702  bound_to 698 
   -7.1291   15.8165   -0.0916 H   0  0  0  0  0  0  0  0  0  0  0  0  # atno 965  bound_to 957 
    1.4149   10.5434   10.5448 H   0  0  0  0  0  0  0  0  0  0  0  0  # atno 1886 bound_to 1878
    9.2851    2.6377   -2.9665 H   0  0  0  0  0  0  0  0  0  0  0  0  # atno 2577 bound_to 2569
    7.6931    5.1821    0.7499 H   0  0  0  0  0  0  0  0  0  0  0  0  # atno 2891 bound_to 2887
   19.0374    2.8676    0.1909 H   0  0  0  0  0  0  0  0  0  0  0  0  # atno 3175 bound_to 3171
   14.1717    9.8820   10.2231 H   0  0  0  0  0  0  0  0  0  0  0  0  # atno 5278 bound_to 5270
   16.9342   13.9649    7.1378 LP  0  0  0  0  0  0  0  0  0  0  0  0  # atno 5914 bound_to 677 
   16.8040   12.7694    6.0331 LP  0  0  0  0  0  0  0  0  0  0  0  0  # atno 5915 bound_to 677 
   21.1010   11.5397   -1.4641 LP  0  0  0  0  0  0  0  0  0  0  0  0  # atno 5920 bound_to 698 
   19.5164   11.8259   -1.7361 LP  0  0  0  0  0  0  0  0  0  0  0  0  # atno 5921 bound_to 698 
   10.6838    3.3147   -3.3137 LP  0  0  0  0  0  0  0  0  0  0  0  0  # atno 5950 bound_to 2569
   10.6103    1.9722   -2.3869 LP  0  0  0  0  0  0  0  0  0  0  0  0  # atno 5951 bound_to 2569
    7.2494    6.4572    1.5947 LP  0  0  0  0  0  0  0  0  0  0  0  0  # atno 5982 bound_to 2887
    8.3289    6.5939    0.3771 LP  0  0  0  0  0  0  0  0  0  0  0  0  # atno 5983 bound_to 2887
   17.8748    1.9515   -0.3960 LP  0  0  0  0  0  0  0  0  0  0  0  0  # atno 6000 bound_to 3171
   18.9782    2.6394   -1.3839 LP  0  0  0  0  0  0  0  0  0  0  0  0  # atno 6001 bound_to 3171
   13.7629   10.2304    8.7237 LP  0  0  0  0  0  0  0  0  0  0  0  0  # atno 6004 bound_to 5270
   12.6229    9.9393    9.8560 LP  0  0  0  0  0  0  0  0  0  0  0  0  # atno 6005 bound_to 5270
   10.1675   19.7820    8.8471 LP  0  0  0  0  0  0  0  0  0  0  0  0  # atno 6055 bound_to 637 
    9.8481   19.0679    7.4137 LP  0  0  0  0  0  0  0  0  0  0  0  0  # atno 6056 bound_to 637 
    0.6993   11.8520   11.1024 LP  0  0  0  0  0  0  0  0  0  0  0  0  # atno 6063 bound_to 1878
    2.1966   11.9276   10.4552 LP  0  0  0  0  0  0  0  0  0  0  0  0  # atno 6064 bound_to 1878
   -6.4846   15.8024   -1.5474 LP  0  0  0  0  0  0  0  0  0  0  0  0  # atno 6067 bound_to 957 
   -6.8151   17.2117   -0.7916 LP  0  0  0  0  0  0  0  0  0  0  0  0  # atno 6068 bound_to 957 

>  <STRIFE_LigEff_Score>  (123) 
2.3783941176470584

$$$$
unknown|pharmsElabsTestPreDocking|sdf|124|dock1
     RDKit          3D

 17 18  0  0  0  0  0  0  0  0999 V2000
   13.3254    7.3879    3.7804 C   0  0  0  0  0  0  0  0  0  0  0  0
   13.0753    8.1587    2.4691 C   0  0  0  0  0  0  0  0  0  0  0  0
   13.4527    7.3093    1.3321 N   0  0  0  0  0  0  0  0  0  0  0  0
   11.5891    8.6174    2.3927 C   0  0  0  0  0  0  0  0  0  0  0  0
   10.6578    7.3875    2.3960 C   0  0  0  0  0  0  0  0  0  0  0  0
    9.2171    7.8185    2.1610 C   0  0  0  0  0  0  0  0  0  0  0  0
    8.7663    8.7803    3.2650 C   0  0  0  0  0  0  0  0  0  0  0  0
    7.3398    9.1919    3.0448 C   0  0  0  0  0  0  0  0  0  0  0  0
    7.0084    9.7773    1.9773 O   0  0  0  0  0  0  0  0  0  0  0  0
    6.3749    8.9129    4.0666 N   0  0  0  0  0  0  0  0  0  0  0  0
    4.9789    9.2137    3.9877 C   0  0  0  0  0  0  0  0  0  0  0  0
    4.1191    9.6165    4.9926 C   0  0  0  0  0  0  0  0  0  0  0  0
    2.8925    9.7722    4.4601 N   0  0  0  0  0  0  0  0  0  0  0  0
    2.9614    9.4827    3.1691 N   0  0  0  0  0  0  0  0  0  0  0  0
    4.2182    9.1378    2.8456 C   0  0  0  0  0  0  0  0  0  0  0  0
    9.6908   10.0063    3.3562 C   0  0  0  0  0  0  0  0  0  0  0  0
   11.1587    9.5802    3.5273 C   0  0  0  0  0  0  0  0  0  0  0  0
  1  2  1  0
  2  3  1  0
  2  4  1  0
  4  5  1  0
  5  6  1  0
  6  7  1  0
  7  8  1  0
  8  9  2  0
  8 10  1  0
 10 11  1  0
 11 12  1  0
 12 13  2  0
 13 14  1  0
 14 15  1  0
  7 16  1  0
 16 17  1  0
 17  4  1  0
 15 11  2  0
M  CHG  1   3   1
M  END
>  <EmbedRMS>  (124) 
0.03057603030946681

>  <Gold.Version>  (124) 
2020.3.0

>  <Gold.Id.Protein>  (124) 
unknown|1q8t_protein|pdb

>  <Gold.PLP.Fitness>  (124) 
53.8995

>  <Gold.PLP.PLP>  (124) 
-39.4050

>  <Gold.PLP.part.hbond>  (124) 
-4.0000

>  <Gold.PLP.part.metal>  (124) 
0.0000

>  <Gold.PLP.part.buried>  (124) 
-5.2805

>  <Gold.PLP.part.nonpolar>  (124) 
-31.1702

>  <Gold.PLP.part.repulsive>  (124) 
0.3005

>  <Gold.PLP.ligand.clash>  (124) 
0.0000

>  <Gold.PLP.ligand.torsion>  (124) 
0.2841

>  <Gold.PLP.Chemscore.Hbond>  (124) 
5.0000

>  <Gold.PLP.Chemscore.CHOScore>  (124) 
0.0000

>  <Gold.PLP.Chemscore.Metal>  (124) 
0.0000

>  <Gold.Chemscore.Hbonds>  (124) 
donor molecule, donor type, donor heavy atom, donor atom, acceptor molecule, acceptor atom, score
      L1  H     3    23       P1  2691  1.00
      L1  H     3    24       P1  2902  2.00
      L1  H    14    33       P1  1855  1.00
      P1  H  1888  1903       L1    13  1.00

>  <Gold.PLP.Chemscore.Internal.Correction>  (124) 
0.0626

>  <Gold.PLP.Constraint>  (124) 
-0.0000

>  <Gold.Protein.RotatedTorsions>  (124) 
[  681  677  676  673 ] final  143.01 input -179.99 | X-H torsion
[  702  698  697  694 ] final   17.26 input  179.99 | X-H torsion
[ 2577 2569 2568 2566 ] final   64.57 input   -0.13 | X-H torsion
[ 2891 2887 2886 2883 ] final   61.96 input  179.98 | X-H torsion
[ 3175 3171 3170 3167 ] final  172.00 input -179.99 | X-H torsion
[ 5278 5270 5269 5267 ] final   26.09 input    0.55 | X-H torsion
[  641  637  636  633 ] final  142.52 input  179.99 | X-H torsion
[ 1886 1878 1877 1875 ] final  175.46 input    1.60 | X-H torsion
[  965  957  956  954 ] final  -88.01 input    0.45 | X-H torsion

>  <Gold.Protein.ActiveResidues>  (124) 
 LYS47   THR48   LEU49   GLY50   THR51   GLY52   SER53   PHE54   GLY55   ARG56  
 VAL57   MET58   LEU59   TYR69   ALA70   MET71   LYS72   ILE73   LEU74   GLU91  
 LEU95   VAL104  LYS105  MET118  VAL119  MET120  GLU121  TYR122  VAL123  PRO124 
 GLY125  GLY126  GLU127  MET128  PHE129  TYR164  ASP166  LEU167  LYS168  PRO169 
 GLU170  ASN171  LEU172  LEU173  ILE174  GLN181  VAL182  THR183  ASP184  PHE185 
 GLY186  PHE187  GLY200  THR201  ASN326  PHE327  TYR330  ARG18   ARG19   ASN20  
 ALA21   ILE22   HIS23  

>  <Gold.Protein.RotatedAtoms>  (124) 
   11.0803   19.6177    8.6617 H   0  0  0  0  0  0  0  0  0  0  0  0  # atno 641  bound_to 637 
   17.2408   13.6314    6.5915 H   0  0  0  0  0  0  0  0  0  0  0  0  # atno 681  bound_to 677 
   19.3847   11.8496   -0.8841 H   0  0  0  0  0  0  0  0  0  0  0  0  # atno 702  bound_to 698 
   -6.4421   16.4658   -1.5875 H   0  0  0  0  0  0  0  0  0  0  0  0  # atno 965  bound_to 957 
    0.6413   11.6080   11.0674 H   0  0  0  0  0  0  0  0  0  0  0  0  # atno 1886 bound_to 1878
    9.2850    2.5734   -2.9218 H   0  0  0  0  0  0  0  0  0  0  0  0  # atno 2577 bound_to 2569
    8.3392    6.3140    0.2727 H   0  0  0  0  0  0  0  0  0  0  0  0  # atno 2891 bound_to 2887
   18.0866    2.1517    0.1016 H   0  0  0  0  0  0  0  0  0  0  0  0  # atno 3175 bound_to 3171
   12.6514   10.0587    9.4425 H   0  0  0  0  0  0  0  0  0  0  0  0  # atno 5278 bound_to 5270
   16.1398   12.5425    6.2197 LP  0  0  0  0  0  0  0  0  0  0  0  0  # atno 5914 bound_to 677 
   15.8881   13.6076    7.4316 LP  0  0  0  0  0  0  0  0  0  0  0  0  # atno 5915 bound_to 677 
   20.8984   11.5567   -0.4837 LP  0  0  0  0  0  0  0  0  0  0  0  0  # atno 5920 bound_to 698 
   20.4533   11.6659   -2.0510 LP  0  0  0  0  0  0  0  0  0  0  0  0  # atno 5921 bound_to 698 
   10.6125    3.3462   -3.3409 LP  0  0  0  0  0  0  0  0  0  0  0  0  # atno 5950 bound_to 2569
   10.6817    2.0085   -2.4069 LP  0  0  0  0  0  0  0  0  0  0  0  0  # atno 5951 bound_to 2569
    7.5082    5.1561    0.9833 LP  0  0  0  0  0  0  0  0  0  0  0  0  # atno 5982 bound_to 2887
    7.3901    6.7037    1.4908 LP  0  0  0  0  0  0  0  0  0  0  0  0  # atno 5983 bound_to 2887
   18.5085    2.2857   -1.4280 LP  0  0  0  0  0  0  0  0  0  0  0  0  # atno 6000 bound_to 3171
   19.3452    3.0586   -0.2578 LP  0  0  0  0  0  0  0  0  0  0  0  0  # atno 6001 bound_to 3171
   13.8336    9.7986   10.4776 LP  0  0  0  0  0  0  0  0  0  0  0  0  # atno 6004 bound_to 5270
   14.1518   10.1852    8.9233 LP  0  0  0  0  0  0  0  0  0  0  0  0  # atno 6005 bound_to 5270
    9.5526   19.5007    8.2289 LP  0  0  0  0  0  0  0  0  0  0  0  0  # atno 6055 bound_to 637 
   10.7424   18.9400    7.2611 LP  0  0  0  0  0  0  0  0  0  0  0  0  # atno 6056 bound_to 637 
    2.0575   12.1191   10.5492 LP  0  0  0  0  0  0  0  0  0  0  0  0  # atno 6063 bound_to 1878
    1.6527   10.5397   10.4582 LP  0  0  0  0  0  0  0  0  0  0  0  0  # atno 6064 bound_to 1878
   -7.0798   16.9616   -0.2154 LP  0  0  0  0  0  0  0  0  0  0  0  0  # atno 6067 bound_to 957 
   -6.9435   15.3687   -0.5482 LP  0  0  0  0  0  0  0  0  0  0  0  0  # atno 6068 bound_to 957 

>  <STRIFE_LigEff_Score>  (124) 
3.170558823529412

$$$$
unknown|pharmsElabsTestPreDocking|sdf|125|dock5
     RDKit          3D

 16 16  0  0  0  0  0  0  0  0999 V2000
    4.7780    9.0521    3.1149 C   0  0  0  0  0  0  0  0  0  0  0  0
    4.9393    9.4904    4.5604 C   0  0  0  0  0  0  0  0  0  0  0  0
    3.6322    9.7685    5.2857 C   0  0  0  0  0  0  0  0  0  0  0  0
    6.0498   10.4764    4.9437 C   0  0  0  0  0  0  0  0  0  0  0  0
    7.4058    9.9604    4.8123 N   0  0  0  0  0  0  0  0  0  0  0  0
    7.8902    9.4843    3.5500 C   0  0  0  0  0  0  0  0  0  0  0  0
    7.3319    9.8451    2.4752 O   0  0  0  0  0  0  0  0  0  0  0  0
    9.0958    8.5869    3.5071 C   0  0  0  0  0  0  0  0  0  0  0  0
    9.3732    8.1274    2.0763 C   0  0  0  0  0  0  0  0  0  0  0  0
   10.5029    7.1084    2.0257 C   0  0  0  0  0  0  0  0  0  0  0  0
   11.7500    7.4465    2.8863 C   0  0  0  0  0  0  0  0  0  0  0  0
   13.1352    7.5440    2.2175 C   0  0  0  0  0  0  0  0  0  0  0  0
   14.3711    7.2879    3.0797 C   0  0  0  0  0  0  0  0  0  0  0  0
   13.2882    8.7763    1.4319 N   0  0  0  0  0  0  0  0  0  0  0  0
   11.5576    8.4407    4.0720 C   0  0  0  0  0  0  0  0  0  0  0  0
   10.3164    9.3287    4.0377 C   0  0  0  0  0  0  0  0  0  0  0  0
  1  2  1  0
  2  3  1  0
  2  4  1  0
  4  5  1  0
  5  6  1  0
  6  7  2  0
  6  8  1  0
  8  9  1  0
  9 10  1  0
 10 11  1  0
 11 12  1  0
 12 13  1  0
 12 14  1  0
 11 15  1  0
 15 16  1  0
 16  8  1  0
M  CHG  1  14   1
M  END
>  <EmbedRMS>  (125) 
0.28373172213554615

>  <Gold.Version>  (125) 
2020.3.0

>  <Gold.Id.Protein>  (125) 
unknown|1q8t_protein|pdb

>  <Gold.PLP.Fitness>  (125) 
45.6356

>  <Gold.PLP.PLP>  (125) 
-40.0099

>  <Gold.PLP.part.hbond>  (125) 
-0.9334

>  <Gold.PLP.part.metal>  (125) 
0.0000

>  <Gold.PLP.part.buried>  (125) 
-2.4311

>  <Gold.PLP.part.nonpolar>  (125) 
-37.1652

>  <Gold.PLP.part.repulsive>  (125) 
0.0000

>  <Gold.PLP.ligand.clash>  (125) 
0.0108

>  <Gold.PLP.ligand.torsion>  (125) 
0.4416

>  <Gold.PLP.Chemscore.Hbond>  (125) 
2.0000

>  <Gold.PLP.Chemscore.CHOScore>  (125) 
0.0000

>  <Gold.PLP.Chemscore.Metal>  (125) 
0.0000

>  <Gold.Chemscore.Hbonds>  (125) 
donor molecule, donor type, donor heavy atom, donor atom, acceptor molecule, acceptor atom, score
      L1  H    14    37       P1  2902  2.00

>  <Gold.PLP.Chemscore.Internal.Correction>  (125) 
0.5198

>  <Gold.PLP.Constraint>  (125) 
-0.0000

>  <Gold.Protein.RotatedTorsions>  (125) 
[  681  677  676  673 ] final  155.80 input -179.99 | X-H torsion
[  702  698  697  694 ] final  154.84 input  179.99 | X-H torsion
[ 2577 2569 2568 2566 ] final  176.90 input   -0.13 | X-H torsion
[ 2891 2887 2886 2883 ] final  -65.55 input  179.98 | X-H torsion
[ 3175 3171 3170 3167 ] final   15.46 input -179.99 | X-H torsion
[ 5278 5270 5269 5267 ] final   78.07 input    0.55 | X-H torsion
[  641  637  636  633 ] final -111.57 input  179.99 | X-H torsion
[ 1886 1878 1877 1875 ] final -157.91 input    1.60 | X-H torsion
[  965  957  956  954 ] final   76.84 input    0.45 | X-H torsion

>  <Gold.Protein.ActiveResidues>  (125) 
 LYS47   THR48   LEU49   GLY50   THR51   GLY52   SER53   PHE54   GLY55   ARG56  
 VAL57   MET58   LEU59   TYR69   ALA70   MET71   LYS72   ILE73   LEU74   GLU91  
 LEU95   VAL104  LYS105  MET118  VAL119  MET120  GLU121  TYR122  VAL123  PRO124 
 GLY125  GLY126  GLU127  MET128  PHE129  TYR164  ASP166  LEU167  LYS168  PRO169 
 GLU170  ASN171  LEU172  LEU173  ILE174  GLN181  VAL182  THR183  ASP184  PHE185 
 GLY186  PHE187  GLY200  THR201  ASN326  PHE327  TYR330  ARG18   ARG19   ASN20  
 ALA21   ILE22   HIS23  

>  <Gold.Protein.RotatedAtoms>  (125) 
   10.9284   18.9781    7.3926 H   0  0  0  0  0  0  0  0  0  0  0  0  # atno 641  bound_to 637 
   17.1902   13.7518    6.7422 H   0  0  0  0  0  0  0  0  0  0  0  0  # atno 681  bound_to 677 
   20.6940   11.6372   -1.9005 H   0  0  0  0  0  0  0  0  0  0  0  0  # atno 702  bound_to 698 
   -7.1366   15.8502   -0.0744 H   0  0  0  0  0  0  0  0  0  0  0  0  # atno 965  bound_to 957 
    0.6257   11.2007   11.0048 H   0  0  0  0  0  0  0  0  0  0  0  0  # atno 1886 bound_to 1878
   10.5523    1.9802   -2.4171 H   0  0  0  0  0  0  0  0  0  0  0  0  # atno 2577 bound_to 2569
    7.4393    5.2382    1.0572 H   0  0  0  0  0  0  0  0  0  0  0  0  # atno 2891 bound_to 2887
   18.9725    2.6193   -1.3382 H   0  0  0  0  0  0  0  0  0  0  0  0  # atno 3175 bound_to 3171
   13.1265   10.2131    8.8365 H   0  0  0  0  0  0  0  0  0  0  0  0  # atno 5278 bound_to 5270
   16.3262   12.5644    6.1259 LP  0  0  0  0  0  0  0  0  0  0  0  0  # atno 5914 bound_to 677 
   15.7548   13.4590    7.3668 LP  0  0  0  0  0  0  0  0  0  0  0  0  # atno 5915 bound_to 677 
   19.3018   11.8527   -1.1570 LP  0  0  0  0  0  0  0  0  0  0  0  0  # atno 5920 bound_to 698 
   20.6726   11.5934   -0.3084 LP  0  0  0  0  0  0  0  0  0  0  0  0  # atno 5921 bound_to 698 
    9.2398    2.6834   -2.9812 LP  0  0  0  0  0  0  0  0  0  0  0  0  # atno 5950 bound_to 2569
   10.7200    3.2959   -3.2980 LP  0  0  0  0  0  0  0  0  0  0  0  0  # atno 5951 bound_to 2569
    7.4593    6.7864    1.4305 LP  0  0  0  0  0  0  0  0  0  0  0  0  # atno 5982 bound_to 2887
    8.3860    6.2056    0.2179 LP  0  0  0  0  0  0  0  0  0  0  0  0  # atno 5983 bound_to 2887
   19.0467    2.9011    0.2273 LP  0  0  0  0  0  0  0  0  0  0  0  0  # atno 6000 bound_to 3171
   17.8747    1.9511   -0.3979 LP  0  0  0  0  0  0  0  0  0  0  0  0  # atno 6001 bound_to 3171
   13.0139    9.8154   10.3747 LP  0  0  0  0  0  0  0  0  0  0  0  0  # atno 6004 bound_to 5270
   14.4716   10.0059    9.6639 LP  0  0  0  0  0  0  0  0  0  0  0  0  # atno 6005 bound_to 5270
   10.9270   19.7170    8.8029 LP  0  0  0  0  0  0  0  0  0  0  0  0  # atno 6055 bound_to 637 
    9.5280   19.3972    8.0237 LP  0  0  0  0  0  0  0  0  0  0  0  0  # atno 6056 bound_to 637 
    1.7212   12.3237   10.7323 LP  0  0  0  0  0  0  0  0  0  0  0  0  # atno 6063 bound_to 1878
    2.0055   10.7640   10.3410 LP  0  0  0  0  0  0  0  0  0  0  0  0  # atno 6064 bound_to 1878
   -6.4935   15.7675   -1.5286 LP  0  0  0  0  0  0  0  0  0  0  0  0  # atno 6067 bound_to 957 
   -6.7983   17.2110   -0.8286 LP  0  0  0  0  0  0  0  0  0  0  0  0  # atno 6068 bound_to 957 

>  <STRIFE_LigEff_Score>  (125) 
2.852225

$$$$
unknown|pharmsElabsTestPreDocking|sdf|126|dock8
     RDKit          3D

 18 19  0  0  0  0  0  0  0  0999 V2000
   14.5433    9.2388    1.2823 C   0  0  0  0  0  0  0  0  0  0  0  0
   13.6821    8.0340    1.6222 C   0  0  0  0  0  0  0  0  0  0  0  0
   13.9448    6.8469    0.8161 N   0  0  0  0  0  0  0  0  0  0  0  0
   12.2014    8.3142    2.0228 C   0  0  0  0  0  0  0  0  0  0  0  0
   11.4953    7.2843    2.9185 C   0  0  0  0  0  0  0  0  0  0  0  0
    9.9686    7.4930    2.9064 C   0  0  0  0  0  0  0  0  0  0  0  0
    9.5325    8.9255    2.5888 C   0  0  0  0  0  0  0  0  0  0  0  0
    8.0612    9.1707    2.7170 C   0  0  0  0  0  0  0  0  0  0  0  0
    7.5557    9.6916    1.6990 O   0  0  0  0  0  0  0  0  0  0  0  0
    7.2384    8.8605    3.8656 N   0  0  0  0  0  0  0  0  0  0  0  0
    5.8338    9.2311    3.9993 C   0  0  0  0  0  0  0  0  0  0  0  0
    4.9900    9.1513    2.8746 C   0  0  0  0  0  0  0  0  0  0  0  0
    3.6320    9.4878    2.9704 C   0  0  0  0  0  0  0  0  0  0  0  0
    3.0956    9.9180    4.1847 C   0  0  0  0  0  0  0  0  0  0  0  0
    3.9078   10.0029    5.3078 C   0  0  0  0  0  0  0  0  0  0  0  0
    5.2519    9.6532    5.2265 C   0  0  0  0  0  0  0  0  0  0  0  0
   10.4800   10.0926    2.7927 C   0  0  0  0  0  0  0  0  0  0  0  0
   11.9668    9.7350    2.5797 C   0  0  0  0  0  0  0  0  0  0  0  0
  1  2  1  0
  2  3  1  0
  2  4  1  0
  4  5  1  0
  5  6  1  0
  6  7  1  0
  7  8  1  0
  8  9  2  0
  8 10  1  0
 10 11  1  0
 11 12  2  0
 12 13  1  0
 13 14  2  0
 14 15  1  0
 15 16  2  0
  7 17  1  0
 17 18  1  0
 18  4  1  0
 16 11  1  0
M  CHG  1   3   1
M  END
>  <EmbedRMS>  (126) 
0.24964892458419108

>  <Gold.Version>  (126) 
2020.3.0

>  <Gold.Id.Protein>  (126) 
unknown|1q8t_protein|pdb

>  <Gold.PLP.Fitness>  (126) 
54.7153

>  <Gold.PLP.PLP>  (126) 
-46.9175

>  <Gold.PLP.part.hbond>  (126) 
-1.9663

>  <Gold.PLP.part.metal>  (126) 
0.0000

>  <Gold.PLP.part.buried>  (126) 
-1.7356

>  <Gold.PLP.part.nonpolar>  (126) 
-44.0287

>  <Gold.PLP.part.repulsive>  (126) 
0.0881

>  <Gold.PLP.ligand.clash>  (126) 
0.0000

>  <Gold.PLP.ligand.torsion>  (126) 
1.0563

>  <Gold.PLP.Chemscore.Hbond>  (126) 
2.9920

>  <Gold.PLP.Chemscore.CHOScore>  (126) 
0.0000

>  <Gold.PLP.Chemscore.Metal>  (126) 
0.0000

>  <Gold.Chemscore.Hbonds>  (126) 
donor molecule, donor type, donor heavy atom, donor atom, acceptor molecule, acceptor atom, score
      L1  H     3    23       P1  2902  2.00
      L1  H     3    24       P1  2691  0.99

>  <Gold.PLP.Chemscore.Internal.Correction>  (126) 
0.9344

>  <Gold.PLP.Constraint>  (126) 
-0.0000

>  <Gold.Protein.RotatedTorsions>  (126) 
[  681  677  676  673 ] final -160.21 input -179.99 | X-H torsion
[  702  698  697  694 ] final -174.17 input  179.99 | X-H torsion
[ 2577 2569 2568 2566 ] final   81.30 input   -0.13 | X-H torsion
[ 2891 2887 2886 2883 ] final  -19.75 input  179.98 | X-H torsion
[ 3175 3171 3170 3167 ] final   99.23 input -179.99 | X-H torsion
[ 5278 5270 5269 5267 ] final -108.60 input    0.55 | X-H torsion
[  641  637  636  633 ] final   30.13 input  179.99 | X-H torsion
[ 1886 1878 1877 1875 ] final  133.83 input    1.60 | X-H torsion
[  965  957  956  954 ] final  115.43 input    0.45 | X-H torsion

>  <Gold.Protein.ActiveResidues>  (126) 
 LYS47   THR48   LEU49   GLY50   THR51   GLY52   SER53   PHE54   GLY55   ARG56  
 VAL57   MET58   LEU59   TYR69   ALA70   MET71   LYS72   ILE73   LEU74   GLU91  
 LEU95   VAL104  LYS105  MET118  VAL119  MET120  GLU121  TYR122  VAL123  PRO124 
 GLY125  GLY126  GLU127  MET128  PHE129  TYR164  ASP166  LEU167  LYS168  PRO169 
 GLU170  ASN171  LEU172  LEU173  ILE174  GLN181  VAL182  THR183  ASP184  PHE185 
 GLY186  PHE187  GLY200  THR201  ASN326  PHE327  TYR330  ARG18   ARG19   ASN20  
 ALA21   ILE22   HIS23  

>  <Gold.Protein.RotatedAtoms>  (126) 
    9.6326   19.5292    8.3299 H   0  0  0  0  0  0  0  0  0  0  0  0  # atno 641  bound_to 637 
   16.7599   13.9586    7.2138 H   0  0  0  0  0  0  0  0  0  0  0  0  # atno 681  bound_to 677 
   21.0155   11.5734   -1.5514 H   0  0  0  0  0  0  0  0  0  0  0  0  # atno 702  bound_to 698 
   -7.1685   16.4354    0.0080 H   0  0  0  0  0  0  0  0  0  0  0  0  # atno 965  bound_to 957 
    0.9885   12.1378   11.0047 H   0  0  0  0  0  0  0  0  0  0  0  0  # atno 1886 bound_to 1878
    9.3337    2.3649   -2.7735 H   0  0  0  0  0  0  0  0  0  0  0  0  # atno 2577 bound_to 2569
    7.8974    5.2599    0.5319 H   0  0  0  0  0  0  0  0  0  0  0  0  # atno 2891 bound_to 2887
   18.0405    1.9803   -0.9461 H   0  0  0  0  0  0  0  0  0  0  0  0  # atno 3175 bound_to 3171
   14.0242    9.8514   10.3412 H   0  0  0  0  0  0  0  0  0  0  0  0  # atno 5278 bound_to 5270
   16.9522   12.8836    6.0546 LP  0  0  0  0  0  0  0  0  0  0  0  0  # atno 5914 bound_to 677 
   15.5817   12.9222    6.9418 LP  0  0  0  0  0  0  0  0  0  0  0  0  # atno 5915 bound_to 677 
   19.4469   11.8363   -1.6391 LP  0  0  0  0  0  0  0  0  0  0  0  0  # atno 5920 bound_to 698 
   20.1893   11.6768   -0.1935 LP  0  0  0  0  0  0  0  0  0  0  0  0  # atno 5921 bound_to 698 
   10.3540    3.4115   -3.4051 LP  0  0  0  0  0  0  0  0  0  0  0  0  # atno 5950 bound_to 2569
   10.8890    2.1628   -2.4989 LP  0  0  0  0  0  0  0  0  0  0  0  0  # atno 5951 bound_to 2569
    7.1570    6.1475    1.6276 LP  0  0  0  0  0  0  0  0  0  0  0  0  # atno 5982 bound_to 2887
    8.2063    6.8217    0.5736 LP  0  0  0  0  0  0  0  0  0  0  0  0  # atno 5983 bound_to 2887
   19.3124    2.9368   -1.0027 LP  0  0  0  0  0  0  0  0  0  0  0  0  # atno 6000 bound_to 3171
   18.5898    2.5878    0.4195 LP  0  0  0  0  0  0  0  0  0  0  0  0  # atno 6001 bound_to 3171
   13.9517   10.2155    8.7923 LP  0  0  0  0  0  0  0  0  0  0  0  0  # atno 6004 bound_to 5270
   12.5893    9.9865    9.6631 LP  0  0  0  0  0  0  0  0  0  0  0  0  # atno 6005 bound_to 5270
   10.6207   18.9326    7.2332 LP  0  0  0  0  0  0  0  0  0  0  0  0  # atno 6055 bound_to 637 
   11.1990   19.6013    8.6062 LP  0  0  0  0  0  0  0  0  0  0  0  0  # atno 6056 bound_to 637 
    2.3026   11.5313   10.3408 LP  0  0  0  0  0  0  0  0  0  0  0  0  # atno 6063 bound_to 1878
    1.0421   10.5699   10.7326 LP  0  0  0  0  0  0  0  0  0  0  0  0  # atno 6064 bound_to 1878
   -6.6984   15.3789   -1.0865 LP  0  0  0  0  0  0  0  0  0  0  0  0  # atno 6067 bound_to 957 
   -6.5598   16.9833   -1.3574 LP  0  0  0  0  0  0  0  0  0  0  0  0  # atno 6068 bound_to 957 

>  <STRIFE_LigEff_Score>  (126) 
3.039738888888889

$$$$
unknown|pharmsElabsTestPreDocking|sdf|127|dock10
     RDKit          3D

 17 18  0  0  0  0  0  0  0  0999 V2000
   14.4614    9.1835    1.5075 C   0  0  0  0  0  0  0  0  0  0  0  0
   13.6167    7.9904    1.9543 C   0  0  0  0  0  0  0  0  0  0  0  0
   13.3392    7.0908    0.8262 N   0  0  0  0  0  0  0  0  0  0  0  0
   12.3600    8.2670    2.8029 C   0  0  0  0  0  0  0  0  0  0  0  0
   11.3553    7.1180    3.0850 C   0  0  0  0  0  0  0  0  0  0  0  0
    9.9228    7.3740    2.6404 C   0  0  0  0  0  0  0  0  0  0  0  0
    9.4575    8.7758    3.0293 C   0  0  0  0  0  0  0  0  0  0  0  0
    7.9976    8.9509    2.7102 C   0  0  0  0  0  0  0  0  0  0  0  0
    7.6102    8.9087    1.5106 O   0  0  0  0  0  0  0  0  0  0  0  0
    7.0698    9.1886    3.7782 N   0  0  0  0  0  0  0  0  0  0  0  0
    5.6540    9.3540    3.6294 C   0  0  0  0  0  0  0  0  0  0  0  0
    4.8750    9.0157    2.5336 C   0  0  0  0  0  0  0  0  0  0  0  0
    3.6020    9.3863    2.9068 C   0  0  0  0  0  0  0  0  0  0  0  0
    3.6432    9.9073    4.1457 N   0  0  0  0  0  0  0  0  0  0  0  0
    4.8863    9.8928    4.5945 N   0  0  0  0  0  0  0  0  0  0  0  0
   10.2904    9.8051    2.2731 C   0  0  0  0  0  0  0  0  0  0  0  0
   11.7769    9.7002    2.6085 C   0  0  0  0  0  0  0  0  0  0  0  0
  1  2  1  0
  2  3  1  0
  2  4  1  0
  4  5  1  0
  5  6  1  0
  6  7  1  0
  7  8  1  0
  8  9  2  0
  8 10  1  0
 10 11  1  0
 11 12  1  0
 12 13  2  0
 13 14  1  0
 14 15  1  0
  7 16  1  0
 16 17  1  0
 17  4  1  0
 15 11  2  0
M  CHG  1   3   1
M  END
>  <EmbedRMS>  (127) 
0.20783527019262546

>  <Gold.Version>  (127) 
2020.3.0

>  <Gold.Id.Protein>  (127) 
unknown|1q8t_protein|pdb

>  <Gold.PLP.Fitness>  (127) 
45.6049

>  <Gold.PLP.PLP>  (127) 
-33.0883

>  <Gold.PLP.part.hbond>  (127) 
-2.6855

>  <Gold.PLP.part.metal>  (127) 
0.0000

>  <Gold.PLP.part.buried>  (127) 
-4.3829

>  <Gold.PLP.part.nonpolar>  (127) 
-26.5549

>  <Gold.PLP.part.repulsive>  (127) 
0.1537

>  <Gold.PLP.ligand.clash>  (127) 
0.0000

>  <Gold.PLP.ligand.torsion>  (127) 
0.7835

>  <Gold.PLP.Chemscore.Hbond>  (127) 
3.5680

>  <Gold.PLP.Chemscore.CHOScore>  (127) 
0.9980

>  <Gold.PLP.Chemscore.Metal>  (127) 
0.0000

>  <Gold.Chemscore.Hbonds>  (127) 
donor molecule, donor type, donor heavy atom, donor atom, acceptor molecule, acceptor atom, score
      L1  H     3    22       P1  2691  0.69
      L1  H     3    24       P1  2902  2.00
      P1  H  2887  2891       L1     9  0.88
      L1  C    13    33       P1  1855  1.00

>  <Gold.PLP.Chemscore.Internal.Correction>  (127) 
0.3857

>  <Gold.PLP.Constraint>  (127) 
-0.0000

>  <Gold.Protein.RotatedTorsions>  (127) 
[  681  677  676  673 ] final -154.87 input -179.99 | X-H torsion
[  702  698  697  694 ] final   44.64 input  179.99 | X-H torsion
[ 2577 2569 2568 2566 ] final -132.54 input   -0.13 | X-H torsion
[ 2891 2887 2886 2883 ] final  126.66 input  179.98 | X-H torsion
[ 3175 3171 3170 3167 ] final  131.27 input -179.99 | X-H torsion
[ 5278 5270 5269 5267 ] final   29.99 input    0.55 | X-H torsion
[  641  637  636  633 ] final   -3.65 input  179.99 | X-H torsion
[ 1886 1878 1877 1875 ] final  101.62 input    1.60 | X-H torsion
[  965  957  956  954 ] final   46.87 input    0.45 | X-H torsion

>  <Gold.Protein.ActiveResidues>  (127) 
 LYS47   THR48   LEU49   GLY50   THR51   GLY52   SER53   PHE54   GLY55   ARG56  
 VAL57   MET58   LEU59   TYR69   ALA70   MET71   LYS72   ILE73   LEU74   GLU91  
 LEU95   VAL104  LYS105  MET118  VAL119  MET120  GLU121  TYR122  VAL123  PRO124 
 GLY125  GLY126  GLU127  MET128  PHE129  TYR164  ASP166  LEU167  LYS168  PRO169 
 GLU170  ASN171  LEU172  LEU173  ILE174  GLN181  VAL182  THR183  ASP184  PHE185 
 GLY186  PHE187  GLY200  THR201  ASN326  PHE327  TYR330  ARG18   ARG19   ASN20  
 ALA21   ILE22   HIS23  

>  <Gold.Protein.RotatedAtoms>  (127) 
    9.5975   19.2947    7.8668 H   0  0  0  0  0  0  0  0  0  0  0  0  # atno 641  bound_to 637 
   16.6885   13.9576    7.2570 H   0  0  0  0  0  0  0  0  0  0  0  0  # atno 681  bound_to 677 
   19.3674   11.8609   -1.3078 H   0  0  0  0  0  0  0  0  0  0  0  0  # atno 702  bound_to 698 
   -7.0089   15.5109   -0.3621 H   0  0  0  0  0  0  0  0  0  0  0  0  # atno 965  bound_to 957 
    1.4253   12.3095   10.8414 H   0  0  0  0  0  0  0  0  0  0  0  0  # atno 1886 bound_to 1878
   11.0426    2.4785   -2.7272 H   0  0  0  0  0  0  0  0  0  0  0  0  # atno 2577 bound_to 2569
    7.9421    6.9385    0.8823 H   0  0  0  0  0  0  0  0  0  0  0  0  # atno 2891 bound_to 2887
   17.9222    1.9554   -0.4669 H   0  0  0  0  0  0  0  0  0  0  0  0  # atno 3175 bound_to 3171
   12.6653   10.0731    9.3849 H   0  0  0  0  0  0  0  0  0  0  0  0  # atno 5278 bound_to 5270
   17.0145   12.9423    6.0742 LP  0  0  0  0  0  0  0  0  0  0  0  0  # atno 5914 bound_to 677 
   15.5945   12.8645    6.8768 LP  0  0  0  0  0  0  0  0  0  0  0  0  # atno 5915 bound_to 677 
   20.5273   11.6179   -0.2434 LP  0  0  0  0  0  0  0  0  0  0  0  0  # atno 5920 bound_to 698 
   20.8426   11.5929   -1.8455 LP  0  0  0  0  0  0  0  0  0  0  0  0  # atno 5921 bound_to 698 
    9.5152    2.0714   -2.5361 LP  0  0  0  0  0  0  0  0  0  0  0  0  # atno 5950 bound_to 2569
    9.9284    3.3831   -3.4166 LP  0  0  0  0  0  0  0  0  0  0  0  0  # atno 5951 bound_to 2569
    8.1705    5.4766    0.2929 LP  0  0  0  0  0  0  0  0  0  0  0  0  # atno 5982 bound_to 2887
    7.1457    5.7259    1.5396 LP  0  0  0  0  0  0  0  0  0  0  0  0  # atno 5983 bound_to 2887
   19.0279    2.6800   -1.3546 LP  0  0  0  0  0  0  0  0  0  0  0  0  # atno 6000 bound_to 3171
   18.9988    2.8708    0.2670 LP  0  0  0  0  0  0  0  0  0  0  0  0  # atno 6001 bound_to 3171
   13.7722    9.7935   10.4955 LP  0  0  0  0  0  0  0  0  0  0  0  0  # atno 6004 bound_to 5270
   14.1986   10.1752    8.9661 LP  0  0  0  0  0  0  0  0  0  0  0  0  # atno 6005 bound_to 5270
   11.1120   19.0205    7.4592 LP  0  0  0  0  0  0  0  0  0  0  0  0  # atno 6055 bound_to 637 
   10.7447   19.7603    8.8679 LP  0  0  0  0  0  0  0  0  0  0  0  0  # atno 6056 bound_to 637 
    2.1913   11.0216   10.3030 LP  0  0  0  0  0  0  0  0  0  0  0  0  # atno 6063 bound_to 1878
    0.6937   10.8989   10.9423 LP  0  0  0  0  0  0  0  0  0  0  0  0  # atno 6064 bound_to 1878
   -6.4303   16.2333   -1.6577 LP  0  0  0  0  0  0  0  0  0  0  0  0  # atno 6067 bound_to 957 
   -6.9960   17.1027   -0.3964 LP  0  0  0  0  0  0  0  0  0  0  0  0  # atno 6068 bound_to 957 

>  <STRIFE_LigEff_Score>  (127) 
2.682641176470588

$$$$
unknown|pharmsElabsTestPreDocking|sdf|128|dock10
     RDKit          3D

 18 19  0  0  0  0  0  0  0  0999 V2000
   14.7752    9.5138    0.7991 C   0  0  0  0  0  0  0  0  0  0  0  0
   14.2482    8.3191    1.5937 C   0  0  0  0  0  0  0  0  0  0  0  0
   14.0487    7.1539    0.7210 N   0  0  0  0  0  0  0  0  0  0  0  0
   13.0562    8.5471    2.5440 C   0  0  0  0  0  0  0  0  0  0  0  0
   12.1753    7.3435    2.9736 C   0  0  0  0  0  0  0  0  0  0  0  0
   10.6927    7.4683    2.6551 C   0  0  0  0  0  0  0  0  0  0  0  0
   10.1558    8.8506    3.0206 C   0  0  0  0  0  0  0  0  0  0  0  0
    8.6642    8.8995    2.8328 C   0  0  0  0  0  0  0  0  0  0  0  0
    8.1709    8.6960    1.6900 O   0  0  0  0  0  0  0  0  0  0  0  0
    7.8253    9.2027    3.9560 N   0  0  0  0  0  0  0  0  0  0  0  0
    6.3941    9.2621    3.9314 C   0  0  0  0  0  0  0  0  0  0  0  0
    5.5505    9.7257    4.9323 C   0  0  0  0  0  0  0  0  0  0  0  0
    4.2879    9.5588    4.4088 C   0  0  0  0  0  0  0  0  0  0  0  0
    4.4022    9.0388    3.1733 N   0  0  0  0  0  0  0  0  0  0  0  0
    3.2978    8.6868    2.2945 C   0  0  0  0  0  0  0  0  0  0  0  0
    5.6748    8.8435    2.8740 N   0  0  0  0  0  0  0  0  0  0  0  0
   10.8325    9.8968    2.1417 C   0  0  0  0  0  0  0  0  0  0  0  0
   12.3467    9.9207    2.3393 C   0  0  0  0  0  0  0  0  0  0  0  0
  1  2  1  0
  2  3  1  0
  2  4  1  0
  4  5  1  0
  5  6  1  0
  6  7  1  0
  7  8  1  0
  8  9  2  0
  8 10  1  0
 10 11  1  0
 11 12  1  0
 12 13  2  0
 13 14  1  0
 14 15  1  0
 14 16  1  0
  7 17  1  0
 17 18  1  0
 18  4  1  0
 16 11  2  0
M  CHG  1   3   1
M  END
>  <EmbedRMS>  (128) 
0.20203882927987918

>  <Gold.Version>  (128) 
2020.3.0

>  <Gold.Id.Protein>  (128) 
unknown|1q8t_protein|pdb

>  <Gold.PLP.Fitness>  (128) 
51.8777

>  <Gold.PLP.PLP>  (128) 
-42.7922

>  <Gold.PLP.part.hbond>  (128) 
-3.0000

>  <Gold.PLP.part.metal>  (128) 
0.0000

>  <Gold.PLP.part.buried>  (128) 
-5.9854

>  <Gold.PLP.part.nonpolar>  (128) 
-34.6382

>  <Gold.PLP.part.repulsive>  (128) 
0.0665

>  <Gold.PLP.ligand.clash>  (128) 
0.0000

>  <Gold.PLP.ligand.torsion>  (128) 
1.0537

>  <Gold.PLP.Chemscore.Hbond>  (128) 
3.6000

>  <Gold.PLP.Chemscore.CHOScore>  (128) 
0.0000

>  <Gold.PLP.Chemscore.Metal>  (128) 
0.0000

>  <Gold.Chemscore.Hbonds>  (128) 
donor molecule, donor type, donor heavy atom, donor atom, acceptor molecule, acceptor atom, score
      L1  H     3    24       P1  2902  2.00
      L1  H     3    25       P1  2691  0.88
      P1  H  2887  2891       L1     9  0.72

>  <Gold.PLP.Chemscore.Internal.Correction>  (128) 
0.3929

>  <Gold.PLP.Constraint>  (128) 
-0.0000

>  <Gold.Protein.RotatedTorsions>  (128) 
[  681  677  676  673 ] final  -16.60 input -179.99 | X-H torsion
[  702  698  697  694 ] final   50.03 input  179.99 | X-H torsion
[ 2577 2569 2568 2566 ] final -102.83 input   -0.13 | X-H torsion
[ 2891 2887 2886 2883 ] final  110.38 input  179.98 | X-H torsion
[ 3175 3171 3170 3167 ] final  -31.14 input -179.99 | X-H torsion
[ 5278 5270 5269 5267 ] final   84.92 input    0.55 | X-H torsion
[  641  637  636  633 ] final   89.33 input  179.99 | X-H torsion
[ 1886 1878 1877 1875 ] final -155.61 input    1.60 | X-H torsion
[  965  957  956  954 ] final  -16.27 input    0.45 | X-H torsion

>  <Gold.Protein.ActiveResidues>  (128) 
 LYS47   THR48   LEU49   GLY50   THR51   GLY52   SER53   PHE54   GLY55   ARG56  
 VAL57   MET58   LEU59   TYR69   ALA70   MET71   LYS72   ILE73   LEU74   GLU91  
 LEU95   VAL104  LYS105  MET118  VAL119  MET120  GLU121  TYR122  VAL123  PRO124 
 GLY125  GLY126  GLU127  MET128  PHE129  TYR164  ASP166  LEU167  LYS168  PRO169 
 GLU170  ASN171  LEU172  LEU173  ILE174  GLN181  VAL182  THR183  ASP184  PHE185 
 GLY186  PHE187  GLY200  THR201  ASN326  PHE327  TYR330  ARG18   ARG19   ASN20  
 ALA21   ILE22   HIS23  

>  <Gold.Protein.RotatedAtoms>  (128) 
   10.3130   19.7556    8.8478 H   0  0  0  0  0  0  0  0  0  0  0  0  # atno 641  bound_to 637 
   15.7230   12.7353    6.6434 H   0  0  0  0  0  0  0  0  0  0  0  0  # atno 681  bound_to 677 
   19.3874   11.8589   -1.3896 H   0  0  0  0  0  0  0  0  0  0  0  0  # atno 702  bound_to 698 
   -6.6206   15.5011   -1.2154 H   0  0  0  0  0  0  0  0  0  0  0  0  # atno 965  bound_to 957 
    0.6326   11.1666   10.9960 H   0  0  0  0  0  0  0  0  0  0  0  0  # atno 1886 bound_to 1878
   11.0412    2.8556   -2.9891 H   0  0  0  0  0  0  0  0  0  0  0  0  # atno 2577 bound_to 2569
    8.0919    6.8651    0.6911 H   0  0  0  0  0  0  0  0  0  0  0  0  # atno 2891 bound_to 2887
   19.3367    2.9553   -0.8319 H   0  0  0  0  0  0  0  0  0  0  0  0  # atno 3175 bound_to 3171
   13.2248   10.2243    8.7956 H   0  0  0  0  0  0  0  0  0  0  0  0  # atno 5278 bound_to 5270
   16.4380   13.9323    7.4129 LP  0  0  0  0  0  0  0  0  0  0  0  0  # atno 5914 bound_to 677 
   17.1872   13.1609    6.1839 LP  0  0  0  0  0  0  0  0  0  0  0  0  # atno 5915 bound_to 677 
   20.4434   11.6323   -0.2187 LP  0  0  0  0  0  0  0  0  0  0  0  0  # atno 5920 bound_to 698 
   20.9054   11.5806   -1.7841 LP  0  0  0  0  0  0  0  0  0  0  0  0  # atno 5921 bound_to 698 
    9.9338    1.8883   -2.3782 LP  0  0  0  0  0  0  0  0  0  0  0  0  # atno 5950 bound_to 2569
    9.5112    3.1693   -3.2987 LP  0  0  0  0  0  0  0  0  0  0  0  0  # atno 5951 bound_to 2569
    8.0215    5.2968    0.4224 LP  0  0  0  0  0  0  0  0  0  0  0  0  # atno 5982 bound_to 2887
    7.1370    5.9830    1.6113 LP  0  0  0  0  0  0  0  0  0  0  0  0  # atno 5983 bound_to 2887
   18.4541    2.4858    0.4075 LP  0  0  0  0  0  0  0  0  0  0  0  0  # atno 6000 bound_to 3171
   18.0840    2.0128   -1.1110 LP  0  0  0  0  0  0  0  0  0  0  0  0  # atno 6001 bound_to 3171
   12.9235    9.8306   10.3092 LP  0  0  0  0  0  0  0  0  0  0  0  0  # atno 6004 bound_to 5270
   14.4586    9.9790    9.7725 LP  0  0  0  0  0  0  0  0  0  0  0  0  # atno 6005 bound_to 5270
    9.7486   19.1186    7.5022 LP  0  0  0  0  0  0  0  0  0  0  0  0  # atno 6055 bound_to 637 
   11.3546   19.1768    7.7919 LP  0  0  0  0  0  0  0  0  0  0  0  0  # atno 6056 bound_to 637 
    1.6882   12.3327   10.7484 LP  0  0  0  0  0  0  0  0  0  0  0  0  # atno 6063 bound_to 1878
    2.0312   10.7908   10.3342 LP  0  0  0  0  0  0  0  0  0  0  0  0  # atno 6064 bound_to 1878
   -6.6243   17.0933   -1.2134 LP  0  0  0  0  0  0  0  0  0  0  0  0  # atno 6067 bound_to 957 
   -7.2109   16.2530    0.0579 LP  0  0  0  0  0  0  0  0  0  0  0  0  # atno 6068 bound_to 957 

>  <STRIFE_LigEff_Score>  (128) 
2.8820944444444443

$$$$
unknown|pharmsElabsTestPreDocking|sdf|129|dock9
     RDKit          3D

 16 16  0  0  0  0  0  0  0  0999 V2000
   13.7224    7.6915    3.7829 C   0  0  0  0  0  0  0  0  0  0  0  0
   12.8513    8.1032    2.5865 C   0  0  0  0  0  0  0  0  0  0  0  0
   13.1943    7.2948    1.4110 N   0  0  0  0  0  0  0  0  0  0  0  0
   11.3035    8.1572    2.8410 C   0  0  0  0  0  0  0  0  0  0  0  0
   10.4219    7.5257    1.7472 C   0  0  0  0  0  0  0  0  0  0  0  0
    9.0285    8.1140    1.6293 C   0  0  0  0  0  0  0  0  0  0  0  0
    8.4079    8.4227    2.9866 C   0  0  0  0  0  0  0  0  0  0  0  0
    6.9874    8.8904    2.7917 C   0  0  0  0  0  0  0  0  0  0  0  0
    6.5748    9.1843    1.6345 O   0  0  0  0  0  0  0  0  0  0  0  0
    6.1257    9.0216    3.9303 N   0  0  0  0  0  0  0  0  0  0  0  0
    4.7173    9.4454    3.8714 C   0  0  0  0  0  0  0  0  0  0  0  0
    4.1034    9.4610    5.2828 C   0  0  0  0  0  0  0  0  0  0  0  0
    4.6552   10.8702    3.2941 C   0  0  0  0  0  0  0  0  0  0  0  0
    3.9169    8.5072    2.9510 C   0  0  0  0  0  0  0  0  0  0  0  0
    9.2131    9.4999    3.7219 C   0  0  0  0  0  0  0  0  0  0  0  0
   10.7398    9.2918    3.7218 C   0  0  0  0  0  0  0  0  0  0  0  0
  1  2  1  0
  2  3  1  0
  2  4  1  0
  4  5  1  0
  5  6  1  0
  6  7  1  0
  7  8  1  0
  8  9  2  0
  8 10  1  0
 10 11  1  0
 11 12  1  0
 11 13  1  0
 11 14  1  0
  7 15  1  0
 15 16  1  0
 16  4  1  0
M  CHG  1   3   1
M  END
>  <EmbedRMS>  (129) 
0.17423024192686873

>  <Gold.Version>  (129) 
2020.3.0

>  <Gold.Id.Protein>  (129) 
unknown|1q8t_protein|pdb

>  <Gold.PLP.Fitness>  (129) 
41.5072

>  <Gold.PLP.PLP>  (129) 
-33.9517

>  <Gold.PLP.part.hbond>  (129) 
-2.1800

>  <Gold.PLP.part.metal>  (129) 
0.0000

>  <Gold.PLP.part.buried>  (129) 
-1.3835

>  <Gold.PLP.part.nonpolar>  (129) 
-31.0876

>  <Gold.PLP.part.repulsive>  (129) 
0.0252

>  <Gold.PLP.ligand.clash>  (129) 
0.0000

>  <Gold.PLP.ligand.torsion>  (129) 
1.0091

>  <Gold.PLP.Chemscore.Hbond>  (129) 
3.0000

>  <Gold.PLP.Chemscore.CHOScore>  (129) 
0.0000

>  <Gold.PLP.Chemscore.Metal>  (129) 
0.0000

>  <Gold.Chemscore.Hbonds>  (129) 
donor molecule, donor type, donor heavy atom, donor atom, acceptor molecule, acceptor atom, score
      L1  H     3    21       P1  2691  1.00
      L1  H     3    23       P1  2902  2.00

>  <Gold.PLP.Chemscore.Internal.Correction>  (129) 
0.5737

>  <Gold.PLP.Constraint>  (129) 
-0.0000

>  <Gold.Protein.RotatedTorsions>  (129) 
[  681  677  676  673 ] final  135.34 input -179.99 | X-H torsion
[  702  698  697  694 ] final   97.04 input  179.99 | X-H torsion
[ 2577 2569 2568 2566 ] final  -60.08 input   -0.13 | X-H torsion
[ 2891 2887 2886 2883 ] final   86.26 input  179.98 | X-H torsion
[ 3175 3171 3170 3167 ] final  100.34 input -179.99 | X-H torsion
[ 5278 5270 5269 5267 ] final  139.29 input    0.55 | X-H torsion
[  641  637  636  633 ] final -148.44 input  179.99 | X-H torsion
[ 1886 1878 1877 1875 ] final  -48.01 input    1.60 | X-H torsion
[  965  957  956  954 ] final  -18.47 input    0.45 | X-H torsion

>  <Gold.Protein.ActiveResidues>  (129) 
 LYS47   THR48   LEU49   GLY50   THR51   GLY52   SER53   PHE54   GLY55   ARG56  
 VAL57   MET58   LEU59   TYR69   ALA70   MET71   LYS72   ILE73   LEU74   GLU91  
 LEU95   VAL104  LYS105  MET118  VAL119  MET120  GLU121  TYR122  VAL123  PRO124 
 GLY125  GLY126  GLU127  MET128  PHE129  TYR164  ASP166  LEU167  LYS168  PRO169 
 GLU170  ASN171  LEU172  LEU173  ILE174  GLN181  VAL182  THR183  ASP184  PHE185 
 GLY186  PHE187  GLY200  THR201  ASN326  PHE327  TYR330  ARG18   ARG19   ASN20  
 ALA21   ILE22   HIS23  

>  <Gold.Protein.RotatedAtoms>  (129) 
   11.2967   19.1572    7.7836 H   0  0  0  0  0  0  0  0  0  0  0  0  # atno 641  bound_to 637 
   17.2520   13.5502    6.5041 H   0  0  0  0  0  0  0  0  0  0  0  0  # atno 681  bound_to 677 
   19.8419   11.7889   -1.9371 H   0  0  0  0  0  0  0  0  0  0  0  0  # atno 702  bound_to 698 
   -6.6084   15.5194   -1.2419 H   0  0  0  0  0  0  0  0  0  0  0  0  # atno 965  bound_to 957 
    1.8531   10.7001   10.3783 H   0  0  0  0  0  0  0  0  0  0  0  0  # atno 1886 bound_to 1878
   10.6545    3.2739   -3.3079 H   0  0  0  0  0  0  0  0  0  0  0  0  # atno 2577 bound_to 2569
    8.2601    6.6413    0.4427 H   0  0  0  0  0  0  0  0  0  0  0  0  # atno 2891 bound_to 2887
   18.0330    1.9767   -0.9310 H   0  0  0  0  0  0  0  0  0  0  0  0  # atno 3175 bound_to 3171
   14.0369   10.2075    8.8979 H   0  0  0  0  0  0  0  0  0  0  0  0  # atno 5278 bound_to 5270
   16.0344   12.5465    6.2890 LP  0  0  0  0  0  0  0  0  0  0  0  0  # atno 5914 bound_to 677 
   15.9817   13.6891    7.4544 LP  0  0  0  0  0  0  0  0  0  0  0  0  # atno 5915 bound_to 677 
   19.7146   11.7640   -0.3495 LP  0  0  0  0  0  0  0  0  0  0  0  0  # atno 5920 bound_to 698 
   21.1562   11.5225   -1.0775 LP  0  0  0  0  0  0  0  0  0  0  0  0  # atno 5921 bound_to 698 
   10.6156    1.9747   -2.3883 LP  0  0  0  0  0  0  0  0  0  0  0  0  # atno 5950 bound_to 2569
    9.2366    2.6424   -2.9530 LP  0  0  0  0  0  0  0  0  0  0  0  0  # atno 5951 bound_to 2569
    7.7663    5.1462    0.6819 LP  0  0  0  0  0  0  0  0  0  0  0  0  # atno 5982 bound_to 2887
    7.2152    6.3691    1.6133 LP  0  0  0  0  0  0  0  0  0  0  0  0  # atno 5983 bound_to 2887
   19.3057    2.9298   -1.0181 LP  0  0  0  0  0  0  0  0  0  0  0  0  # atno 6000 bound_to 3171
   18.6045    2.5986    0.4190 LP  0  0  0  0  0  0  0  0  0  0  0  0  # atno 6001 bound_to 3171
   12.5905   10.0176    9.5370 LP  0  0  0  0  0  0  0  0  0  0  0  0  # atno 6004 bound_to 5270
   13.9371    9.8097   10.4369 LP  0  0  0  0  0  0  0  0  0  0  0  0  # atno 6005 bound_to 5270
   10.3417   19.7929    8.8876 LP  0  0  0  0  0  0  0  0  0  0  0  0  # atno 6055 bound_to 637 
    9.7255   19.1326    7.5271 LP  0  0  0  0  0  0  0  0  0  0  0  0  # atno 6056 bound_to 637 
    0.5743   11.3477   11.0715 LP  0  0  0  0  0  0  0  0  0  0  0  0  # atno 6063 bound_to 1878
    1.8602   12.2669   10.6614 LP  0  0  0  0  0  0  0  0  0  0  0  0  # atno 6064 bound_to 1878
   -6.6375   17.1103   -1.1841 LP  0  0  0  0  0  0  0  0  0  0  0  0  # atno 6067 bound_to 957 
   -7.2107   16.2167    0.0566 LP  0  0  0  0  0  0  0  0  0  0  0  0  # atno 6068 bound_to 957 

>  <STRIFE_LigEff_Score>  (129) 
2.5942

$$$$
unknown|pharmsElabsTestPreDocking|sdf|130|dock4
     RDKit          3D

 19 19  0  0  0  0  0  0  0  0999 V2000
    7.0768   10.7012    6.2170 C   0  0  0  0  0  0  0  0  0  0  0  0
    5.8078   10.0839    5.7129 C   0  0  0  0  0  0  0  0  0  0  0  0
    5.4151   10.1111    4.4201 C   0  0  0  0  0  0  0  0  0  0  0  0
    6.2703   10.7940    3.3679 C   0  0  0  0  0  0  0  0  0  0  0  0
    7.5972   10.1913    3.3087 N   0  0  0  0  0  0  0  0  0  0  0  0
    7.8476    8.9156    2.7093 C   0  0  0  0  0  0  0  0  0  0  0  0
    6.9236    8.2981    2.1093 O   0  0  0  0  0  0  0  0  0  0  0  0
    9.2284    8.3280    2.7903 C   0  0  0  0  0  0  0  0  0  0  0  0
    9.7325    7.9580    1.3911 C   0  0  0  0  0  0  0  0  0  0  0  0
   11.1238    7.3444    1.4766 C   0  0  0  0  0  0  0  0  0  0  0  0
   12.1116    8.3472    2.1085 C   0  0  0  0  0  0  0  0  0  0  0  0
   13.5607    7.7788    2.0450 C   0  0  0  0  0  0  0  0  0  0  0  0
   13.7973    6.7977    3.2103 C   0  0  0  0  0  0  0  0  0  0  0  0
   13.8321    7.0921    0.7754 N   0  0  0  0  0  0  0  0  0  0  0  0
   11.6260    8.7012    3.5361 C   0  0  0  0  0  0  0  0  0  0  0  0
   10.2020    9.2833    3.5026 C   0  0  0  0  0  0  0  0  0  0  0  0
    4.1274    9.4733    4.0112 C   0  0  0  0  0  0  0  0  0  0  0  0
    3.7758    9.2708    2.5610 C   0  0  0  0  0  0  0  0  0  0  0  0
    3.3000    9.0634    4.9222 N   0  0  0  0  0  0  0  0  0  0  0  0
  1  2  1  0
  2  3  2  0
  3  4  1  0
  4  5  1  0
  5  6  1  0
  6  7  2  0
  6  8  1  0
  8  9  1  0
  9 10  1  0
 10 11  1  0
 11 12  1  0
 12 13  1  0
 12 14  1  0
 11 15  1  0
 15 16  1  0
  3 17  1  0
 17 18  1  0
 17 19  2  0
 16  8  1  0
M  CHG  1  14   1
M  END
>  <EmbedRMS>  (130) 
0.029553590920788075

>  <Gold.Version>  (130) 
2020.3.0

>  <Gold.Id.Protein>  (130) 
unknown|1q8t_protein|pdb

>  <Gold.PLP.Fitness>  (130) 
51.8480

>  <Gold.PLP.PLP>  (130) 
-38.1039

>  <Gold.PLP.part.hbond>  (130) 
-5.0000

>  <Gold.PLP.part.metal>  (130) 
0.0000

>  <Gold.PLP.part.buried>  (130) 
0.6403

>  <Gold.PLP.part.nonpolar>  (130) 
-35.0624

>  <Gold.PLP.part.repulsive>  (130) 
0.0654

>  <Gold.PLP.ligand.clash>  (130) 
0.0637

>  <Gold.PLP.ligand.torsion>  (130) 
0.5581

>  <Gold.PLP.Chemscore.Hbond>  (130) 
4.9440

>  <Gold.PLP.Chemscore.CHOScore>  (130) 
0.0000

>  <Gold.PLP.Chemscore.Metal>  (130) 
0.0000

>  <Gold.Chemscore.Hbonds>  (130) 
donor molecule, donor type, donor heavy atom, donor atom, acceptor molecule, acceptor atom, score
      L1  H    14    38       P1  2902  2.00
      L1  H    14    39       P1  2691  1.00
      P1  H  2887  2891       L1     7  1.00
      P1  H  1888  1903       L1    19  0.94

>  <Gold.PLP.Chemscore.Internal.Correction>  (130) 
0.0920

>  <Gold.PLP.Constraint>  (130) 
-0.0000

>  <Gold.Protein.RotatedTorsions>  (130) 
[  681  677  676  673 ] final  -22.62 input -179.99 | X-H torsion
[  702  698  697  694 ] final  137.76 input  179.99 | X-H torsion
[ 2577 2569 2568 2566 ] final  158.48 input   -0.13 | X-H torsion
[ 2891 2887 2886 2883 ] final  172.82 input  179.98 | X-H torsion
[ 3175 3171 3170 3167 ] final -157.26 input -179.99 | X-H torsion
[ 5278 5270 5269 5267 ] final  107.40 input    0.55 | X-H torsion
[  641  637  636  633 ] final  -76.83 input  179.99 | X-H torsion
[ 1886 1878 1877 1875 ] final -116.14 input    1.60 | X-H torsion
[  965  957  956  954 ] final   22.59 input    0.45 | X-H torsion

>  <Gold.Protein.ActiveResidues>  (130) 
 LYS47   THR48   LEU49   GLY50   THR51   GLY52   SER53   PHE54   GLY55   ARG56  
 VAL57   MET58   LEU59   TYR69   ALA70   MET71   LYS72   ILE73   LEU74   GLU91  
 LEU95   VAL104  LYS105  MET118  VAL119  MET120  GLU121  TYR122  VAL123  PRO124 
 GLY125  GLY126  GLU127  MET128  PHE129  TYR164  ASP166  LEU167  LYS168  PRO169 
 GLU170  ASN171  LEU172  LEU173  ILE174  GLN181  VAL182  THR183  ASP184  PHE185 
 GLY186  PHE187  GLY200  THR201  ASN326  PHE327  TYR330  ARG18   ARG19   ASN20  
 ALA21   ILE22   HIS23  

>  <Gold.Protein.RotatedAtoms>  (130) 
   10.4094   18.9441    7.2692 H   0  0  0  0  0  0  0  0  0  0  0  0  # atno 641  bound_to 637 
   15.6838   12.7827    6.7146 H   0  0  0  0  0  0  0  0  0  0  0  0  # atno 681  bound_to 677 
   20.4525   11.6819   -2.0036 H   0  0  0  0  0  0  0  0  0  0  0  0  # atno 702  bound_to 698 
   -6.8633   15.3819   -0.6847 H   0  0  0  0  0  0  0  0  0  0  0  0  # atno 965  bound_to 957 
    0.9346   10.6885   10.7813 H   0  0  0  0  0  0  0  0  0  0  0  0  # atno 1886 bound_to 1878
   10.2766    1.9076   -2.3869 H   0  0  0  0  0  0  0  0  0  0  0  0  # atno 2577 bound_to 2569
    7.4769    6.7683    1.3804 H   0  0  0  0  0  0  0  0  0  0  0  0  # atno 2891 bound_to 2887
   18.3995    2.4150    0.3429 H   0  0  0  0  0  0  0  0  0  0  0  0  # atno 3175 bound_to 3171
   13.5700   10.2403    8.7452 H   0  0  0  0  0  0  0  0  0  0  0  0  # atno 5278 bound_to 5270
   16.5285   13.9568    7.3810 LP  0  0  0  0  0  0  0  0  0  0  0  0  # atno 5914 bound_to 677 
   17.1379   13.0866    6.1408 LP  0  0  0  0  0  0  0  0  0  0  0  0  # atno 5915 bound_to 677 
   19.3356   11.8414   -0.8792 LP  0  0  0  0  0  0  0  0  0  0  0  0  # atno 5920 bound_to 698 
   20.8928   11.5576   -0.4778 LP  0  0  0  0  0  0  0  0  0  0  0  0  # atno 5921 bound_to 698 
    9.3150    2.9260   -3.1442 LP  0  0  0  0  0  0  0  0  0  0  0  0  # atno 5950 bound_to 2569
   10.9351    3.1297   -3.1669 LP  0  0  0  0  0  0  0  0  0  0  0  0  # atno 5951 bound_to 2569
    8.3854    6.1794    0.2123 LP  0  0  0  0  0  0  0  0  0  0  0  0  # atno 5982 bound_to 2887
    7.4204    5.2023    1.0960 LP  0  0  0  0  0  0  0  0  0  0  0  0  # atno 5983 bound_to 2887
   18.1430    2.0468   -1.1850 LP  0  0  0  0  0  0  0  0  0  0  0  0  # atno 6000 bound_to 3171
   19.3814    3.0204   -0.7548 LP  0  0  0  0  0  0  0  0  0  0  0  0  # atno 6001 bound_to 3171
   12.6938    9.8970   10.0302 LP  0  0  0  0  0  0  0  0  0  0  0  0  # atno 6004 bound_to 5270
   14.3251    9.8957   10.1045 LP  0  0  0  0  0  0  0  0  0  0  0  0  # atno 6005 bound_to 5270
   11.3145   19.5143    8.4484 LP  0  0  0  0  0  0  0  0  0  0  0  0  # atno 6055 bound_to 637 
    9.6871   19.6357    8.5081 LP  0  0  0  0  0  0  0  0  0  0  0  0  # atno 6056 bound_to 637 
    1.1049   12.2574   10.9927 LP  0  0  0  0  0  0  0  0  0  0  0  0  # atno 6063 bound_to 1878
    2.2966   11.3695   10.3159 LP  0  0  0  0  0  0  0  0  0  0  0  0  # atno 6064 bound_to 1878
   -6.4557   16.6239   -1.5937 LP  0  0  0  0  0  0  0  0  0  0  0  0  # atno 6067 bound_to 957 
   -7.1240   16.8479   -0.1207 LP  0  0  0  0  0  0  0  0  0  0  0  0  # atno 6068 bound_to 957 

>  <STRIFE_LigEff_Score>  (130) 
2.728842105263158

$$$$
unknown|pharmsElabsTestPreDocking|sdf|131|dock1
     RDKit          3D

 14 14  0  0  0  0  0  0  0  0999 V2000
    3.9075    9.8145    5.5973 C   0  0  0  0  0  0  0  0  0  0  0  0
    4.7341    9.9892    4.3293 C   0  0  0  0  0  0  0  0  0  0  0  0
    6.0509    9.3817    4.4908 N   0  0  0  0  0  0  0  0  0  0  0  0
    7.0565    9.4419    3.4720 C   0  0  0  0  0  0  0  0  0  0  0  0
    6.8507   10.0998    2.4135 O   0  0  0  0  0  0  0  0  0  0  0  0
    8.3712    8.7401    3.6827 C   0  0  0  0  0  0  0  0  0  0  0  0
    8.6762    7.8149    2.5061 C   0  0  0  0  0  0  0  0  0  0  0  0
    9.9258    6.9828    2.7574 C   0  0  0  0  0  0  0  0  0  0  0  0
   11.1384    7.7538    3.3443 C   0  0  0  0  0  0  0  0  0  0  0  0
   12.4842    7.7465    2.5921 C   0  0  0  0  0  0  0  0  0  0  0  0
   13.7643    7.9462    3.4031 C   0  0  0  0  0  0  0  0  0  0  0  0
   12.4669    8.6223    1.4124 N   0  0  0  0  0  0  0  0  0  0  0  0
   10.8463    9.0912    4.0911 C   0  0  0  0  0  0  0  0  0  0  0  0
    9.4987    9.7578    3.8204 C   0  0  0  0  0  0  0  0  0  0  0  0
  1  2  1  0
  2  3  1  0
  3  4  1  0
  4  5  2  0
  4  6  1  0
  6  7  1  0
  7  8  1  0
  8  9  1  0
  9 10  1  0
 10 11  1  0
 10 12  1  0
  9 13  1  0
 13 14  1  0
 14  6  1  0
M  CHG  1  12   1
M  END
>  <EmbedRMS>  (131) 
0.22880006867790334

>  <Gold.Version>  (131) 
2020.3.0

>  <Gold.Id.Protein>  (131) 
unknown|1q8t_protein|pdb

>  <Gold.PLP.Fitness>  (131) 
35.2753

>  <Gold.PLP.PLP>  (131) 
-29.5411

>  <Gold.PLP.part.hbond>  (131) 
-1.0000

>  <Gold.PLP.part.metal>  (131) 
0.0000

>  <Gold.PLP.part.buried>  (131) 
0.7765

>  <Gold.PLP.part.nonpolar>  (131) 
-28.8056

>  <Gold.PLP.part.repulsive>  (131) 
0.0000

>  <Gold.PLP.ligand.clash>  (131) 
0.0000

>  <Gold.PLP.ligand.torsion>  (131) 
0.3288

>  <Gold.PLP.Chemscore.Hbond>  (131) 
2.0000

>  <Gold.PLP.Chemscore.CHOScore>  (131) 
0.0000

>  <Gold.PLP.Chemscore.Metal>  (131) 
0.0000

>  <Gold.Chemscore.Hbonds>  (131) 
donor molecule, donor type, donor heavy atom, donor atom, acceptor molecule, acceptor atom, score
      L1  H    12    31       P1  2902  2.00

>  <Gold.PLP.Chemscore.Internal.Correction>  (131) 
0.3918

>  <Gold.PLP.Constraint>  (131) 
-0.0000

>  <Gold.Protein.RotatedTorsions>  (131) 
[  681  677  676  673 ] final  139.12 input -179.99 | X-H torsion
[  702  698  697  694 ] final   74.94 input  179.99 | X-H torsion
[ 2577 2569 2568 2566 ] final -159.04 input   -0.13 | X-H torsion
[ 2891 2887 2886 2883 ] final -145.76 input  179.98 | X-H torsion
[ 3175 3171 3170 3167 ] final -116.40 input -179.99 | X-H torsion
[ 5278 5270 5269 5267 ] final  -74.99 input    0.55 | X-H torsion
[  641  637  636  633 ] final  152.09 input  179.99 | X-H torsion
[ 1886 1878 1877 1875 ] final    1.77 input    1.60 | X-H torsion
[  965  957  956  954 ] final  -74.56 input    0.45 | X-H torsion

>  <Gold.Protein.ActiveResidues>  (131) 
 LYS47   THR48   LEU49   GLY50   THR51   GLY52   SER53   PHE54   GLY55   ARG56  
 VAL57   MET58   LEU59   TYR69   ALA70   MET71   LYS72   ILE73   LEU74   GLU91  
 LEU95   VAL104  LYS105  MET118  VAL119  MET120  GLU121  TYR122  VAL123  PRO124 
 GLY125  GLY126  GLU127  MET128  PHE129  TYR164  ASP166  LEU167  LYS168  PRO169 
 GLU170  ASN171  LEU172  LEU173  ILE174  GLN181  VAL182  THR183  ASP184  PHE185 
 GLY186  PHE187  GLY200  THR201  ASN326  PHE327  TYR330  ARG18   ARG19   ASN20  
 ALA21   ILE22   HIS23  

>  <Gold.Protein.RotatedAtoms>  (131) 
   11.1803   19.5628    8.5652 H   0  0  0  0  0  0  0  0  0  0  0  0  # atno 641  bound_to 637 
   17.2483   13.5909    6.5468 H   0  0  0  0  0  0  0  0  0  0  0  0  # atno 681  bound_to 677 
   19.5729   11.8326   -1.7278 H   0  0  0  0  0  0  0  0  0  0  0  0  # atno 702  bound_to 698 
   -6.4347   16.2573   -1.6082 H   0  0  0  0  0  0  0  0  0  0  0  0  # atno 965  bound_to 957 
    2.2424   11.3426   10.3163 H   0  0  0  0  0  0  0  0  0  0  0  0  # atno 1886 bound_to 1878
   10.8508    2.1741   -2.5299 H   0  0  0  0  0  0  0  0  0  0  0  0  # atno 2577 bound_to 2569
    7.1944    6.2375    1.5803 H   0  0  0  0  0  0  0  0  0  0  0  0  # atno 2891 bound_to 2887
   18.9034    2.7811    0.2879 H   0  0  0  0  0  0  0  0  0  0  0  0  # atno 3175 bound_to 3171
   13.5277    9.8110   10.4841 H   0  0  0  0  0  0  0  0  0  0  0  0  # atno 5278 bound_to 5270
   16.0855   12.5429    6.2537 LP  0  0  0  0  0  0  0  0  0  0  0  0  # atno 5914 bound_to 677 
   15.9344   13.6498    7.4448 LP  0  0  0  0  0  0  0  0  0  0  0  0  # atno 5915 bound_to 677 
   20.0430   11.7031   -0.2113 LP  0  0  0  0  0  0  0  0  0  0  0  0  # atno 5920 bound_to 698 
   21.1107   11.5375   -1.4358 LP  0  0  0  0  0  0  0  0  0  0  0  0  # atno 5921 bound_to 698 
    9.2862    2.3643   -2.7562 LP  0  0  0  0  0  0  0  0  0  0  0  0  # atno 5950 bound_to 2569
   10.3593    3.4108   -3.4042 LP  0  0  0  0  0  0  0  0  0  0  0  0  # atno 5951 bound_to 2569
    8.2499    6.7611    0.5087 LP  0  0  0  0  0  0  0  0  0  0  0  0  # atno 5982 bound_to 2887
    7.8532    5.1791    0.5892 LP  0  0  0  0  0  0  0  0  0  0  0  0  # atno 5983 bound_to 2887
   17.8830    1.9319   -0.5914 LP  0  0  0  0  0  0  0  0  0  0  0  0  # atno 6000 bound_to 3171
   19.1111    2.7500   -1.2905 LP  0  0  0  0  0  0  0  0  0  0  0  0  # atno 6001 bound_to 3171
   14.3481   10.1297    9.1567 LP  0  0  0  0  0  0  0  0  0  0  0  0  # atno 6004 bound_to 5270
   12.7152   10.1148    9.1483 LP  0  0  0  0  0  0  0  0  0  0  0  0  # atno 6005 bound_to 5270
    9.6010   19.5666    8.3633 LP  0  0  0  0  0  0  0  0  0  0  0  0  # atno 6055 bound_to 637 
   10.5888   18.9319    7.2284 LP  0  0  0  0  0  0  0  0  0  0  0  0  # atno 6056 bound_to 637 
    0.8903   10.6661   10.8159 LP  0  0  0  0  0  0  0  0  0  0  0  0  # atno 6063 bound_to 1878
    1.1344   12.2722   10.9822 LP  0  0  0  0  0  0  0  0  0  0  0  0  # atno 6064 bound_to 1878
   -7.0048   17.0913   -0.3775 LP  0  0  0  0  0  0  0  0  0  0  0  0  # atno 6067 bound_to 957 
   -7.0263   15.4585   -0.3644 LP  0  0  0  0  0  0  0  0  0  0  0  0  # atno 6068 bound_to 957 

>  <STRIFE_LigEff_Score>  (131) 
2.5196642857142857

$$$$
unknown|pharmsElabsTestPreDocking|sdf|132|dock5
     RDKit          3D

 18 19  0  0  0  0  0  0  0  0999 V2000
   13.4209    9.9052    1.0730 C   0  0  0  0  0  0  0  0  0  0  0  0
   13.3400    8.6449    1.9344 C   0  0  0  0  0  0  0  0  0  0  0  0
   13.6892    7.4506    1.1529 N   0  0  0  0  0  0  0  0  0  0  0  0
   12.0781    8.4318    2.7932 C   0  0  0  0  0  0  0  0  0  0  0  0
   11.0057    7.4047    2.3409 C   0  0  0  0  0  0  0  0  0  0  0  0
    9.6027    7.9615    2.1510 C   0  0  0  0  0  0  0  0  0  0  0  0
    9.2031    8.8753    3.3068 C   0  0  0  0  0  0  0  0  0  0  0  0
    7.7646    9.2934    3.1711 C   0  0  0  0  0  0  0  0  0  0  0  0
    7.3938    9.9440    2.1567 O   0  0  0  0  0  0  0  0  0  0  0  0
    6.8409    8.9654    4.2163 N   0  0  0  0  0  0  0  0  0  0  0  0
    5.4398    9.2768    4.2144 C   0  0  0  0  0  0  0  0  0  0  0  0
    4.6148    9.5348    5.2990 C   0  0  0  0  0  0  0  0  0  0  0  0
    3.3626    9.7735    4.8621 N   0  0  0  0  0  0  0  0  0  0  0  0
    3.3700    9.6736    3.5190 C   0  0  0  0  0  0  0  0  0  0  0  0
    4.6425    9.3671    3.0924 C   0  0  0  0  0  0  0  0  0  0  0  0
    5.0432    9.1822    1.7341 N   0  0  0  0  0  0  0  0  0  0  0  0
   10.1102   10.1007    3.3123 C   0  0  0  0  0  0  0  0  0  0  0  0
   11.5786    9.7271    3.5037 C   0  0  0  0  0  0  0  0  0  0  0  0
  1  2  1  0
  2  3  1  0
  2  4  1  0
  4  5  1  0
  5  6  1  0
  6  7  1  0
  7  8  1  0
  8  9  2  0
  8 10  1  0
 10 11  1  0
 11 12  2  0
 12 13  1  0
 13 14  1  0
 14 15  2  0
 15 16  1  0
  7 17  1  0
 17 18  1  0
 18  4  1  0
 15 11  1  0
M  CHG  1   3   1
M  END
>  <EmbedRMS>  (132) 
0.20222811455084339

>  <Gold.Version>  (132) 
2020.3.0

>  <Gold.Id.Protein>  (132) 
unknown|1q8t_protein|pdb

>  <Gold.PLP.Fitness>  (132) 
50.9722

>  <Gold.PLP.PLP>  (132) 
-40.3637

>  <Gold.PLP.part.hbond>  (132) 
-2.0000

>  <Gold.PLP.part.metal>  (132) 
0.0000

>  <Gold.PLP.part.buried>  (132) 
-5.8825

>  <Gold.PLP.part.nonpolar>  (132) 
-33.1895

>  <Gold.PLP.part.repulsive>  (132) 
0.6584

>  <Gold.PLP.ligand.clash>  (132) 
0.0000

>  <Gold.PLP.ligand.torsion>  (132) 
0.8115

>  <Gold.PLP.Chemscore.Hbond>  (132) 
2.9280

>  <Gold.PLP.Chemscore.CHOScore>  (132) 
1.0000

>  <Gold.PLP.Chemscore.Metal>  (132) 
0.0000

>  <Gold.Chemscore.Hbonds>  (132) 
donor molecule, donor type, donor heavy atom, donor atom, acceptor molecule, acceptor atom, score
      L1  H     3    23       P1  2902  2.00
      L1  H     3    24       P1  2691  0.93
      L1  C    14    35       P1  1855  1.00

>  <Gold.PLP.Chemscore.Internal.Correction>  (132) 
0.4476

>  <Gold.PLP.Constraint>  (132) 
-0.0000

>  <Gold.Protein.RotatedTorsions>  (132) 
[  681  677  676  673 ] final  147.09 input -179.99 | X-H torsion
[  702  698  697  694 ] final -148.44 input  179.99 | X-H torsion
[ 2577 2569 2568 2566 ] final -146.08 input   -0.13 | X-H torsion
[ 2891 2887 2886 2883 ] final   41.85 input  179.98 | X-H torsion
[ 3175 3171 3170 3167 ] final  122.94 input -179.99 | X-H torsion
[ 5278 5270 5269 5267 ] final   29.49 input    0.55 | X-H torsion
[  641  637  636  633 ] final  -12.20 input  179.99 | X-H torsion
[ 1886 1878 1877 1875 ] final  152.21 input    1.60 | X-H torsion
[  965  957  956  954 ] final  -53.32 input    0.45 | X-H torsion

>  <Gold.Protein.ActiveResidues>  (132) 
 LYS47   THR48   LEU49   GLY50   THR51   GLY52   SER53   PHE54   GLY55   ARG56  
 VAL57   MET58   LEU59   TYR69   ALA70   MET71   LYS72   ILE73   LEU74   GLU91  
 LEU95   VAL104  LYS105  MET118  VAL119  MET120  GLU121  TYR122  VAL123  PRO124 
 GLY125  GLY126  GLU127  MET128  PHE129  TYR164  ASP166  LEU167  LYS168  PRO169 
 GLU170  ASN171  LEU172  LEU173  ILE174  GLN181  VAL182  THR183  ASP184  PHE185 
 GLY186  PHE187  GLY200  THR201  ASN326  PHE327  TYR330  ARG18   ARG19   ASN20  
 ALA21   ILE22   HIS23  

>  <Gold.Protein.RotatedAtoms>  (132) 
    9.6371   19.2349    7.7542 H   0  0  0  0  0  0  0  0  0  0  0  0  # atno 641  bound_to 637 
   17.2289   13.6720    6.6392 H   0  0  0  0  0  0  0  0  0  0  0  0  # atno 681  bound_to 677 
   21.1148   11.5484   -1.1657 H   0  0  0  0  0  0  0  0  0  0  0  0  # atno 702  bound_to 698 
   -6.4642   15.9337   -1.5502 H   0  0  0  0  0  0  0  0  0  0  0  0  # atno 965  bound_to 957 
    0.7932   11.9353   11.0563 H   0  0  0  0  0  0  0  0  0  0  0  0  # atno 1886 bound_to 1878
   10.9656    2.3145   -2.6190 H   0  0  0  0  0  0  0  0  0  0  0  0  # atno 2577 bound_to 2569
    8.3255    6.0069    0.2150 H   0  0  0  0  0  0  0  0  0  0  0  0  # atno 2891 bound_to 2887
   17.9321    1.9459   -0.5962 H   0  0  0  0  0  0  0  0  0  0  0  0  # atno 3175 bound_to 3171
   12.6633   10.0712    9.3923 H   0  0  0  0  0  0  0  0  0  0  0  0  # atno 5278 bound_to 5270
   16.1980   12.5456    6.1867 LP  0  0  0  0  0  0  0  0  0  0  0  0  # atno 5914 bound_to 677 
   15.8423   13.5617    7.4145 LP  0  0  0  0  0  0  0  0  0  0  0  0  # atno 5915 bound_to 677 
   19.7411   11.7899   -1.9351 LP  0  0  0  0  0  0  0  0  0  0  0  0  # atno 5920 bound_to 698 
   19.7907   11.7496   -0.3033 LP  0  0  0  0  0  0  0  0  0  0  0  0  # atno 5921 bound_to 698 
    9.3770    2.2094   -2.6420 LP  0  0  0  0  0  0  0  0  0  0  0  0  # atno 5950 bound_to 2569
   10.1477    3.4178   -3.4246 LP  0  0  0  0  0  0  0  0  0  0  0  0  # atno 5951 bound_to 2569
    7.3266    5.2865    1.2248 LP  0  0  0  0  0  0  0  0  0  0  0  0  # atno 5982 bound_to 2887
    7.5862    6.8965    1.3099 LP  0  0  0  0  0  0  0  0  0  0  0  0  # atno 5983 bound_to 2887
   19.1179    2.7558   -1.2844 LP  0  0  0  0  0  0  0  0  0  0  0  0  # atno 6000 bound_to 3171
   18.8985    2.8051    0.3330 LP  0  0  0  0  0  0  0  0  0  0  0  0  # atno 6001 bound_to 3171
   13.7802    9.7941   10.4934 LP  0  0  0  0  0  0  0  0  0  0  0  0  # atno 6004 bound_to 5270
   14.1927   10.1765    8.9604 LP  0  0  0  0  0  0  0  0  0  0  0  0  # atno 6005 bound_to 5270
   11.2072   19.0633    7.5534 LP  0  0  0  0  0  0  0  0  0  0  0  0  # atno 6055 bound_to 637 
   10.6077   19.7805    8.8924 LP  0  0  0  0  0  0  0  0  0  0  0  0  # atno 6056 bound_to 637 
    2.2458   11.8176   10.4147 LP  0  0  0  0  0  0  0  0  0  0  0  0  # atno 6063 bound_to 1878
    1.3045   10.4967   10.6044 LP  0  0  0  0  0  0  0  0  0  0  0  0  # atno 6064 bound_to 1878
   -6.8675   17.2025   -0.6768 LP  0  0  0  0  0  0  0  0  0  0  0  0  # atno 6067 bound_to 957 
   -7.1326   15.6882   -0.1261 LP  0  0  0  0  0  0  0  0  0  0  0  0  # atno 6068 bound_to 957 

>  <STRIFE_LigEff_Score>  (132) 
2.831788888888889

$$$$
unknown|pharmsElabsTestPreDocking|sdf|133|dock5
     RDKit          3D

 18 19  0  0  0  0  0  0  0  0999 V2000
   14.0440    9.5062    1.1115 C   0  0  0  0  0  0  0  0  0  0  0  0
   13.5388    8.2385    1.8004 C   0  0  0  0  0  0  0  0  0  0  0  0
   13.3832    7.1419    0.8350 N   0  0  0  0  0  0  0  0  0  0  0  0
   12.3281    8.3591    2.7464 C   0  0  0  0  0  0  0  0  0  0  0  0
   11.2339    7.2581    2.7378 C   0  0  0  0  0  0  0  0  0  0  0  0
    9.8213    7.7390    2.4421 C   0  0  0  0  0  0  0  0  0  0  0  0
    9.4859    9.0041    3.2279 C   0  0  0  0  0  0  0  0  0  0  0  0
    8.0410    9.3745    3.0331 C   0  0  0  0  0  0  0  0  0  0  0  0
    7.6912   10.0154    2.0051 O   0  0  0  0  0  0  0  0  0  0  0  0
    7.0862    9.0128    4.0383 N   0  0  0  0  0  0  0  0  0  0  0  0
    5.6768    9.2773    3.9786 C   0  0  0  0  0  0  0  0  0  0  0  0
    4.7982    9.4995    5.0285 C   0  0  0  0  0  0  0  0  0  0  0  0
    3.5584    9.6997    4.5400 N   0  0  0  0  0  0  0  0  0  0  0  0
    3.6261    9.6102    3.1979 C   0  0  0  0  0  0  0  0  0  0  0  0
    4.9252    9.3495    2.8241 C   0  0  0  0  0  0  0  0  0  0  0  0
    5.3891    9.1884    1.4831 N   0  0  0  0  0  0  0  0  0  0  0  0
   10.3892   10.1390    2.7582 C   0  0  0  0  0  0  0  0  0  0  0  0
   11.8669    9.8292    2.9881 C   0  0  0  0  0  0  0  0  0  0  0  0
  1  2  1  0
  2  3  1  0
  2  4  1  0
  4  5  1  0
  5  6  1  0
  6  7  1  0
  7  8  1  0
  8  9  2  0
  8 10  1  0
 10 11  1  0
 11 12  2  0
 12 13  1  0
 13 14  1  0
 14 15  2  0
 15 16  1  0
  7 17  1  0
 17 18  1  0
 18  4  1  0
 15 11  1  0
M  CHG  1   3   1
M  END
>  <EmbedRMS>  (133) 
0.20222811455084339

>  <Gold.Version>  (133) 
2020.3.0

>  <Gold.Id.Protein>  (133) 
unknown|1q8t_protein|pdb

>  <Gold.PLP.Fitness>  (133) 
45.9523

>  <Gold.PLP.PLP>  (133) 
-38.3371

>  <Gold.PLP.part.hbond>  (133) 
-1.8739

>  <Gold.PLP.part.metal>  (133) 
0.0000

>  <Gold.PLP.part.buried>  (133) 
-5.1084

>  <Gold.PLP.part.nonpolar>  (133) 
-31.3395

>  <Gold.PLP.part.repulsive>  (133) 
0.1406

>  <Gold.PLP.ligand.clash>  (133) 
0.0000

>  <Gold.PLP.ligand.torsion>  (133) 
2.1013

>  <Gold.PLP.Chemscore.Hbond>  (133) 
2.8000

>  <Gold.PLP.Chemscore.CHOScore>  (133) 
1.0000

>  <Gold.PLP.Chemscore.Metal>  (133) 
0.0000

>  <Gold.Chemscore.Hbonds>  (133) 
donor molecule, donor type, donor heavy atom, donor atom, acceptor molecule, acceptor atom, score
      L1  H     3    23       P1  2902  2.00
      L1  H     3    24       P1  2691  0.80
      L1  C    14    35       P1  1855  1.00

>  <Gold.PLP.Chemscore.Internal.Correction>  (133) 
0.4179

>  <Gold.PLP.Constraint>  (133) 
-0.0000

>  <Gold.Protein.RotatedTorsions>  (133) 
[  681  677  676  673 ] final  173.87 input -179.99 | X-H torsion
[  702  698  697  694 ] final   55.68 input  179.99 | X-H torsion
[ 2577 2569 2568 2566 ] final  177.55 input   -0.13 | X-H torsion
[ 2891 2887 2886 2883 ] final   90.32 input  179.98 | X-H torsion
[ 3175 3171 3170 3167 ] final  -64.82 input -179.99 | X-H torsion
[ 5278 5270 5269 5267 ] final  -15.62 input    0.55 | X-H torsion
[  641  637  636  633 ] final -127.80 input  179.99 | X-H torsion
[ 1886 1878 1877 1875 ] final  -27.09 input    1.60 | X-H torsion
[  965  957  956  954 ] final   29.48 input    0.45 | X-H torsion

>  <Gold.Protein.ActiveResidues>  (133) 
 LYS47   THR48   LEU49   GLY50   THR51   GLY52   SER53   PHE54   GLY55   ARG56  
 VAL57   MET58   LEU59   TYR69   ALA70   MET71   LYS72   ILE73   LEU74   GLU91  
 LEU95   VAL104  LYS105  MET118  VAL119  MET120  GLU121  TYR122  VAL123  PRO124 
 GLY125  GLY126  GLU127  MET128  PHE129  TYR164  ASP166  LEU167  LYS168  PRO169 
 GLU170  ASN171  LEU172  LEU173  ILE174  GLN181  VAL182  THR183  ASP184  PHE185 
 GLY186  PHE187  GLY200  THR201  ASN326  PHE327  TYR330  ARG18   ARG19   ASN20  
 ALA21   ILE22   HIS23  

>  <Gold.Protein.RotatedAtoms>  (133) 
   11.1245   19.0419    7.5388 H   0  0  0  0  0  0  0  0  0  0  0  0  # atno 641  bound_to 637 
   17.0555   13.8805    6.9532 H   0  0  0  0  0  0  0  0  0  0  0  0  # atno 681  bound_to 677 
   19.4165   11.8554   -1.4729 H   0  0  0  0  0  0  0  0  0  0  0  0  # atno 702  bound_to 698 
   -6.9068   15.4030   -0.5886 H   0  0  0  0  0  0  0  0  0  0  0  0  # atno 965  bound_to 957 
    2.0772   10.9280   10.3184 H   0  0  0  0  0  0  0  0  0  0  0  0  # atno 1886 bound_to 1878
   10.5615    1.9840   -2.4191 H   0  0  0  0  0  0  0  0  0  0  0  0  # atno 2577 bound_to 2569
    8.2374    6.6874    0.4800 H   0  0  0  0  0  0  0  0  0  0  0  0  # atno 2891 bound_to 2887
   19.3330    3.0200   -0.3169 H   0  0  0  0  0  0  0  0  0  0  0  0  # atno 3175 bound_to 3171
   12.7580    9.9091   10.0535 H   0  0  0  0  0  0  0  0  0  0  0  0  # atno 5278 bound_to 5270
   16.5973   12.6539    6.0467 LP  0  0  0  0  0  0  0  0  0  0  0  0  # atno 5914 bound_to 677 
   15.6255   13.2340    7.2239 LP  0  0  0  0  0  0  0  0  0  0  0  0  # atno 5915 bound_to 677 
   20.3535   11.6479   -0.2015 LP  0  0  0  0  0  0  0  0  0  0  0  0  # atno 5920 bound_to 698 
   20.9648   11.5687   -1.7137 LP  0  0  0  0  0  0  0  0  0  0  0  0  # atno 5921 bound_to 698 
    9.2389    2.6746   -2.9752 LP  0  0  0  0  0  0  0  0  0  0  0  0  # atno 5950 bound_to 2569
   10.7113    3.3006   -3.3020 LP  0  0  0  0  0  0  0  0  0  0  0  0  # atno 5951 bound_to 2569
    7.8107    5.1608    0.6340 LP  0  0  0  0  0  0  0  0  0  0  0  0  # atno 5982 bound_to 2887
    7.1947    6.3060    1.6218 LP  0  0  0  0  0  0  0  0  0  0  0  0  # atno 5983 bound_to 2887
   18.0747    2.1735    0.1687 LP  0  0  0  0  0  0  0  0  0  0  0  0  # atno 6000 bound_to 3171
   18.4673    2.2570   -1.4142 LP  0  0  0  0  0  0  0  0  0  0  0  0  # atno 6001 bound_to 3171
   14.3507    9.9062   10.0632 LP  0  0  0  0  0  0  0  0  0  0  0  0  # atno 6004 bound_to 5270
   13.5225   10.2350    8.6948 LP  0  0  0  0  0  0  0  0  0  0  0  0  # atno 6005 bound_to 5270
   10.6787   19.7712    8.8821 LP  0  0  0  0  0  0  0  0  0  0  0  0  # atno 6055 bound_to 637 
    9.5698   19.2758    7.7905 LP  0  0  0  0  0  0  0  0  0  0  0  0  # atno 6056 bound_to 637 
    0.6359   11.0213   10.9887 LP  0  0  0  0  0  0  0  0  0  0  0  0  # atno 6063 bound_to 1878
    1.5628   12.3534   10.8072 LP  0  0  0  0  0  0  0  0  0  0  0  0  # atno 6064 bound_to 1878
   -6.4415   16.5166   -1.6271 LP  0  0  0  0  0  0  0  0  0  0  0  0  # atno 6067 bound_to 957 
   -7.0923   16.9329   -0.1885 LP  0  0  0  0  0  0  0  0  0  0  0  0  # atno 6068 bound_to 957 

>  <STRIFE_LigEff_Score>  (133) 
2.5529055555555558

$$$$
unknown|pharmsElabsTestPreDocking|sdf|134|dock1
     RDKit          3D

 17 17  0  0  0  0  0  0  0  0999 V2000
    3.6809   10.0918    5.4174 C   0  0  0  0  0  0  0  0  0  0  0  0
    4.9625    9.8097    5.1715 C   0  0  0  0  0  0  0  0  0  0  0  0
    5.5351    9.4557    3.8497 C   0  0  0  0  0  0  0  0  0  0  0  0
    4.7197    9.3344    2.7743 C   0  0  0  0  0  0  0  0  0  0  0  0
    5.1826    8.9145    1.4125 C   0  0  0  0  0  0  0  0  0  0  0  0
    6.9371    9.1104    3.7119 N   0  0  0  0  0  0  0  0  0  0  0  0
    7.9361    9.4173    2.7109 C   0  0  0  0  0  0  0  0  0  0  0  0
    7.5901   10.1917    1.7819 O   0  0  0  0  0  0  0  0  0  0  0  0
    9.3838    9.0129    2.6468 C   0  0  0  0  0  0  0  0  0  0  0  0
    9.6257    7.5232    2.8228 C   0  0  0  0  0  0  0  0  0  0  0  0
   11.0408    7.0929    2.4955 C   0  0  0  0  0  0  0  0  0  0  0  0
   12.1749    8.0709    2.8184 C   0  0  0  0  0  0  0  0  0  0  0  0
   13.4689    7.7735    2.0211 C   0  0  0  0  0  0  0  0  0  0  0  0
   14.4544    8.9176    1.7823 C   0  0  0  0  0  0  0  0  0  0  0  0
   13.2153    6.9974    0.8064 N   0  0  0  0  0  0  0  0  0  0  0  0
   11.8375    9.5803    2.7380 C   0  0  0  0  0  0  0  0  0  0  0  0
   10.4233    9.9929    3.1232 C   0  0  0  0  0  0  0  0  0  0  0  0
  1  2  2  0
  2  3  1  0
  3  4  2  0
  4  5  1  0
  3  6  1  0
  6  7  1  0
  7  8  2  0
  7  9  1  0
  9 10  1  0
 10 11  1  0
 11 12  1  0
 12 13  1  0
 13 14  1  0
 13 15  1  0
 12 16  1  0
 16 17  1  0
 17  9  1  0
M  CHG  1  15   1
M  END
>  <EmbedRMS>  (134) 
0.29216731409503444

>  <Gold.Version>  (134) 
2020.3.0

>  <Gold.Id.Protein>  (134) 
unknown|1q8t_protein|pdb

>  <Gold.PLP.Fitness>  (134) 
44.3851

>  <Gold.PLP.PLP>  (134) 
-39.1435

>  <Gold.PLP.part.hbond>  (134) 
-1.2378

>  <Gold.PLP.part.metal>  (134) 
0.0000

>  <Gold.PLP.part.buried>  (134) 
-3.0491

>  <Gold.PLP.part.nonpolar>  (134) 
-34.8839

>  <Gold.PLP.part.repulsive>  (134) 
0.0564

>  <Gold.PLP.ligand.clash>  (134) 
0.0000

>  <Gold.PLP.ligand.torsion>  (134) 
1.7490

>  <Gold.PLP.Chemscore.Hbond>  (134) 
2.5760

>  <Gold.PLP.Chemscore.CHOScore>  (134) 
0.0000

>  <Gold.PLP.Chemscore.Metal>  (134) 
0.0000

>  <Gold.Chemscore.Hbonds>  (134) 
donor molecule, donor type, donor heavy atom, donor atom, acceptor molecule, acceptor atom, score
      L1  H    15    37       P1  2902  1.95
      L1  H    15    38       P1  2691  0.62

>  <Gold.PLP.Chemscore.Internal.Correction>  (134) 
1.0115

>  <Gold.PLP.Constraint>  (134) 
-0.0000

>  <Gold.Protein.RotatedTorsions>  (134) 
[  681  677  676  673 ] final   91.94 input -179.99 | X-H torsion
[  702  698  697  694 ] final -153.70 input  179.99 | X-H torsion
[ 2577 2569 2568 2566 ] final  160.11 input   -0.13 | X-H torsion
[ 2891 2887 2886 2883 ] final  -65.79 input  179.98 | X-H torsion
[ 3175 3171 3170 3167 ] final -121.46 input -179.99 | X-H torsion
[ 5278 5270 5269 5267 ] final  144.01 input    0.55 | X-H torsion
[  641  637  636  633 ] final   52.80 input  179.99 | X-H torsion
[ 1886 1878 1877 1875 ] final  -69.31 input    1.60 | X-H torsion
[  965  957  956  954 ] final  -87.57 input    0.45 | X-H torsion

>  <Gold.Protein.ActiveResidues>  (134) 
 LYS47   THR48   LEU49   GLY50   THR51   GLY52   SER53   PHE54   GLY55   ARG56  
 VAL57   MET58   LEU59   TYR69   ALA70   MET71   LYS72   ILE73   LEU74   GLU91  
 LEU95   VAL104  LYS105  MET118  VAL119  MET120  GLU121  TYR122  VAL123  PRO124 
 GLY125  GLY126  GLU127  MET128  PHE129  TYR164  ASP166  LEU167  LYS168  PRO169 
 GLU170  ASN171  LEU172  LEU173  ILE174  GLN181  VAL182  THR183  ASP184  PHE185 
 GLY186  PHE187  GLY200  THR201  ASN326  PHE327  TYR330  ARG18   ARG19   ASN20  
 ALA21   ILE22   HIS23  

>  <Gold.Protein.RotatedAtoms>  (134) 
    9.8194   19.6564    8.5996 H   0  0  0  0  0  0  0  0  0  0  0  0  # atno 641  bound_to 637 
   17.0477   13.0439    6.1287 H   0  0  0  0  0  0  0  0  0  0  0  0  # atno 681  bound_to 677 
   21.1086   11.5511   -1.2477 H   0  0  0  0  0  0  0  0  0  0  0  0  # atno 702  bound_to 698 
   -6.4415   16.4591   -1.5889 H   0  0  0  0  0  0  0  0  0  0  0  0  # atno 965  bound_to 957 
    1.5683   10.5666   10.4811 H   0  0  0  0  0  0  0  0  0  0  0  0  # atno 1886 bound_to 1878
   10.3019    1.9111   -2.3875 H   0  0  0  0  0  0  0  0  0  0  0  0  # atno 2577 bound_to 2569
    7.4372    5.2396    1.0600 H   0  0  0  0  0  0  0  0  0  0  0  0  # atno 2891 bound_to 2887
   18.8430    2.7403    0.3186 H   0  0  0  0  0  0  0  0  0  0  0  0  # atno 3175 bound_to 3171
   14.0959   10.1975    8.9409 H   0  0  0  0  0  0  0  0  0  0  0  0  # atno 5278 bound_to 5270
   15.6214   12.7961    6.7923 LP  0  0  0  0  0  0  0  0  0  0  0  0  # atno 5914 bound_to 677 
   16.6095   13.9723    7.3462 LP  0  0  0  0  0  0  0  0  0  0  0  0  # atno 5915 bound_to 677 
   19.6708   11.8014   -1.8859 LP  0  0  0  0  0  0  0  0  0  0  0  0  # atno 5920 bound_to 698 
   19.8676   11.7353   -0.2662 LP  0  0  0  0  0  0  0  0  0  0  0  0  # atno 5921 bound_to 698 
    9.3046    2.9053   -3.1305 LP  0  0  0  0  0  0  0  0  0  0  0  0  # atno 5950 bound_to 2569
   10.9188    3.1467   -3.1799 LP  0  0  0  0  0  0  0  0  0  0  0  0  # atno 5951 bound_to 2569
    7.4616    6.7888    1.4284 LP  0  0  0  0  0  0  0  0  0  0  0  0  # atno 5982 bound_to 2887
    8.3860    6.2017    0.2170 LP  0  0  0  0  0  0  0  0  0  0  0  0  # atno 5983 bound_to 2887
   17.8963    1.9310   -0.6736 LP  0  0  0  0  0  0  0  0  0  0  0  0  # atno 6000 bound_to 3171
   19.1615    2.7938   -1.2407 LP  0  0  0  0  0  0  0  0  0  0  0  0  # atno 6001 bound_to 3171
   12.5996   10.0361    9.4623 LP  0  0  0  0  0  0  0  0  0  0  0  0  # atno 6004 bound_to 5270
   13.8659    9.8017   10.4664 LP  0  0  0  0  0  0  0  0  0  0  0  0  # atno 6005 bound_to 5270
   10.2509   18.9551    7.2369 LP  0  0  0  0  0  0  0  0  0  0  0  0  # atno 6055 bound_to 637 
   11.3721   19.4447    8.3185 LP  0  0  0  0  0  0  0  0  0  0  0  0  # atno 6056 bound_to 637 
    0.6287   11.6901   11.1059 LP  0  0  0  0  0  0  0  0  0  0  0  0  # atno 6063 bound_to 1878
    2.1056   12.0650   10.5187 LP  0  0  0  0  0  0  0  0  0  0  0  0  # atno 6064 bound_to 1878
   -7.0775   16.9664   -0.2202 LP  0  0  0  0  0  0  0  0  0  0  0  0  # atno 6067 bound_to 957 
   -6.9463   15.3709   -0.5420 LP  0  0  0  0  0  0  0  0  0  0  0  0  # atno 6068 bound_to 957 

>  <STRIFE_LigEff_Score>  (134) 
2.6108882352941176

$$$$
unknown|pharmsElabsTestPreDocking|sdf|135|dock4
     RDKit          3D

 19 20  0  0  0  0  0  0  0  0999 V2000
   15.3438    6.3087    2.5026 C   0  0  0  0  0  0  0  0  0  0  0  0
   14.7051    7.1911    1.4120 C   0  0  0  0  0  0  0  0  0  0  0  0
   14.4448    6.3723    0.2211 N   0  0  0  0  0  0  0  0  0  0  0  0
   13.4107    7.8631    1.9574 C   0  0  0  0  0  0  0  0  0  0  0  0
   12.2706    6.8265    2.0272 C   0  0  0  0  0  0  0  0  0  0  0  0
   10.9647    7.5084    2.4054 C   0  0  0  0  0  0  0  0  0  0  0  0
   11.0991    8.1855    3.7734 C   0  0  0  0  0  0  0  0  0  0  0  0
    9.8073    8.8484    4.1465 C   0  0  0  0  0  0  0  0  0  0  0  0
    9.8173    9.7997    4.9721 O   0  0  0  0  0  0  0  0  0  0  0  0
    8.5875    8.3729    3.5564 N   0  0  0  0  0  0  0  0  0  0  0  0
    7.2596    8.8905    3.7588 C   0  0  0  0  0  0  0  0  0  0  0  0
    6.7976    9.3739    5.0028 C   0  0  0  0  0  0  0  0  0  0  0  0
    5.4967    9.8513    5.1363 C   0  0  0  0  0  0  0  0  0  0  0  0
    4.6357    9.8569    4.0411 C   0  0  0  0  0  0  0  0  0  0  0  0
    3.0022   10.4576    4.2259 Cl  0  0  0  0  0  0  0  0  0  0  0  0
    5.0762    9.3844    2.8035 C   0  0  0  0  0  0  0  0  0  0  0  0
    6.3793    8.9047    2.6630 C   0  0  0  0  0  0  0  0  0  0  0  0
   12.2609    9.1932    3.7920 C   0  0  0  0  0  0  0  0  0  0  0  0
   13.5739    8.5296    3.3462 C   0  0  0  0  0  0  0  0  0  0  0  0
  1  2  1  0
  2  3  1  0
  2  4  1  0
  4  5  1  0
  5  6  1  0
  6  7  1  0
  7  8  1  0
  8  9  2  0
  8 10  1  0
 10 11  1  0
 11 12  2  0
 12 13  1  0
 13 14  2  0
 14 15  1  0
 14 16  1  0
 16 17  2  0
  7 18  1  0
 18 19  1  0
 19  4  1  0
 17 11  1  0
M  CHG  1   3   1
M  END
>  <EmbedRMS>  (135) 
0.03263599400313068

>  <Gold.Version>  (135) 
2020.3.0

>  <Gold.Id.Protein>  (135) 
unknown|1q8t_protein|pdb

>  <Gold.PLP.Fitness>  (135) 
45.8568

>  <Gold.PLP.PLP>  (135) 
-39.0841

>  <Gold.PLP.part.hbond>  (135) 
-2.0000

>  <Gold.PLP.part.metal>  (135) 
0.0000

>  <Gold.PLP.part.buried>  (135) 
0.8828

>  <Gold.PLP.part.nonpolar>  (135) 
-38.9486

>  <Gold.PLP.part.repulsive>  (135) 
0.3049

>  <Gold.PLP.ligand.clash>  (135) 
0.0000

>  <Gold.PLP.ligand.torsion>  (135) 
1.1323

>  <Gold.PLP.Chemscore.Hbond>  (135) 
3.0000

>  <Gold.PLP.Chemscore.CHOScore>  (135) 
0.0000

>  <Gold.PLP.Chemscore.Metal>  (135) 
0.0000

>  <Gold.Chemscore.Hbonds>  (135) 
donor molecule, donor type, donor heavy atom, donor atom, acceptor molecule, acceptor atom, score
      L1  H     3    24       P1  2691  1.00
      L1  H     3    25       P1  2902  2.00

>  <Gold.PLP.Chemscore.Internal.Correction>  (135) 
0.0374

>  <Gold.PLP.Constraint>  (135) 
-0.0000

>  <Gold.Protein.RotatedTorsions>  (135) 
[  681  677  676  673 ] final   94.39 input -179.99 | X-H torsion
[  702  698  697  694 ] final   96.91 input  179.99 | X-H torsion
[ 2577 2569 2568 2566 ] final  -72.99 input   -0.13 | X-H torsion
[ 2891 2887 2886 2883 ] final   26.32 input  179.98 | X-H torsion
[ 3175 3171 3170 3167 ] final   77.42 input -179.99 | X-H torsion
[ 5278 5270 5269 5267 ] final  -20.26 input    0.55 | X-H torsion
[  641  637  636  633 ] final  172.39 input  179.99 | X-H torsion
[ 1886 1878 1877 1875 ] final   44.75 input    1.60 | X-H torsion
[  965  957  956  954 ] final  -39.24 input    0.45 | X-H torsion

>  <Gold.Protein.ActiveResidues>  (135) 
 LYS47   THR48   LEU49   GLY50   THR51   GLY52   SER53   PHE54   GLY55   ARG56  
 VAL57   MET58   LEU59   TYR69   ALA70   MET71   LYS72   ILE73   LEU74   GLU91  
 LEU95   VAL104  LYS105  MET118  VAL119  MET120  GLU121  TYR122  VAL123  PRO124 
 GLY125  GLY126  GLU127  MET128  PHE129  TYR164  ASP166  LEU167  LYS168  PRO169 
 GLU170  ASN171  LEU172  LEU173  ILE174  GLN181  VAL182  THR183  ASP184  PHE185 
 GLY186  PHE187  GLY200  THR201  ASN326  PHE327  TYR330  ARG18   ARG19   ASN20  
 ALA21   ILE22   HIS23  

>  <Gold.Protein.RotatedAtoms>  (135) 
   11.3240   19.4287    8.3182 H   0  0  0  0  0  0  0  0  0  0  0  0  # atno 641  bound_to 637 
   17.0704   13.0718    6.1423 H   0  0  0  0  0  0  0  0  0  0  0  0  # atno 681  bound_to 677 
   19.8400   11.7892   -1.9361 H   0  0  0  0  0  0  0  0  0  0  0  0  # atno 702  bound_to 698 
   -6.5098   15.7419   -1.4540 H   0  0  0  0  0  0  0  0  0  0  0  0  # atno 965  bound_to 957 
    2.1161   11.9658   10.4782 H   0  0  0  0  0  0  0  0  0  0  0  0  # atno 1886 bound_to 1878
   10.8114    3.1760   -3.2284 H   0  0  0  0  0  0  0  0  0  0  0  0  # atno 2577 bound_to 2569
    8.2662    5.7726    0.2275 H   0  0  0  0  0  0  0  0  0  0  0  0  # atno 2891 bound_to 2887
   18.2310    2.0875   -1.2052 H   0  0  0  0  0  0  0  0  0  0  0  0  # atno 3175 bound_to 3171
   12.7973    9.8949   10.1128 H   0  0  0  0  0  0  0  0  0  0  0  0  # atno 5278 bound_to 5270
   15.6340   12.7730    6.7616 LP  0  0  0  0  0  0  0  0  0  0  0  0  # atno 5914 bound_to 677 
   16.5731   13.9661    7.3626 LP  0  0  0  0  0  0  0  0  0  0  0  0  # atno 5915 bound_to 677 
   19.7164   11.7636   -0.3482 LP  0  0  0  0  0  0  0  0  0  0  0  0  # atno 5920 bound_to 698 
   21.1563   11.5225   -1.0797 LP  0  0  0  0  0  0  0  0  0  0  0  0  # atno 5921 bound_to 698 
   10.4185    1.9046   -2.3540 LP  0  0  0  0  0  0  0  0  0  0  0  0  # atno 5950 bound_to 2569
    9.2685    2.8156   -3.0709 LP  0  0  0  0  0  0  0  0  0  0  0  0  # atno 5951 bound_to 2569
    7.2216    5.4531    1.3864 LP  0  0  0  0  0  0  0  0  0  0  0  0  # atno 5982 bound_to 2887
    7.7535    6.9765    1.1353 LP  0  0  0  0  0  0  0  0  0  0  0  0  # atno 5983 bound_to 2887
   19.3907    3.0384   -0.6698 LP  0  0  0  0  0  0  0  0  0  0  0  0  # atno 6000 bound_to 3171
   18.3111    2.3735    0.3592 LP  0  0  0  0  0  0  0  0  0  0  0  0  # atno 6001 bound_to 3171
   14.3856    9.9228    9.9974 LP  0  0  0  0  0  0  0  0  0  0  0  0  # atno 6004 bound_to 5270
   13.4463   10.2334    8.6982 LP  0  0  0  0  0  0  0  0  0  0  0  0  # atno 6005 bound_to 5270
    9.7812   19.6855    8.6160 LP  0  0  0  0  0  0  0  0  0  0  0  0  # atno 6055 bound_to 637 
   10.2572   18.9542    7.2358 LP  0  0  0  0  0  0  0  0  0  0  0  0  # atno 6056 bound_to 637 
    1.4933   10.5010   10.5219 LP  0  0  0  0  0  0  0  0  0  0  0  0  # atno 6063 bound_to 1878
    0.6644   11.7812   11.1057 LP  0  0  0  0  0  0  0  0  0  0  0  0  # atno 6064 bound_to 1878
   -6.7718   17.2064   -0.8871 LP  0  0  0  0  0  0  0  0  0  0  0  0  # atno 6067 bound_to 957 
   -7.1803   15.8862   -0.0171 LP  0  0  0  0  0  0  0  0  0  0  0  0  # atno 6068 bound_to 957 

>  <STRIFE_LigEff_Score>  (135) 
2.413515789473684

$$$$
unknown|pharmsElabsTestPreDocking|sdf|136|dock6
     RDKit          3D

 16 16  0  0  0  0  0  0  0  0999 V2000
    4.7987    9.2254    3.0879 C   0  0  0  0  0  0  0  0  0  0  0  0
    4.9463    9.5678    4.5605 C   0  0  0  0  0  0  0  0  0  0  0  0
    3.6320    9.7882    5.2925 C   0  0  0  0  0  0  0  0  0  0  0  0
    6.0468   10.5337    5.0170 C   0  0  0  0  0  0  0  0  0  0  0  0
    7.4046   10.0164    4.9122 N   0  0  0  0  0  0  0  0  0  0  0  0
    7.9242    9.5701    3.6530 C   0  0  0  0  0  0  0  0  0  0  0  0
    7.3983    9.9593    2.5717 O   0  0  0  0  0  0  0  0  0  0  0  0
    9.1280    8.6698    3.6227 C   0  0  0  0  0  0  0  0  0  0  0  0
    9.3486    8.1144    2.2163 C   0  0  0  0  0  0  0  0  0  0  0  0
   10.4765    7.0924    2.1896 C   0  0  0  0  0  0  0  0  0  0  0  0
   11.7566    7.4857    2.9750 C   0  0  0  0  0  0  0  0  0  0  0  0
   13.1139    7.5356    2.2465 C   0  0  0  0  0  0  0  0  0  0  0  0
   14.3870    7.4533    3.0885 C   0  0  0  0  0  0  0  0  0  0  0  0
   13.1895    8.6453    1.2863 N   0  0  0  0  0  0  0  0  0  0  0  0
   11.6105    8.5580    4.0976 C   0  0  0  0  0  0  0  0  0  0  0  0
   10.3681    9.4437    4.0530 C   0  0  0  0  0  0  0  0  0  0  0  0
  1  2  1  0
  2  3  1  0
  2  4  1  0
  4  5  1  0
  5  6  1  0
  6  7  2  0
  6  8  1  0
  8  9  1  0
  9 10  1  0
 10 11  1  0
 11 12  1  0
 12 13  1  0
 12 14  1  0
 11 15  1  0
 15 16  1  0
 16  8  1  0
M  CHG  1  14   1
M  END
>  <EmbedRMS>  (136) 
0.28373172213554615

>  <Gold.Version>  (136) 
2020.3.0

>  <Gold.Id.Protein>  (136) 
unknown|1q8t_protein|pdb

>  <Gold.PLP.Fitness>  (136) 
45.0304

>  <Gold.PLP.PLP>  (136) 
-39.7731

>  <Gold.PLP.part.hbond>  (136) 
-1.0000

>  <Gold.PLP.part.metal>  (136) 
0.0000

>  <Gold.PLP.part.buried>  (136) 
-2.8558

>  <Gold.PLP.part.nonpolar>  (136) 
-36.4943

>  <Gold.PLP.part.repulsive>  (136) 
0.0000

>  <Gold.PLP.ligand.clash>  (136) 
0.0000

>  <Gold.PLP.ligand.torsion>  (136) 
0.6268

>  <Gold.PLP.Chemscore.Hbond>  (136) 
2.0000

>  <Gold.PLP.Chemscore.CHOScore>  (136) 
0.0000

>  <Gold.PLP.Chemscore.Metal>  (136) 
0.0000

>  <Gold.Chemscore.Hbonds>  (136) 
donor molecule, donor type, donor heavy atom, donor atom, acceptor molecule, acceptor atom, score
      L1  H    14    38       P1  2902  2.00

>  <Gold.PLP.Chemscore.Internal.Correction>  (136) 
0.5110

>  <Gold.PLP.Constraint>  (136) 
-0.0000

>  <Gold.Protein.RotatedTorsions>  (136) 
[  681  677  676  673 ] final    8.62 input -179.99 | X-H torsion
[  702  698  697  694 ] final  135.09 input  179.99 | X-H torsion
[ 2577 2569 2568 2566 ] final   99.51 input   -0.13 | X-H torsion
[ 2891 2887 2886 2883 ] final   58.28 input  179.98 | X-H torsion
[ 3175 3171 3170 3167 ] final  -51.12 input -179.99 | X-H torsion
[ 5278 5270 5269 5267 ] final  158.12 input    0.55 | X-H torsion
[  641  637  636  633 ] final -155.88 input  179.99 | X-H torsion
[ 1886 1878 1877 1875 ] final  137.87 input    1.60 | X-H torsion
[  965  957  956  954 ] final -169.82 input    0.45 | X-H torsion

>  <Gold.Protein.ActiveResidues>  (136) 
 LYS47   THR48   LEU49   GLY50   THR51   GLY52   SER53   PHE54   GLY55   ARG56  
 VAL57   MET58   LEU59   TYR69   ALA70   MET71   LYS72   ILE73   LEU74   GLU91  
 LEU95   VAL104  LYS105  MET118  VAL119  MET120  GLU121  TYR122  VAL123  PRO124 
 GLY125  GLY126  GLU127  MET128  PHE129  TYR164  ASP166  LEU167  LYS168  PRO169 
 GLU170  ASN171  LEU172  LEU173  ILE174  GLN181  VAL182  THR183  ASP184  PHE185 
 GLY186  PHE187  GLY200  THR201  ASN326  PHE327  TYR330  ARG18   ARG19   ASN20  
 ALA21   ILE22   HIS23  

>  <Gold.Protein.RotatedAtoms>  (136) 
   11.3335   19.2058    7.8827 H   0  0  0  0  0  0  0  0  0  0  0  0  # atno 641  bound_to 637 
   15.9657   12.6063    6.3652 H   0  0  0  0  0  0  0  0  0  0  0  0  # atno 681  bound_to 677 
   20.4126   11.6892   -2.0129 H   0  0  0  0  0  0  0  0  0  0  0  0  # atno 702  bound_to 698 
   -6.8277   17.1613   -0.7257 H   0  0  0  0  0  0  0  0  0  0  0  0  # atno 965  bound_to 957 
    0.9410   12.0989   11.0190 H   0  0  0  0  0  0  0  0  0  0  0  0  # atno 1886 bound_to 1878
    9.4676    2.1645   -2.6245 H   0  0  0  0  0  0  0  0  0  0  0  0  # atno 2577 bound_to 2569
    8.3421    6.2591    0.2561 H   0  0  0  0  0  0  0  0  0  0  0  0  # atno 2891 bound_to 2887
   19.3644    3.0156   -0.5283 H   0  0  0  0  0  0  0  0  0  0  0  0  # atno 3175 bound_to 3171
   14.2483   10.1610    9.0956 H   0  0  0  0  0  0  0  0  0  0  0  0  # atno 5278 bound_to 5270
   16.0705   13.7543    7.4640 LP  0  0  0  0  0  0  0  0  0  0  0  0  # atno 5914 bound_to 677 
   17.2993   13.4747    6.4256 LP  0  0  0  0  0  0  0  0  0  0  0  0  # atno 5915 bound_to 677 
   19.3481   11.8384   -0.8373 LP  0  0  0  0  0  0  0  0  0  0  0  0  # atno 5920 bound_to 698 
   20.9223   11.5530   -0.5099 LP  0  0  0  0  0  0  0  0  0  0  0  0  # atno 5921 bound_to 698 
   10.0563    3.4087   -3.4250 LP  0  0  0  0  0  0  0  0  0  0  0  0  # atno 5950 bound_to 2569
   11.0456    2.3766   -2.6358 LP  0  0  0  0  0  0  0  0  0  0  0  0  # atno 5951 bound_to 2569
    7.4720    5.1720    1.0290 LP  0  0  0  0  0  0  0  0  0  0  0  0  # atno 5982 bound_to 2887
    7.4232    6.7456    1.4625 LP  0  0  0  0  0  0  0  0  0  0  0  0  # atno 5983 bound_to 2887
   18.2126    2.2929    0.3004 LP  0  0  0  0  0  0  0  0  0  0  0  0  # atno 6000 bound_to 3171
   18.2964    2.1422   -1.3234 LP  0  0  0  0  0  0  0  0  0  0  0  0  # atno 6001 bound_to 3171
   12.6643   10.0900    9.2465 LP  0  0  0  0  0  0  0  0  0  0  0  0  # atno 6004 bound_to 5270
   13.6410    9.7862   10.5195 LP  0  0  0  0  0  0  0  0  0  0  0  0  # atno 6005 bound_to 5270
   10.2219   19.7871    8.8631 LP  0  0  0  0  0  0  0  0  0  0  0  0  # atno 6055 bound_to 637 
    9.8066   19.0874    7.4473 LP  0  0  0  0  0  0  0  0  0  0  0  0  # atno 6056 bound_to 637 
    2.2976   11.5962   10.3541 LP  0  0  0  0  0  0  0  0  0  0  0  0  # atno 6063 bound_to 1878
    1.0972   10.5459   10.7042 LP  0  0  0  0  0  0  0  0  0  0  0  0  # atno 6064 bound_to 1878
   -7.1463   15.7344   -0.0950 LP  0  0  0  0  0  0  0  0  0  0  0  0  # atno 6067 bound_to 957 
   -6.4709   15.8634   -1.5762 LP  0  0  0  0  0  0  0  0  0  0  0  0  # atno 6068 bound_to 957 

>  <STRIFE_LigEff_Score>  (136) 
2.8144

$$$$
unknown|pharmsElabsTestPreDocking|sdf|137|dock10
     RDKit          3D

 14 14  0  0  0  0  0  0  0  0999 V2000
    3.9004    9.7986    5.5275 C   0  0  0  0  0  0  0  0  0  0  0  0
    4.7778   10.1088    4.3210 C   0  0  0  0  0  0  0  0  0  0  0  0
    6.0930    9.4959    4.4752 N   0  0  0  0  0  0  0  0  0  0  0  0
    7.0765    9.5118    3.4334 C   0  0  0  0  0  0  0  0  0  0  0  0
    6.8528   10.1341    2.3573 O   0  0  0  0  0  0  0  0  0  0  0  0
    8.3899    8.8064    3.6403 C   0  0  0  0  0  0  0  0  0  0  0  0
    8.7167    7.9246    2.4366 C   0  0  0  0  0  0  0  0  0  0  0  0
    9.9648    7.0873    2.6783 C   0  0  0  0  0  0  0  0  0  0  0  0
   11.1654    7.8401    3.3117 C   0  0  0  0  0  0  0  0  0  0  0  0
   12.5230    7.8631    2.5815 C   0  0  0  0  0  0  0  0  0  0  0  0
   13.7829    8.1132    3.4101 C   0  0  0  0  0  0  0  0  0  0  0  0
   12.4989    8.7213    1.3890 N   0  0  0  0  0  0  0  0  0  0  0  0
   10.8570    9.1493    4.1008 C   0  0  0  0  0  0  0  0  0  0  0  0
    9.5117    9.8215    3.8322 C   0  0  0  0  0  0  0  0  0  0  0  0
  1  2  1  0
  2  3  1  0
  3  4  1  0
  4  5  2  0
  4  6  1  0
  6  7  1  0
  7  8  1  0
  8  9  1  0
  9 10  1  0
 10 11  1  0
 10 12  1  0
  9 13  1  0
 13 14  1  0
 14  6  1  0
M  CHG  1  12   1
M  END
>  <EmbedRMS>  (137) 
0.22880006867790334

>  <Gold.Version>  (137) 
2020.3.0

>  <Gold.Id.Protein>  (137) 
unknown|1q8t_protein|pdb

>  <Gold.PLP.Fitness>  (137) 
35.0923

>  <Gold.PLP.PLP>  (137) 
-29.6715

>  <Gold.PLP.part.hbond>  (137) 
-1.0000

>  <Gold.PLP.part.metal>  (137) 
0.0000

>  <Gold.PLP.part.buried>  (137) 
-0.2197

>  <Gold.PLP.part.nonpolar>  (137) 
-28.2476

>  <Gold.PLP.part.repulsive>  (137) 
0.0000

>  <Gold.PLP.ligand.clash>  (137) 
0.0000

>  <Gold.PLP.ligand.torsion>  (137) 
0.4592

>  <Gold.PLP.Chemscore.Hbond>  (137) 
1.9840

>  <Gold.PLP.Chemscore.CHOScore>  (137) 
0.0000

>  <Gold.PLP.Chemscore.Metal>  (137) 
0.0000

>  <Gold.Chemscore.Hbonds>  (137) 
donor molecule, donor type, donor heavy atom, donor atom, acceptor molecule, acceptor atom, score
      L1  H    12    31       P1  2902  1.98

>  <Gold.PLP.Chemscore.Internal.Correction>  (137) 
0.3871

>  <Gold.PLP.Constraint>  (137) 
-0.0000

>  <Gold.Protein.RotatedTorsions>  (137) 
[  681  677  676  673 ] final  141.43 input -179.99 | X-H torsion
[  702  698  697  694 ] final -102.17 input  179.99 | X-H torsion
[ 2577 2569 2568 2566 ] final  -51.67 input   -0.13 | X-H torsion
[ 2891 2887 2886 2883 ] final   54.91 input  179.98 | X-H torsion
[ 3175 3171 3170 3167 ] final  -84.67 input -179.99 | X-H torsion
[ 5278 5270 5269 5267 ] final  -53.46 input    0.55 | X-H torsion
[  641  637  636  633 ] final  -20.90 input  179.99 | X-H torsion
[ 1886 1878 1877 1875 ] final  137.85 input    1.60 | X-H torsion
[  965  957  956  954 ] final -176.82 input    0.45 | X-H torsion

>  <Gold.Protein.ActiveResidues>  (137) 
 LYS47   THR48   LEU49   GLY50   THR51   GLY52   SER53   PHE54   GLY55   ARG56  
 VAL57   MET58   LEU59   TYR69   ALA70   MET71   LYS72   ILE73   LEU74   GLU91  
 LEU95   VAL104  LYS105  MET118  VAL119  MET120  GLU121  TYR122  VAL123  PRO124 
 GLY125  GLY126  GLU127  MET128  PHE129  TYR164  ASP166  LEU167  LYS168  PRO169 
 GLU170  ASN171  LEU172  LEU173  ILE174  GLN181  VAL182  THR183  ASP184  PHE185 
 GLY186  PHE187  GLY200  THR201  ASN326  PHE327  TYR330  ARG18   ARG19   ASN20  
 ALA21   ILE22   HIS23  

>  <Gold.Protein.RotatedAtoms>  (137) 
    9.6964   19.1767    7.6467 H   0  0  0  0  0  0  0  0  0  0  0  0  # atno 641  bound_to 637 
   17.2443   13.6151    6.5732 H   0  0  0  0  0  0  0  0  0  0  0  0  # atno 681  bound_to 677 
   20.8622   11.5805   -0.5092 H   0  0  0  0  0  0  0  0  0  0  0  0  # atno 702  bound_to 698 
   -6.8726   17.1460   -0.6273 H   0  0  0  0  0  0  0  0  0  0  0  0  # atno 965  bound_to 957 
    0.9412   12.0991   11.0190 H   0  0  0  0  0  0  0  0  0  0  0  0  # atno 1886 bound_to 1878
   10.5388    3.3206   -3.3488 H   0  0  0  0  0  0  0  0  0  0  0  0  # atno 2577 bound_to 2569
    8.3427    6.2080    0.2432 H   0  0  0  0  0  0  0  0  0  0  0  0  # atno 2891 bound_to 2887
   19.2190    2.9726   -0.0340 H   0  0  0  0  0  0  0  0  0  0  0  0  # atno 3175 bound_to 3171
   13.1992    9.8229   10.4218 H   0  0  0  0  0  0  0  0  0  0  0  0  # atno 5278 bound_to 5270
   16.1175   12.5423    6.2333 LP  0  0  0  0  0  0  0  0  0  0  0  0  # atno 5914 bound_to 677 
   15.9066   13.6250    7.4374 LP  0  0  0  0  0  0  0  0  0  0  0  0  # atno 5915 bound_to 677 
   20.4622   11.6643   -2.0488 LP  0  0  0  0  0  0  0  0  0  0  0  0  # atno 5920 bound_to 698 
   19.3353   11.8415   -0.8803 LP  0  0  0  0  0  0  0  0  0  0  0  0  # atno 5921 bound_to 698 
   10.7327    2.0388   -2.4242 LP  0  0  0  0  0  0  0  0  0  0  0  0  # atno 5950 bound_to 2569
    9.2414    2.5291   -2.8740 LP  0  0  0  0  0  0  0  0  0  0  0  0  # atno 5951 bound_to 2569
    7.4398    5.1897    1.0705 LP  0  0  0  0  0  0  0  0  0  0  0  0  # atno 5982 bound_to 2887
    7.4548    6.7816    1.4345 LP  0  0  0  0  0  0  0  0  0  0  0  0  # atno 5983 bound_to 2887
   17.9332    2.0349   -0.0888 LP  0  0  0  0  0  0  0  0  0  0  0  0  # atno 6000 bound_to 3171
   18.7289    2.4454   -1.4544 LP  0  0  0  0  0  0  0  0  0  0  0  0  # atno 6001 bound_to 3171
   14.4632   10.0512    9.4800 LP  0  0  0  0  0  0  0  0  0  0  0  0  # atno 6004 bound_to 5270
   12.9459   10.1807    8.8906 LP  0  0  0  0  0  0  0  0  0  0  0  0  # atno 6005 bound_to 5270
   11.2873   19.1136    7.6607 LP  0  0  0  0  0  0  0  0  0  0  0  0  # atno 6055 bound_to 637 
   10.4652   19.7914    8.8982 LP  0  0  0  0  0  0  0  0  0  0  0  0  # atno 6056 bound_to 637 
    2.2976   11.5959   10.3541 LP  0  0  0  0  0  0  0  0  0  0  0  0  # atno 6063 bound_to 1878
    1.0969   10.5460   10.7043 LP  0  0  0  0  0  0  0  0  0  0  0  0  # atno 6064 bound_to 1878
   -7.1176   15.6438   -0.1599 LP  0  0  0  0  0  0  0  0  0  0  0  0  # atno 6067 bound_to 957 
   -6.4522   15.9701   -1.6150 LP  0  0  0  0  0  0  0  0  0  0  0  0  # atno 6068 bound_to 957 

>  <STRIFE_LigEff_Score>  (137) 
2.506592857142857

$$$$
unknown|pharmsElabsTestPreDocking|sdf|138|dock1
     RDKit          3D

 18 18  0  0  0  0  0  0  0  0999 V2000
    4.6492    9.1751    1.2607 C   0  0  0  0  0  0  0  0  0  0  0  0
    4.1193    9.3108    2.4777 C   0  0  0  0  0  0  0  0  0  0  0  0
    2.6952    9.4201    2.6192 N   0  0  0  0  0  0  0  0  0  0  0  0
    5.0119    9.4354    3.6636 C   0  0  0  0  0  0  0  0  0  0  0  0
    4.6255   10.1958    4.7043 C   0  0  0  0  0  0  0  0  0  0  0  0
    5.4754   10.4103    5.9184 C   0  0  0  0  0  0  0  0  0  0  0  0
    6.3425    8.8839    3.6533 N   0  0  0  0  0  0  0  0  0  0  0  0
    7.4025    9.2946    2.7809 C   0  0  0  0  0  0  0  0  0  0  0  0
    7.1858   10.1027    1.8343 O   0  0  0  0  0  0  0  0  0  0  0  0
    8.7852    8.7489    3.0239 C   0  0  0  0  0  0  0  0  0  0  0  0
    9.1972    7.7626    1.9152 C   0  0  0  0  0  0  0  0  0  0  0  0
   10.6337    7.2581    2.1400 C   0  0  0  0  0  0  0  0  0  0  0  0
   11.5707    8.4796    2.1545 C   0  0  0  0  0  0  0  0  0  0  0  0
   13.0917    8.2545    1.9102 C   0  0  0  0  0  0  0  0  0  0  0  0
   13.9026    7.7342    3.0847 C   0  0  0  0  0  0  0  0  0  0  0  0
   13.7803    9.2150    1.0573 N   0  0  0  0  0  0  0  0  0  0  0  0
   11.2279    9.3796    3.3545 C   0  0  0  0  0  0  0  0  0  0  0  0
    9.7912    9.9013    3.2072 C   0  0  0  0  0  0  0  0  0  0  0  0
  1  2  2  0
  2  3  1  0
  2  4  1  0
  4  5  2  0
  5  6  1  0
  4  7  1  0
  7  8  1  0
  8  9  2  0
  8 10  1  0
 10 11  1  0
 11 12  1  0
 12 13  1  0
 13 14  1  0
 14 15  1  0
 14 16  1  0
 13 17  1  0
 17 18  1  0
 18 10  1  0
M  CHG  1  16   1
M  END
>  <EmbedRMS>  (138) 
0.18324839054966638

>  <Gold.Version>  (138) 
2020.3.0

>  <Gold.Id.Protein>  (138) 
unknown|1q8t_protein|pdb

>  <Gold.PLP.Fitness>  (138) 
43.4534

>  <Gold.PLP.PLP>  (138) 
-37.7625

>  <Gold.PLP.part.hbond>  (138) 
-2.0000

>  <Gold.PLP.part.metal>  (138) 
0.0000

>  <Gold.PLP.part.buried>  (138) 
-2.4207

>  <Gold.PLP.part.nonpolar>  (138) 
-34.6591

>  <Gold.PLP.part.repulsive>  (138) 
0.1261

>  <Gold.PLP.ligand.clash>  (138) 
0.0000

>  <Gold.PLP.ligand.torsion>  (138) 
1.6292

>  <Gold.PLP.Chemscore.Hbond>  (138) 
2.4800

>  <Gold.PLP.Chemscore.CHOScore>  (138) 
0.0000

>  <Gold.PLP.Chemscore.Metal>  (138) 
0.0000

>  <Gold.Chemscore.Hbonds>  (138) 
donor molecule, donor type, donor heavy atom, donor atom, acceptor molecule, acceptor atom, score
      L1  H     3    21       P1  1855  0.48
      L1  H    16    38       P1  2902  2.00

>  <Gold.PLP.Chemscore.Internal.Correction>  (138) 
1.5094

>  <Gold.PLP.Constraint>  (138) 
-0.0000

>  <Gold.Protein.RotatedTorsions>  (138) 
[  681  677  676  673 ] final    6.34 input -179.99 | X-H torsion
[  702  698  697  694 ] final -157.89 input  179.99 | X-H torsion
[ 2577 2569 2568 2566 ] final  117.86 input   -0.13 | X-H torsion
[ 2891 2887 2886 2883 ] final  158.96 input  179.98 | X-H torsion
[ 3175 3171 3170 3167 ] final   73.17 input -179.99 | X-H torsion
[ 5278 5270 5269 5267 ] final  -47.92 input    0.55 | X-H torsion
[  641  637  636  633 ] final   15.32 input  179.99 | X-H torsion
[ 1886 1878 1877 1875 ] final  -78.26 input    1.60 | X-H torsion
[  965  957  956  954 ] final    5.50 input    0.45 | X-H torsion

>  <Gold.Protein.ActiveResidues>  (138) 
 LYS47   THR48   LEU49   GLY50   THR51   GLY52   SER53   PHE54   GLY55   ARG56  
 VAL57   MET58   LEU59   TYR69   ALA70   MET71   LYS72   ILE73   LEU74   GLU91  
 LEU95   VAL104  LYS105  MET118  VAL119  MET120  GLU121  TYR122  VAL123  PRO124 
 GLY125  GLY126  GLU127  MET128  PHE129  TYR164  ASP166  LEU167  LYS168  PRO169 
 GLU170  ASN171  LEU172  LEU173  ILE174  GLN181  VAL182  THR183  ASP184  PHE185 
 GLY186  PHE187  GLY200  THR201  ASN326  PHE327  TYR330  ARG18   ARG19   ASN20  
 ALA21   ILE22   HIS23  

>  <Gold.Protein.RotatedAtoms>  (138) 
    9.5794   19.4294    8.1287 H   0  0  0  0  0  0  0  0  0  0  0  0  # atno 641  bound_to 637 
   15.9393   12.6130    6.3881 H   0  0  0  0  0  0  0  0  0  0  0  0  # atno 681  bound_to 677 
   21.0983   11.5541   -1.3124 H   0  0  0  0  0  0  0  0  0  0  0  0  # atno 702  bound_to 698 
   -6.7531   15.3850   -0.9269 H   0  0  0  0  0  0  0  0  0  0  0  0  # atno 965  bound_to 957 
    1.4406   10.5451   10.5337 H   0  0  0  0  0  0  0  0  0  0  0  0  # atno 1886 bound_to 1878
    9.6745    2.0102   -2.5023 H   0  0  0  0  0  0  0  0  0  0  0  0  # atno 2577 bound_to 2569
    7.6116    6.8762    1.2501 H   0  0  0  0  0  0  0  0  0  0  0  0  # atno 2891 bound_to 2887
   18.2760    2.1156   -1.2451 H   0  0  0  0  0  0  0  0  0  0  0  0  # atno 3175 bound_to 3171
   13.1203    9.8307   10.3867 H   0  0  0  0  0  0  0  0  0  0  0  0  # atno 5278 bound_to 5270
   16.1018   13.7749    7.4650 LP  0  0  0  0  0  0  0  0  0  0  0  0  # atno 5914 bound_to 677 
   17.2958   13.4471    6.4004 LP  0  0  0  0  0  0  0  0  0  0  0  0  # atno 5915 bound_to 677 
   19.6181   11.8099   -1.8422 LP  0  0  0  0  0  0  0  0  0  0  0  0  # atno 5920 bound_to 698 
   19.9310   11.7235   -0.2419 LP  0  0  0  0  0  0  0  0  0  0  0  0  # atno 5921 bound_to 698 
    9.7686    3.3285   -3.3904 LP  0  0  0  0  0  0  0  0  0  0  0  0  # atno 5950 bound_to 2569
   11.1155    2.6192   -2.7991 LP  0  0  0  0  0  0  0  0  0  0  0  0  # atno 5951 bound_to 2569
    8.3596    5.9546    0.1883 LP  0  0  0  0  0  0  0  0  0  0  0  0  # atno 5982 bound_to 2887
    7.3044    5.3135    1.2570 LP  0  0  0  0  0  0  0  0  0  0  0  0  # atno 5983 bound_to 2887
   19.3934    3.0494   -0.6009 LP  0  0  0  0  0  0  0  0  0  0  0  0  # atno 6000 bound_to 3171
   18.2610    2.3329    0.3323 LP  0  0  0  0  0  0  0  0  0  0  0  0  # atno 6001 bound_to 3171
   14.4720   10.0295    9.5682 LP  0  0  0  0  0  0  0  0  0  0  0  0  # atno 6004 bound_to 5270
   13.0200   10.1942    8.8393 LP  0  0  0  0  0  0  0  0  0  0  0  0  # atno 6005 bound_to 5270
   10.8533   18.9539    7.3005 LP  0  0  0  0  0  0  0  0  0  0  0  0  # atno 6055 bound_to 637 
   11.0225   19.6850    8.7508 LP  0  0  0  0  0  0  0  0  0  0  0  0  # atno 6056 bound_to 637 
    0.6856   11.8258   11.1040 LP  0  0  0  0  0  0  0  0  0  0  0  0  # atno 6063 bound_to 1878
    2.1832   11.9520   10.4652 LP  0  0  0  0  0  0  0  0  0  0  0  0  # atno 6064 bound_to 1878
   -6.5130   16.8649   -1.4628 LP  0  0  0  0  0  0  0  0  0  0  0  0  # atno 6067 bound_to 957 
   -7.1828   16.6036    0.0034 LP  0  0  0  0  0  0  0  0  0  0  0  0  # atno 6068 bound_to 957 

>  <STRIFE_LigEff_Score>  (138) 
2.414077777777778

$$$$
unknown|pharmsElabsTestPreDocking|sdf|139|dock2
     RDKit          3D

 17 17  0  0  0  0  0  0  0  0999 V2000
    3.3062    8.6004    2.1326 C   0  0  0  0  0  0  0  0  0  0  0  0
    4.6014    8.9232    2.1014 C   0  0  0  0  0  0  0  0  0  0  0  0
    5.4651    9.1617    3.2836 C   0  0  0  0  0  0  0  0  0  0  0  0
    4.9467    9.7539    4.3867 C   0  0  0  0  0  0  0  0  0  0  0  0
    5.7447   10.1033    5.6058 C   0  0  0  0  0  0  0  0  0  0  0  0
    6.8889    8.8890    3.2350 N   0  0  0  0  0  0  0  0  0  0  0  0
    7.9418    9.2946    2.3289 C   0  0  0  0  0  0  0  0  0  0  0  0
    7.6264   10.1008    1.4162 O   0  0  0  0  0  0  0  0  0  0  0  0
    9.4086    8.9611    2.3542 C   0  0  0  0  0  0  0  0  0  0  0  0
    9.7148    7.5103    2.6859 C   0  0  0  0  0  0  0  0  0  0  0  0
   11.1606    7.1237    2.4510 C   0  0  0  0  0  0  0  0  0  0  0  0
   12.2331    8.1859    2.7127 C   0  0  0  0  0  0  0  0  0  0  0  0
   13.5697    7.8790    1.9931 C   0  0  0  0  0  0  0  0  0  0  0  0
   14.5487    9.0293    1.7573 C   0  0  0  0  0  0  0  0  0  0  0  0
   13.3888    7.0513    0.7996 N   0  0  0  0  0  0  0  0  0  0  0  0
   11.8269    9.6607    2.4708 C   0  0  0  0  0  0  0  0  0  0  0  0
   10.3806   10.0355    2.7652 C   0  0  0  0  0  0  0  0  0  0  0  0
  1  2  2  0
  2  3  1  0
  3  4  2  0
  4  5  1  0
  3  6  1  0
  6  7  1  0
  7  8  2  0
  7  9  1  0
  9 10  1  0
 10 11  1  0
 11 12  1  0
 12 13  1  0
 13 14  1  0
 13 15  1  0
 12 16  1  0
 16 17  1  0
 17  9  1  0
M  CHG  1  15   1
M  END
>  <EmbedRMS>  (139) 
0.29216731409503444

>  <Gold.Version>  (139) 
2020.3.0

>  <Gold.Id.Protein>  (139) 
unknown|1q8t_protein|pdb

>  <Gold.PLP.Fitness>  (139) 
45.2566

>  <Gold.PLP.PLP>  (139) 
-39.6258

>  <Gold.PLP.part.hbond>  (139) 
-1.6151

>  <Gold.PLP.part.metal>  (139) 
0.0000

>  <Gold.PLP.part.buried>  (139) 
-2.3627

>  <Gold.PLP.part.nonpolar>  (139) 
-35.4041

>  <Gold.PLP.part.repulsive>  (139) 
0.0549

>  <Gold.PLP.ligand.clash>  (139) 
0.0000

>  <Gold.PLP.ligand.torsion>  (139) 
1.9889

>  <Gold.PLP.Chemscore.Hbond>  (139) 
2.8888

>  <Gold.PLP.Chemscore.CHOScore>  (139) 
0.0000

>  <Gold.PLP.Chemscore.Metal>  (139) 
0.0000

>  <Gold.Chemscore.Hbonds>  (139) 
donor molecule, donor type, donor heavy atom, donor atom, acceptor molecule, acceptor atom, score
      L1  H    15    36       P1  2902  1.98
      L1  H    15    37       P1  2691  0.90

>  <Gold.PLP.Chemscore.Internal.Correction>  (139) 
0.9423

>  <Gold.PLP.Constraint>  (139) 
-0.0000

>  <Gold.Protein.RotatedTorsions>  (139) 
[  681  677  676  673 ] final    4.45 input -179.99 | X-H torsion
[  702  698  697  694 ] final   10.52 input  179.99 | X-H torsion
[ 2577 2569 2568 2566 ] final  -91.56 input   -0.13 | X-H torsion
[ 2891 2887 2886 2883 ] final  -89.43 input  179.98 | X-H torsion
[ 3175 3171 3170 3167 ] final  101.43 input -179.99 | X-H torsion
[ 5278 5270 5269 5267 ] final  -44.85 input    0.55 | X-H torsion
[  641  637  636  633 ] final   47.83 input  179.99 | X-H torsion
[ 1886 1878 1877 1875 ] final  -45.78 input    1.60 | X-H torsion
[  965  957  956  954 ] final   -1.10 input    0.45 | X-H torsion

>  <Gold.Protein.ActiveResidues>  (139) 
 LYS47   THR48   LEU49   GLY50   THR51   GLY52   SER53   PHE54   GLY55   ARG56  
 VAL57   MET58   LEU59   TYR69   ALA70   MET71   LYS72   ILE73   LEU74   GLU91  
 LEU95   VAL104  LYS105  MET118  VAL119  MET120  GLU121  TYR122  VAL123  PRO124 
 GLY125  GLY126  GLU127  MET128  PHE129  TYR164  ASP166  LEU167  LYS168  PRO169 
 GLU170  ASN171  LEU172  LEU173  ILE174  GLN181  VAL182  THR183  ASP184  PHE185 
 GLY186  PHE187  GLY200  THR201  ASN326  PHE327  TYR330  ARG18   ARG19   ASN20  
 ALA21   ILE22   HIS23  

>  <Gold.Protein.RotatedAtoms>  (139) 
    9.7686   19.6320    8.5463 H   0  0  0  0  0  0  0  0  0  0  0  0  # atno 641  bound_to 637 
   15.9180   12.6193    6.4076 H   0  0  0  0  0  0  0  0  0  0  0  0  # atno 681  bound_to 677 
   19.4193   11.8416   -0.7848 H   0  0  0  0  0  0  0  0  0  0  0  0  # atno 702  bound_to 698 
   -6.7112   15.4073   -1.0183 H   0  0  0  0  0  0  0  0  0  0  0  0  # atno 965  bound_to 957 
    1.8803   10.7203   10.3698 H   0  0  0  0  0  0  0  0  0  0  0  0  # atno 1886 bound_to 1878
   10.9792    2.9887   -3.0861 H   0  0  0  0  0  0  0  0  0  0  0  0  # atno 2577 bound_to 2569
    7.2600    5.4378    1.3128 H   0  0  0  0  0  0  0  0  0  0  0  0  # atno 2891 bound_to 2887
   18.0258    1.9734   -0.9159 H   0  0  0  0  0  0  0  0  0  0  0  0  # atno 3175 bound_to 3171
   13.0782    9.8358   10.3642 H   0  0  0  0  0  0  0  0  0  0  0  0  # atno 5278 bound_to 5270
   16.1282   13.7913    7.4650 LP  0  0  0  0  0  0  0  0  0  0  0  0  # atno 5914 bound_to 677 
   17.2919   13.4240    6.3799 LP  0  0  0  0  0  0  0  0  0  0  0  0  # atno 5915 bound_to 677 
   20.9694   11.5458   -0.5681 LP  0  0  0  0  0  0  0  0  0  0  0  0  # atno 5920 bound_to 698 
   20.3460   11.6853   -2.0709 LP  0  0  0  0  0  0  0  0  0  0  0  0  # atno 5921 bound_to 698 
   10.1163    1.8699   -2.3521 LP  0  0  0  0  0  0  0  0  0  0  0  0  # atno 5950 bound_to 2569
    9.3940    3.0475   -3.2227 LP  0  0  0  0  0  0  0  0  0  0  0  0  # atno 5951 bound_to 2569
    7.7071    6.9611    1.1852 LP  0  0  0  0  0  0  0  0  0  0  0  0  # atno 5982 bound_to 2887
    8.3270    5.8208    0.1941 LP  0  0  0  0  0  0  0  0  0  0  0  0  # atno 5983 bound_to 2887
   19.2988    2.9227   -1.0331 LP  0  0  0  0  0  0  0  0  0  0  0  0  # atno 6000 bound_to 3171
   18.6189    2.6092    0.4181 LP  0  0  0  0  0  0  0  0  0  0  0  0  # atno 6001 bound_to 3171
   14.4731   10.0175    9.6172 LP  0  0  0  0  0  0  0  0  0  0  0  0  # atno 6004 bound_to 5270
   13.0632   10.2009    8.8140 LP  0  0  0  0  0  0  0  0  0  0  0  0  # atno 6005 bound_to 5270
   10.3310   18.9445    7.2249 LP  0  0  0  0  0  0  0  0  0  0  0  0  # atno 6055 bound_to 637 
   11.3455   19.4810    8.3866 LP  0  0  0  0  0  0  0  0  0  0  0  0  # atno 6056 bound_to 637 
    0.5755   11.3116   11.0648 LP  0  0  0  0  0  0  0  0  0  0  0  0  # atno 6063 bound_to 1878
    1.8304   12.2818   10.6770 LP  0  0  0  0  0  0  0  0  0  0  0  0  # atno 6064 bound_to 1878
   -6.5427   16.9449   -1.3958 LP  0  0  0  0  0  0  0  0  0  0  0  0  # atno 6067 bound_to 957 
   -7.1971   16.5001    0.0327 LP  0  0  0  0  0  0  0  0  0  0  0  0  # atno 6068 bound_to 957 

>  <STRIFE_LigEff_Score>  (139) 
2.6621529411764704

$$$$
unknown|pharmsElabsTestPreDocking|sdf|140|dock7
     RDKit          3D

 18 19  0  0  0  0  0  0  0  0999 V2000
   14.5535    9.5031    1.1008 C   0  0  0  0  0  0  0  0  0  0  0  0
   13.7648    8.2612    1.4807 C   0  0  0  0  0  0  0  0  0  0  0  0
   14.0909    7.0684    0.7068 N   0  0  0  0  0  0  0  0  0  0  0  0
   12.2727    8.4674    1.8837 C   0  0  0  0  0  0  0  0  0  0  0  0
   11.5897    7.3543    2.6937 C   0  0  0  0  0  0  0  0  0  0  0  0
   10.0576    7.5181    2.6793 C   0  0  0  0  0  0  0  0  0  0  0  0
    9.5814    8.9567    2.4622 C   0  0  0  0  0  0  0  0  0  0  0  0
    8.1022    9.1483    2.5911 C   0  0  0  0  0  0  0  0  0  0  0  0
    7.5722    9.6173    1.5603 O   0  0  0  0  0  0  0  0  0  0  0  0
    7.2972    8.8421    3.7533 N   0  0  0  0  0  0  0  0  0  0  0  0
    5.8798    9.1618    3.8834 C   0  0  0  0  0  0  0  0  0  0  0  0
    5.3717    9.5420    5.1405 C   0  0  0  0  0  0  0  0  0  0  0  0
    4.0170    9.8683    5.2987 C   0  0  0  0  0  0  0  0  0  0  0  0
    3.1457    9.8116    4.2102 C   0  0  0  0  0  0  0  0  0  0  0  0
    3.6243    9.4410    2.9604 C   0  0  0  0  0  0  0  0  0  0  0  0
    4.9704    9.1338    2.7901 C   0  0  0  0  0  0  0  0  0  0  0  0
   10.4912   10.1331    2.7617 C   0  0  0  0  0  0  0  0  0  0  0  0
   11.9900    9.8360    2.5403 C   0  0  0  0  0  0  0  0  0  0  0  0
  1  2  1  0
  2  3  1  0
  2  4  1  0
  4  5  1  0
  5  6  1  0
  6  7  1  0
  7  8  1  0
  8  9  2  0
  8 10  1  0
 10 11  1  0
 11 12  2  0
 12 13  1  0
 13 14  2  0
 14 15  1  0
 15 16  2  0
  7 17  1  0
 17 18  1  0
 18  4  1  0
 16 11  1  0
M  CHG  1   3   1
M  END
>  <EmbedRMS>  (140) 
0.24964892458419108

>  <Gold.Version>  (140) 
2020.3.0

>  <Gold.Id.Protein>  (140) 
unknown|1q8t_protein|pdb

>  <Gold.PLP.Fitness>  (140) 
55.0318

>  <Gold.PLP.PLP>  (140) 
-46.9152

>  <Gold.PLP.part.hbond>  (140) 
-2.0000

>  <Gold.PLP.part.metal>  (140) 
0.0000

>  <Gold.PLP.part.buried>  (140) 
-1.8878

>  <Gold.PLP.part.nonpolar>  (140) 
-43.4200

>  <Gold.PLP.part.repulsive>  (140) 
0.0752

>  <Gold.PLP.ligand.clash>  (140) 
0.0000

>  <Gold.PLP.ligand.torsion>  (140) 
0.8964

>  <Gold.PLP.Chemscore.Hbond>  (140) 
2.9920

>  <Gold.PLP.Chemscore.CHOScore>  (140) 
0.0000

>  <Gold.PLP.Chemscore.Metal>  (140) 
0.0000

>  <Gold.Chemscore.Hbonds>  (140) 
donor molecule, donor type, donor heavy atom, donor atom, acceptor molecule, acceptor atom, score
      L1  H     3    24       P1  2902  2.00
      L1  H     3    25       P1  2691  0.99

>  <Gold.PLP.Chemscore.Internal.Correction>  (140) 
0.9334

>  <Gold.PLP.Constraint>  (140) 
-0.0000

>  <Gold.Protein.RotatedTorsions>  (140) 
[  681  677  676  673 ] final   67.27 input -179.99 | X-H torsion
[  702  698  697  694 ] final -159.58 input  179.99 | X-H torsion
[ 2577 2569 2568 2566 ] final  -17.06 input   -0.13 | X-H torsion
[ 2891 2887 2886 2883 ] final   -8.58 input  179.98 | X-H torsion
[ 3175 3171 3170 3167 ] final  -38.08 input -179.99 | X-H torsion
[ 5278 5270 5269 5267 ] final   62.94 input    0.55 | X-H torsion
[  641  637  636  633 ] final   -0.02 input  179.99 | X-H torsion
[ 1886 1878 1877 1875 ] final  144.81 input    1.60 | X-H torsion
[  965  957  956  954 ] final  -83.53 input    0.45 | X-H torsion

>  <Gold.Protein.ActiveResidues>  (140) 
 LYS47   THR48   LEU49   GLY50   THR51   GLY52   SER53   PHE54   GLY55   ARG56  
 VAL57   MET58   LEU59   TYR69   ALA70   MET71   LYS72   ILE73   LEU74   GLU91  
 LEU95   VAL104  LYS105  MET118  VAL119  MET120  GLU121  TYR122  VAL123  PRO124 
 GLY125  GLY126  GLU127  MET128  PHE129  TYR164  ASP166  LEU167  LYS168  PRO169 
 GLU170  ASN171  LEU172  LEU173  ILE174  GLN181  VAL182  THR183  ASP184  PHE185 
 GLY186  PHE187  GLY200  THR201  ASN326  PHE327  TYR330  ARG18   ARG19   ASN20  
 ALA21   ILE22   HIS23  

>  <Gold.Protein.RotatedAtoms>  (140) 
    9.5865   19.3204    7.9161 H   0  0  0  0  0  0  0  0  0  0  0  0  # atno 641  bound_to 637 
   16.7654   12.7957    6.0575 H   0  0  0  0  0  0  0  0  0  0  0  0  # atno 681  bound_to 677 
   21.0929   11.5556   -1.3382 H   0  0  0  0  0  0  0  0  0  0  0  0  # atno 702  bound_to 698 
   -6.4374   16.3969   -1.5993 H   0  0  0  0  0  0  0  0  0  0  0  0  # atno 965  bound_to 957 
    0.8650   12.0244   11.0398 H   0  0  0  0  0  0  0  0  0  0  0  0  # atno 1886 bound_to 1878
   10.0105    3.3520   -3.4093 H   0  0  0  0  0  0  0  0  0  0  0  0  # atno 2577 bound_to 2569
    8.0061    5.3468    0.4268 H   0  0  0  0  0  0  0  0  0  0  0  0  # atno 2891 bound_to 2887
   19.3562    2.9833   -0.7288 H   0  0  0  0  0  0  0  0  0  0  0  0  # atno 3175 bound_to 3171
   12.9316   10.1793    8.9654 H   0  0  0  0  0  0  0  0  0  0  0  0  # atno 5278 bound_to 5270
   15.5811   13.0679    7.0867 LP  0  0  0  0  0  0  0  0  0  0  0  0  # atno 5914 bound_to 677 
   16.9470   13.9618    7.1267 LP  0  0  0  0  0  0  0  0  0  0  0  0  # atno 5915 bound_to 677 
   19.5977   11.8131   -1.8235 LP  0  0  0  0  0  0  0  0  0  0  0  0  # atno 5920 bound_to 698 
   19.9571   11.7188   -0.2334 LP  0  0  0  0  0  0  0  0  0  0  0  0  # atno 5921 bound_to 698 
   11.0657    2.4206   -2.6649 LP  0  0  0  0  0  0  0  0  0  0  0  0  # atno 5950 bound_to 2569
    9.4646    2.1143   -2.5695 LP  0  0  0  0  0  0  0  0  0  0  0  0  # atno 5951 bound_to 2569
    7.1361    5.9662    1.6084 LP  0  0  0  0  0  0  0  0  0  0  0  0  # atno 5982 bound_to 2887
    8.1128    6.9116    0.7035 LP  0  0  0  0  0  0  0  0  0  0  0  0  # atno 5983 bound_to 2887
   18.3661    2.4173    0.3826 LP  0  0  0  0  0  0  0  0  0  0  0  0  # atno 6000 bound_to 3171
   18.1515    2.0518   -1.1945 LP  0  0  0  0  0  0  0  0  0  0  0  0  # atno 6001 bound_to 3171
   13.2378    9.7919   10.4796 LP  0  0  0  0  0  0  0  0  0  0  0  0  # atno 6004 bound_to 5270
   14.4528   10.0650    9.4234 LP  0  0  0  0  0  0  0  0  0  0  0  0  # atno 6005 bound_to 5270
   11.0671   19.0046    7.4232 LP  0  0  0  0  0  0  0  0  0  0  0  0  # atno 6055 bound_to 637 
   10.8011   19.7491    8.8520 LP  0  0  0  0  0  0  0  0  0  0  0  0  # atno 6056 bound_to 637 
    2.2791   11.7056   10.3810 LP  0  0  0  0  0  0  0  0  0  0  0  0  # atno 6063 bound_to 1878
    1.1957   10.5150   10.6555 LP  0  0  0  0  0  0  0  0  0  0  0  0  # atno 6064 bound_to 1878
   -7.0562   17.0094   -0.2663 LP  0  0  0  0  0  0  0  0  0  0  0  0  # atno 6067 bound_to 957 
   -6.9721   15.3933   -0.4849 LP  0  0  0  0  0  0  0  0  0  0  0  0  # atno 6068 bound_to 957 

>  <STRIFE_LigEff_Score>  (140) 
3.057322222222222

$$$$
unknown|pharmsElabsTestPreDocking|sdf|141|dock7
     RDKit          3D

 19 20  0  0  0  0  0  0  0  0999 V2000
    6.2743   10.0988    5.8196 C   0  0  0  0  0  0  0  0  0  0  0  0
    5.4405    9.7522    4.6187 C   0  0  0  0  0  0  0  0  0  0  0  0
    4.0612   10.0372    4.6562 C   0  0  0  0  0  0  0  0  0  0  0  0
    3.2402    9.7402    3.5720 C   0  0  0  0  0  0  0  0  0  0  0  0
    3.7809    9.1685    2.4328 C   0  0  0  0  0  0  0  0  0  0  0  0
    5.1413    8.8974    2.3649 C   0  0  0  0  0  0  0  0  0  0  0  0
    6.0151    9.1627    3.4570 C   0  0  0  0  0  0  0  0  0  0  0  0
    7.4508    8.8756    3.3962 N   0  0  0  0  0  0  0  0  0  0  0  0
    8.2880    9.0936    2.2341 C   0  0  0  0  0  0  0  0  0  0  0  0
    7.7834    9.4268    1.1413 O   0  0  0  0  0  0  0  0  0  0  0  0
    9.7752    8.9297    2.1638 C   0  0  0  0  0  0  0  0  0  0  0  0
   10.2056    7.5556    1.6732 C   0  0  0  0  0  0  0  0  0  0  0  0
   11.6984    7.2880    1.8086 C   0  0  0  0  0  0  0  0  0  0  0  0
   12.5597    8.5632    1.7614 C   0  0  0  0  0  0  0  0  0  0  0  0
   14.0703    8.1583    1.7956 C   0  0  0  0  0  0  0  0  0  0  0  0
   14.4632    7.6603    3.1983 C   0  0  0  0  0  0  0  0  0  0  0  0
   14.3968    7.1224    0.8061 N   0  0  0  0  0  0  0  0  0  0  0  0
   12.1574    9.4907    2.9380 C   0  0  0  0  0  0  0  0  0  0  0  0
   10.6424    9.7506    3.0937 C   0  0  0  0  0  0  0  0  0  0  0  0
  1  2  1  0
  2  3  2  0
  3  4  1  0
  4  5  2  0
  5  6  1  0
  6  7  2  0
  7  8  1  0
  8  9  1  0
  9 10  2  0
  9 11  1  0
 11 12  1  0
 12 13  1  0
 13 14  1  0
 14 15  1  0
 15 16  1  0
 15 17  1  0
 14 18  1  0
 18 19  1  0
  7  2  1  0
 19 11  1  0
M  CHG  1  17   1
M  END
>  <EmbedRMS>  (141) 
0.17064538222927092

>  <Gold.Version>  (141) 
2020.3.0

>  <Gold.Id.Protein>  (141) 
unknown|1q8t_protein|pdb

>  <Gold.PLP.Fitness>  (141) 
57.0217

>  <Gold.PLP.PLP>  (141) 
-48.9426

>  <Gold.PLP.part.hbond>  (141) 
-2.1498

>  <Gold.PLP.part.metal>  (141) 
0.0000

>  <Gold.PLP.part.buried>  (141) 
-1.2530

>  <Gold.PLP.part.nonpolar>  (141) 
-45.3011

>  <Gold.PLP.part.repulsive>  (141) 
0.0740

>  <Gold.PLP.ligand.clash>  (141) 
0.0000

>  <Gold.PLP.ligand.torsion>  (141) 
0.7851

>  <Gold.PLP.Chemscore.Hbond>  (141) 
3.0000

>  <Gold.PLP.Chemscore.CHOScore>  (141) 
0.0000

>  <Gold.PLP.Chemscore.Metal>  (141) 
0.0000

>  <Gold.Chemscore.Hbonds>  (141) 
donor molecule, donor type, donor heavy atom, donor atom, acceptor molecule, acceptor atom, score
      L1  H    17    38       P1  2902  2.00
      L1  H    17    40       P1  2691  1.00

>  <Gold.PLP.Chemscore.Internal.Correction>  (141) 
0.6493

>  <Gold.PLP.Constraint>  (141) 
-0.0000

>  <Gold.Protein.RotatedTorsions>  (141) 
[  681  677  676  673 ] final -175.51 input -179.99 | X-H torsion
[  702  698  697  694 ] final   -0.81 input  179.99 | X-H torsion
[ 2577 2569 2568 2566 ] final  -38.66 input   -0.13 | X-H torsion
[ 2891 2887 2886 2883 ] final   -3.62 input  179.98 | X-H torsion
[ 3175 3171 3170 3167 ] final  -95.27 input -179.99 | X-H torsion
[ 5278 5270 5269 5267 ] final   38.03 input    0.55 | X-H torsion
[  641  637  636  633 ] final  146.46 input  179.99 | X-H torsion
[ 1886 1878 1877 1875 ] final -162.63 input    1.60 | X-H torsion
[  965  957  956  954 ] final  -27.20 input    0.45 | X-H torsion

>  <Gold.Protein.ActiveResidues>  (141) 
 LYS47   THR48   LEU49   GLY50   THR51   GLY52   SER53   PHE54   GLY55   ARG56  
 VAL57   MET58   LEU59   TYR69   ALA70   MET71   LYS72   ILE73   LEU74   GLU91  
 LEU95   VAL104  LYS105  MET118  VAL119  MET120  GLU121  TYR122  VAL123  PRO124 
 GLY125  GLY126  GLU127  MET128  PHE129  TYR164  ASP166  LEU167  LYS168  PRO169 
 GLU170  ASN171  LEU172  LEU173  ILE174  GLN181  VAL182  THR183  ASP184  PHE185 
 GLY186  PHE187  GLY200  THR201  ASN326  PHE327  TYR330  ARG18   ARG19   ASN20  
 ALA21   ILE22   HIS23  

>  <Gold.Protein.RotatedAtoms>  (141) 
   11.1238   19.5959    8.6238 H   0  0  0  0  0  0  0  0  0  0  0  0  # atno 641  bound_to 637 
   16.9466   13.9287    7.0686 H   0  0  0  0  0  0  0  0  0  0  0  0  # atno 681  bound_to 677 
   19.5023   11.8239   -0.6296 H   0  0  0  0  0  0  0  0  0  0  0  0  # atno 702  bound_to 698 
   -6.5630   15.6025   -1.3400 H   0  0  0  0  0  0  0  0  0  0  0  0  # atno 965  bound_to 957 
    0.6156   11.2719   11.0214 H   0  0  0  0  0  0  0  0  0  0  0  0  # atno 1886 bound_to 1878
   10.3455    3.3635   -3.3928 H   0  0  0  0  0  0  0  0  0  0  0  0  # atno 2577 bound_to 2569
    8.0514    5.3943    0.3857 H   0  0  0  0  0  0  0  0  0  0  0  0  # atno 2891 bound_to 2887
   19.1288    2.9229    0.0956 H   0  0  0  0  0  0  0  0  0  0  0  0  # atno 3175 bound_to 3171
   12.7066   10.1019    9.2697 H   0  0  0  0  0  0  0  0  0  0  0  0  # atno 5278 bound_to 5270
   16.7510   12.7354    6.0323 LP  0  0  0  0  0  0  0  0  0  0  0  0  # atno 5914 bound_to 677 
   15.5865   13.1017    7.1169 LP  0  0  0  0  0  0  0  0  0  0  0  0  # atno 5915 bound_to 677 
   21.0652   11.5318   -0.7270 LP  0  0  0  0  0  0  0  0  0  0  0  0  # atno 5920 bound_to 698 
   20.1628   11.7178   -2.0753 LP  0  0  0  0  0  0  0  0  0  0  0  0  # atno 5921 bound_to 698 
   10.8893    2.1632   -2.4991 LP  0  0  0  0  0  0  0  0  0  0  0  0  # atno 5950 bound_to 2569
    9.2882    2.3596   -2.7528 LP  0  0  0  0  0  0  0  0  0  0  0  0  # atno 5951 bound_to 2569
    7.1344    5.8865    1.5912 LP  0  0  0  0  0  0  0  0  0  0  0  0  # atno 5982 bound_to 2887
    8.0668    6.9413    0.7639 LP  0  0  0  0  0  0  0  0  0  0  0  0  # atno 5983 bound_to 2887
   17.8909    1.9826   -0.2495 LP  0  0  0  0  0  0  0  0  0  0  0  0  # atno 6000 bound_to 3171
   18.8660    2.5501   -1.4301 LP  0  0  0  0  0  0  0  0  0  0  0  0  # atno 6001 bound_to 3171
   13.6423    9.7863   10.5193 LP  0  0  0  0  0  0  0  0  0  0  0  0  # atno 6004 bound_to 5270
   14.2851   10.1521    9.0634 LP  0  0  0  0  0  0  0  0  0  0  0  0  # atno 6005 bound_to 5270
    9.5695   19.5284    8.2851 LP  0  0  0  0  0  0  0  0  0  0  0  0  # atno 6055 bound_to 637 
   10.6798   18.9352    7.2449 LP  0  0  0  0  0  0  0  0  0  0  0  0  # atno 6056 bound_to 637 
    1.7875   12.3006   10.6992 LP  0  0  0  0  0  0  0  0  0  0  0  0  # atno 6063 bound_to 1878
    1.9498   10.7122   10.3567 LP  0  0  0  0  0  0  0  0  0  0  0  0  # atno 6064 bound_to 1878
   -6.6920   17.1651   -1.0632 LP  0  0  0  0  0  0  0  0  0  0  0  0  # atno 6067 bound_to 957 
   -7.2040   16.0744    0.0389 LP  0  0  0  0  0  0  0  0  0  0  0  0  # atno 6068 bound_to 957 

>  <STRIFE_LigEff_Score>  (141) 
3.001142105263158

$$$$
unknown|pharmsElabsTestPreDocking|sdf|142|dock2
     RDKit          3D

 19 19  0  0  0  0  0  0  0  0999 V2000
    3.9322    9.7950    5.5037 C   0  0  0  0  0  0  0  0  0  0  0  0
    5.0612    9.9219    4.7994 C   0  0  0  0  0  0  0  0  0  0  0  0
    6.3158   10.0986    5.6085 C   0  0  0  0  0  0  0  0  0  0  0  0
    5.1031   10.0788    3.3051 C   0  0  0  0  0  0  0  0  0  0  0  0
    4.3039    9.4124    2.4401 C   0  0  0  0  0  0  0  0  0  0  0  0
    3.2967    8.3591    2.7887 C   0  0  0  0  0  0  0  0  0  0  0  0
    6.1304   11.0081    2.6913 C   0  0  0  0  0  0  0  0  0  0  0  0
    7.4629   10.4311    2.8100 N   0  0  0  0  0  0  0  0  0  0  0  0
    7.7364    9.0646    2.4867 C   0  0  0  0  0  0  0  0  0  0  0  0
    6.8277    8.3310    2.0033 O   0  0  0  0  0  0  0  0  0  0  0  0
    9.1226    8.5122    2.6982 C   0  0  0  0  0  0  0  0  0  0  0  0
    9.7524    8.1976    1.3463 C   0  0  0  0  0  0  0  0  0  0  0  0
   11.1076    7.5277    1.4770 C   0  0  0  0  0  0  0  0  0  0  0  0
   11.9996    8.0786    2.6054 C   0  0  0  0  0  0  0  0  0  0  0  0
   13.5470    7.9367    2.3841 C   0  0  0  0  0  0  0  0  0  0  0  0
   14.3768    7.5493    3.6174 C   0  0  0  0  0  0  0  0  0  0  0  0
   13.8700    7.0503    1.2604 N   0  0  0  0  0  0  0  0  0  0  0  0
   11.4845    9.2239    3.5022 C   0  0  0  0  0  0  0  0  0  0  0  0
    9.9737    9.5250    3.4722 C   0  0  0  0  0  0  0  0  0  0  0  0
  1  2  2  0
  2  3  1  0
  2  4  1  0
  4  5  2  0
  5  6  1  0
  4  7  1  0
  7  8  1  0
  8  9  1  0
  9 10  2  0
  9 11  1  0
 11 12  1  0
 12 13  1  0
 13 14  1  0
 14 15  1  0
 15 16  1  0
 15 17  1  0
 14 18  1  0
 18 19  1  0
 19 11  1  0
M  CHG  1  17   1
M  END
>  <EmbedRMS>  (142) 
0.16423161568044162

>  <Gold.Version>  (142) 
2020.3.0

>  <Gold.Id.Protein>  (142) 
unknown|1q8t_protein|pdb

>  <Gold.PLP.Fitness>  (142) 
51.9273

>  <Gold.PLP.PLP>  (142) 
-41.8618

>  <Gold.PLP.part.hbond>  (142) 
-2.9496

>  <Gold.PLP.part.metal>  (142) 
0.0000

>  <Gold.PLP.part.buried>  (142) 
2.2078

>  <Gold.PLP.part.nonpolar>  (142) 
-41.0788

>  <Gold.PLP.part.repulsive>  (142) 
0.0560

>  <Gold.PLP.ligand.clash>  (142) 
0.0000

>  <Gold.PLP.ligand.torsion>  (142) 
1.5024

>  <Gold.PLP.Chemscore.Hbond>  (142) 
4.0000

>  <Gold.PLP.Chemscore.CHOScore>  (142) 
0.0000

>  <Gold.PLP.Chemscore.Metal>  (142) 
0.0000

>  <Gold.Chemscore.Hbonds>  (142) 
donor molecule, donor type, donor heavy atom, donor atom, acceptor molecule, acceptor atom, score
      L1  H    17    43       P1  2691  1.00
      L1  H    17    44       P1  2902  2.00
      P1  H  2887  2891       L1    10  1.00

>  <Gold.PLP.Chemscore.Internal.Correction>  (142) 
1.0704

>  <Gold.PLP.Constraint>  (142) 
-0.0000

>  <Gold.Protein.RotatedTorsions>  (142) 
[  681  677  676  673 ] final -143.15 input -179.99 | X-H torsion
[  702  698  697  694 ] final -112.29 input  179.99 | X-H torsion
[ 2577 2569 2568 2566 ] final  -77.45 input   -0.13 | X-H torsion
[ 2891 2887 2886 2883 ] final  166.84 input  179.98 | X-H torsion
[ 3175 3171 3170 3167 ] final   82.74 input -179.99 | X-H torsion
[ 5278 5270 5269 5267 ] final -123.38 input    0.55 | X-H torsion
[  641  637  636  633 ] final -103.97 input  179.99 | X-H torsion
[ 1886 1878 1877 1875 ] final   -7.55 input    1.60 | X-H torsion
[  965  957  956  954 ] final   10.18 input    0.45 | X-H torsion

>  <Gold.Protein.ActiveResidues>  (142) 
 LYS47   THR48   LEU49   GLY50   THR51   GLY52   SER53   PHE54   GLY55   ARG56  
 VAL57   MET58   LEU59   TYR69   ALA70   MET71   LYS72   ILE73   LEU74   GLU91  
 LEU95   VAL104  LYS105  MET118  VAL119  MET120  GLU121  TYR122  VAL123  PRO124 
 GLY125  GLY126  GLU127  MET128  PHE129  TYR164  ASP166  LEU167  LYS168  PRO169 
 GLU170  ASN171  LEU172  LEU173  ILE174  GLN181  VAL182  THR183  ASP184  PHE185 
 GLY186  PHE187  GLY200  THR201  ASN326  PHE327  TYR330  ARG18   ARG19   ASN20  
 ALA21   ILE22   HIS23  

>  <Gold.Protein.RotatedAtoms>  (142) 
   10.8229   18.9582    7.3420 H   0  0  0  0  0  0  0  0  0  0  0  0  # atno 641  bound_to 637 
   16.5250   13.9346    7.3356 H   0  0  0  0  0  0  0  0  0  0  0  0  # atno 681  bound_to 677 
   20.9611   11.5653   -0.6316 H   0  0  0  0  0  0  0  0  0  0  0  0  # atno 702  bound_to 698 
   -6.7832   15.3762   -0.8608 H   0  0  0  0  0  0  0  0  0  0  0  0  # atno 965  bound_to 957 
    2.2101   11.2012   10.3064 H   0  0  0  0  0  0  0  0  0  0  0  0  # atno 1886 bound_to 1878
   10.8585    3.1355   -3.1968 H   0  0  0  0  0  0  0  0  0  0  0  0  # atno 2577 bound_to 2569
    7.5335    6.8203    1.3272 H   0  0  0  0  0  0  0  0  0  0  0  0  # atno 2891 bound_to 2887
   18.1778    2.0554   -1.1498 H   0  0  0  0  0  0  0  0  0  0  0  0  # atno 3175 bound_to 3171
   14.1985    9.8892   10.1952 H   0  0  0  0  0  0  0  0  0  0  0  0  # atno 5278 bound_to 5270
   17.1332   13.0801    6.1373 LP  0  0  0  0  0  0  0  0  0  0  0  0  # atno 5914 bound_to 677 
   15.6480   12.7508    6.7309 LP  0  0  0  0  0  0  0  0  0  0  0  0  # atno 5915 bound_to 677 
   20.3007   11.6934   -2.0755 LP  0  0  0  0  0  0  0  0  0  0  0  0  # atno 5920 bound_to 698 
   19.3928   11.8283   -0.7248 LP  0  0  0  0  0  0  0  0  0  0  0  0  # atno 5921 bound_to 698 
   10.3470    1.8889   -2.3484 LP  0  0  0  0  0  0  0  0  0  0  0  0  # atno 5950 bound_to 2569
    9.2903    2.8739   -3.1098 LP  0  0  0  0  0  0  0  0  0  0  0  0  # atno 5951 bound_to 2569
    8.3787    6.0824    0.1969 LP  0  0  0  0  0  0  0  0  0  0  0  0  # atno 5982 bound_to 2887
    7.3675    5.2444    1.1674 LP  0  0  0  0  0  0  0  0  0  0  0  0  # atno 5983 bound_to 2887
   19.3814    3.0203   -0.7550 LP  0  0  0  0  0  0  0  0  0  0  0  0  # atno 6000 bound_to 3171
   18.3763    2.4253    0.3862 LP  0  0  0  0  0  0  0  0  0  0  0  0  # atno 6001 bound_to 3171
   13.7226   10.2323    8.7145 LP  0  0  0  0  0  0  0  0  0  0  0  0  # atno 6004 bound_to 5270
   12.6350    9.9299    9.8944 LP  0  0  0  0  0  0  0  0  0  0  0  0  # atno 6005 bound_to 5270
   11.0319   19.6815    8.7449 LP  0  0  0  0  0  0  0  0  0  0  0  0  # atno 6055 bound_to 637 
    9.5343   19.4537    8.1350 LP  0  0  0  0  0  0  0  0  0  0  0  0  # atno 6056 bound_to 637 
    0.7894   10.7636   10.8770 LP  0  0  0  0  0  0  0  0  0  0  0  0  # atno 6063 bound_to 1878
    1.2693   12.3235   10.9315 LP  0  0  0  0  0  0  0  0  0  0  0  0  # atno 6064 bound_to 1878
   -6.4943   16.8033   -1.5051 LP  0  0  0  0  0  0  0  0  0  0  0  0  # atno 6067 bound_to 957 
   -7.1697   16.6744   -0.0239 LP  0  0  0  0  0  0  0  0  0  0  0  0  # atno 6068 bound_to 957 

>  <STRIFE_LigEff_Score>  (142) 
2.733015789473684

$$$$
unknown|pharmsElabsTestPreDocking|sdf|143|dock10
     RDKit          3D

 13 13  0  0  0  0  0  0  0  0999 V2000
    4.9802    8.9487    2.8546 C   0  0  0  0  0  0  0  0  0  0  0  0
    6.3741    8.9675    2.4044 N   0  0  0  0  0  0  0  0  0  0  0  0
    7.4350    9.0102    3.3697 C   0  0  0  0  0  0  0  0  0  0  0  0
    7.1479    9.1140    4.5880 O   0  0  0  0  0  0  0  0  0  0  0  0
    8.8992    8.9146    3.0585 C   0  0  0  0  0  0  0  0  0  0  0  0
    9.4467    7.4877    2.9720 C   0  0  0  0  0  0  0  0  0  0  0  0
   10.9816    7.4010    2.8424 C   0  0  0  0  0  0  0  0  0  0  0  0
   11.5598    8.6829    2.2223 C   0  0  0  0  0  0  0  0  0  0  0  0
   13.0218    8.6345    1.6808 C   0  0  0  0  0  0  0  0  0  0  0  0
   13.5897    9.9252    1.1152 C   0  0  0  0  0  0  0  0  0  0  0  0
   13.4381    7.4240    0.9805 N   0  0  0  0  0  0  0  0  0  0  0  0
   11.2821    9.8794    3.1548 C   0  0  0  0  0  0  0  0  0  0  0  0
    9.7932   10.0541    3.5225 C   0  0  0  0  0  0  0  0  0  0  0  0
  1  2  1  0
  2  3  1  0
  3  4  2  0
  3  5  1  0
  5  6  1  0
  6  7  1  0
  7  8  1  0
  8  9  1  0
  9 10  1  0
  9 11  1  0
  8 12  1  0
 12 13  1  0
 13  5  1  0
M  CHG  1  11   1
M  END
>  <EmbedRMS>  (143) 
0.29639754771625826

>  <Gold.Version>  (143) 
2020.3.0

>  <Gold.Id.Protein>  (143) 
unknown|1q8t_protein|pdb

>  <Gold.PLP.Fitness>  (143) 
34.1873

>  <Gold.PLP.PLP>  (143) 
-25.8288

>  <Gold.PLP.part.hbond>  (143) 
-2.0000

>  <Gold.PLP.part.metal>  (143) 
0.0000

>  <Gold.PLP.part.buried>  (143) 
-3.0516

>  <Gold.PLP.part.nonpolar>  (143) 
-20.3150

>  <Gold.PLP.part.repulsive>  (143) 
0.0526

>  <Gold.PLP.ligand.clash>  (143) 
0.0000

>  <Gold.PLP.ligand.torsion>  (143) 
0.5352

>  <Gold.PLP.Chemscore.Hbond>  (143) 
2.8000

>  <Gold.PLP.Chemscore.CHOScore>  (143) 
0.0000

>  <Gold.PLP.Chemscore.Metal>  (143) 
0.0000

>  <Gold.Chemscore.Hbonds>  (143) 
donor molecule, donor type, donor heavy atom, donor atom, acceptor molecule, acceptor atom, score
      L1  H    11    28       P1  2691  0.80
      L1  H    11    29       P1  2902  2.00

>  <Gold.PLP.Chemscore.Internal.Correction>  (143) 
1.0290

>  <Gold.PLP.Constraint>  (143) 
-0.0000

>  <Gold.Protein.RotatedTorsions>  (143) 
[  681  677  676  673 ] final   12.85 input -179.99 | X-H torsion
[  702  698  697  694 ] final  -85.37 input  179.99 | X-H torsion
[ 2577 2569 2568 2566 ] final  -61.86 input   -0.13 | X-H torsion
[ 2891 2887 2886 2883 ] final   90.01 input  179.98 | X-H torsion
[ 3175 3171 3170 3167 ] final   32.50 input -179.99 | X-H torsion
[ 5278 5270 5269 5267 ] final   35.74 input    0.55 | X-H torsion
[  641  637  636  633 ] final   10.07 input  179.99 | X-H torsion
[ 1886 1878 1877 1875 ] final   24.26 input    1.60 | X-H torsion
[  965  957  956  954 ] final  115.01 input    0.45 | X-H torsion

>  <Gold.Protein.ActiveResidues>  (143) 
 LYS47   THR48   LEU49   GLY50   THR51   GLY52   SER53   PHE54   GLY55   ARG56  
 VAL57   MET58   LEU59   TYR69   ALA70   MET71   LYS72   ILE73   LEU74   GLU91  
 LEU95   VAL104  LYS105  MET118  VAL119  MET120  GLU121  TYR122  VAL123  PRO124 
 GLY125  GLY126  GLU127  MET128  PHE129  TYR164  ASP166  LEU167  LYS168  PRO169 
 GLU170  ASN171  LEU172  LEU173  ILE174  GLN181  VAL182  THR183  ASP184  PHE185 
 GLY186  PHE187  GLY200  THR201  ASN326  PHE327  TYR330  ARG18   ARG19   ASN20  
 ALA21   ILE22   HIS23  

>  <Gold.Protein.RotatedAtoms>  (143) 
    9.5746   19.3924    8.0557 H   0  0  0  0  0  0  0  0  0  0  0  0  # atno 641  bound_to 637 
   16.0168   12.5968    6.3241 H   0  0  0  0  0  0  0  0  0  0  0  0  # atno 681  bound_to 677 
   20.6565   11.6139   -0.3505 H   0  0  0  0  0  0  0  0  0  0  0  0  # atno 702  bound_to 698 
   -7.1691   16.4289    0.0090 H   0  0  0  0  0  0  0  0  0  0  0  0  # atno 965  bound_to 957 
    2.2319   11.6861   10.3795 H   0  0  0  0  0  0  0  0  0  0  0  0  # atno 1886 bound_to 1878
   10.6777    3.2622   -3.2981 H   0  0  0  0  0  0  0  0  0  0  0  0  # atno 2577 bound_to 2569
    8.2393    6.6839    0.4770 H   0  0  0  0  0  0  0  0  0  0  0  0  # atno 2891 bound_to 2887
   18.7697    2.4606   -1.4026 H   0  0  0  0  0  0  0  0  0  0  0  0  # atno 3175 bound_to 3171
   12.6931   10.0938    9.3020 H   0  0  0  0  0  0  0  0  0  0  0  0  # atno 5278 bound_to 5270
   16.0139   13.7140    7.4591 LP  0  0  0  0  0  0  0  0  0  0  0  0  # atno 5914 bound_to 677 
   17.3022   13.5250    6.4737 LP  0  0  0  0  0  0  0  0  0  0  0  0  # atno 5915 bound_to 677 
   20.7121   11.6179   -1.9424 LP  0  0  0  0  0  0  0  0  0  0  0  0  # atno 5920 bound_to 698 
   19.3017   11.8527   -1.1535 LP  0  0  0  0  0  0  0  0  0  0  0  0  # atno 5921 bound_to 698 
   10.5896    1.9629   -2.3820 LP  0  0  0  0  0  0  0  0  0  0  0  0  # atno 5950 bound_to 2569
    9.2382    2.6665   -2.9696 LP  0  0  0  0  0  0  0  0  0  0  0  0  # atno 5951 bound_to 2569
    7.8072    5.1595    0.6378 LP  0  0  0  0  0  0  0  0  0  0  0  0  # atno 5982 bound_to 2887
    7.1962    6.3110    1.6213 LP  0  0  0  0  0  0  0  0  0  0  0  0  # atno 5983 bound_to 2887
   19.2154    2.9999    0.0278 LP  0  0  0  0  0  0  0  0  0  0  0  0  # atno 6000 bound_to 3171
   17.9194    2.0192   -0.1307 LP  0  0  0  0  0  0  0  0  0  0  0  0  # atno 6001 bound_to 3171
   13.6797    9.7879   10.5143 LP  0  0  0  0  0  0  0  0  0  0  0  0  # atno 6004 bound_to 5270
   14.2618   10.1590    9.0345 LP  0  0  0  0  0  0  0  0  0  0  0  0  # atno 6005 bound_to 5270
   10.9303   18.9681    7.3367 LP  0  0  0  0  0  0  0  0  0  0  0  0  # atno 6055 bound_to 637 
   10.9504   19.7098    8.7914 LP  0  0  0  0  0  0  0  0  0  0  0  0  # atno 6056 bound_to 637 
    1.1879   10.5169   10.6593 LP  0  0  0  0  0  0  0  0  0  0  0  0  # atno 6063 bound_to 1878
    0.8479   12.0598   11.0723 LP  0  0  0  0  0  0  0  0  0  0  0  0  # atno 6064 bound_to 1878
   -6.6957   15.3812   -1.0925 LP  0  0  0  0  0  0  0  0  0  0  0  0  # atno 6067 bound_to 957 
   -6.5620   16.9878   -1.3526 LP  0  0  0  0  0  0  0  0  0  0  0  0  # atno 6068 bound_to 957 

>  <STRIFE_LigEff_Score>  (143) 
2.6297923076923078

$$$$
unknown|pharmsElabsTestPreDocking|sdf|144|dock7
     RDKit          3D

 19 20  0  0  0  0  0  0  0  0999 V2000
    3.1544    9.3430    1.6935 C   0  0  0  0  0  0  0  0  0  0  0  0
    3.9302    9.4949    2.9615 C   0  0  0  0  0  0  0  0  0  0  0  0
    3.2964    9.9529    4.1227 C   0  0  0  0  0  0  0  0  0  0  0  0
    4.0367   10.0894    5.2961 C   0  0  0  0  0  0  0  0  0  0  0  0
    5.3933    9.7716    5.3018 C   0  0  0  0  0  0  0  0  0  0  0  0
    6.0025    9.3164    4.1258 C   0  0  0  0  0  0  0  0  0  0  0  0
    7.4018    8.9965    4.1409 N   0  0  0  0  0  0  0  0  0  0  0  0
    8.2997    9.1754    3.0388 C   0  0  0  0  0  0  0  0  0  0  0  0
    7.8977    9.6847    1.9544 O   0  0  0  0  0  0  0  0  0  0  0  0
    9.7470    8.7727    3.1953 C   0  0  0  0  0  0  0  0  0  0  0  0
   10.1218    7.7817    2.1000 C   0  0  0  0  0  0  0  0  0  0  0  0
   11.5294    7.2380    2.2636 C   0  0  0  0  0  0  0  0  0  0  0  0
   12.5769    8.2703    2.7219 C   0  0  0  0  0  0  0  0  0  0  0  0
   14.0552    7.9893    2.2749 C   0  0  0  0  0  0  0  0  0  0  0  0
   15.0160    7.5048    3.3712 C   0  0  0  0  0  0  0  0  0  0  0  0
   14.1254    7.0965    1.1124 N   0  0  0  0  0  0  0  0  0  0  0  0
   12.1512    9.7294    2.9888 C   0  0  0  0  0  0  0  0  0  0  0  0
   10.6438   10.0145    3.1363 C   0  0  0  0  0  0  0  0  0  0  0  0
    5.2578    9.1901    2.9902 N   0  0  0  0  0  0  0  0  0  0  0  0
  1  2  1  0
  2  3  2  0
  3  4  1  0
  4  5  2  0
  5  6  1  0
  6  7  1  0
  7  8  1  0
  8  9  2  0
  8 10  1  0
 10 11  1  0
 11 12  1  0
 12 13  1  0
 13 14  1  0
 14 15  1  0
 14 16  1  0
 13 17  1  0
 17 18  1  0
  6 19  2  0
 19  2  1  0
 18 10  1  0
M  CHG  1  16   1
M  END
>  <EmbedRMS>  (144) 
0.15965114723976082

>  <Gold.Version>  (144) 
2020.3.0

>  <Gold.Id.Protein>  (144) 
unknown|1q8t_protein|pdb

>  <Gold.PLP.Fitness>  (144) 
53.7796

>  <Gold.PLP.PLP>  (144) 
-47.2030

>  <Gold.PLP.part.hbond>  (144) 
-2.0000

>  <Gold.PLP.part.metal>  (144) 
0.0000

>  <Gold.PLP.part.buried>  (144) 
-1.3509

>  <Gold.PLP.part.nonpolar>  (144) 
-43.7272

>  <Gold.PLP.part.repulsive>  (144) 
0.0630

>  <Gold.PLP.ligand.clash>  (144) 
0.0000

>  <Gold.PLP.ligand.torsion>  (144) 
1.4933

>  <Gold.PLP.Chemscore.Hbond>  (144) 
3.0000

>  <Gold.PLP.Chemscore.CHOScore>  (144) 
0.0000

>  <Gold.PLP.Chemscore.Metal>  (144) 
0.0000

>  <Gold.Chemscore.Hbonds>  (144) 
donor molecule, donor type, donor heavy atom, donor atom, acceptor molecule, acceptor atom, score
      L1  H    16    37       P1  2691  1.00
      L1  H    16    38       P1  2902  2.00

>  <Gold.PLP.Chemscore.Internal.Correction>  (144) 
0.5631

>  <Gold.PLP.Constraint>  (144) 
-0.0000

>  <Gold.Protein.RotatedTorsions>  (144) 
[  681  677  676  673 ] final -124.19 input -179.99 | X-H torsion
[  702  698  697  694 ] final   60.35 input  179.99 | X-H torsion
[ 2577 2569 2568 2566 ] final  123.24 input   -0.13 | X-H torsion
[ 2891 2887 2886 2883 ] final  -44.58 input  179.98 | X-H torsion
[ 3175 3171 3170 3167 ] final -158.28 input -179.99 | X-H torsion
[ 5278 5270 5269 5267 ] final   88.02 input    0.55 | X-H torsion
[  641  637  636  633 ] final -169.33 input  179.99 | X-H torsion
[ 1886 1878 1877 1875 ] final -106.01 input    1.60 | X-H torsion
[  965  957  956  954 ] final  -85.91 input    0.45 | X-H torsion

>  <Gold.Protein.ActiveResidues>  (144) 
 LYS47   THR48   LEU49   GLY50   THR51   GLY52   SER53   PHE54   GLY55   ARG56  
 VAL57   MET58   LEU59   TYR69   ALA70   MET71   LYS72   ILE73   LEU74   GLU91  
 LEU95   VAL104  LYS105  MET118  VAL119  MET120  GLU121  TYR122  VAL123  PRO124 
 GLY125  GLY126  GLU127  MET128  PHE129  TYR164  ASP166  LEU167  LYS168  PRO169 
 GLU170  ASN171  LEU172  LEU173  ILE174  GLN181  VAL182  THR183  ASP184  PHE185 
 GLY186  PHE187  GLY200  THR201  ASN326  PHE327  TYR330  ARG18   ARG19   ASN20  
 ALA21   ILE22   HIS23  

>  <Gold.Protein.RotatedAtoms>  (144) 
   11.3627   19.2989    8.0682 H   0  0  0  0  0  0  0  0  0  0  0  0  # atno 641  bound_to 637 
   16.2552   13.8401    7.4090 H   0  0  0  0  0  0  0  0  0  0  0  0  # atno 681  bound_to 677 
   19.4466   11.8513   -1.5394 H   0  0  0  0  0  0  0  0  0  0  0  0  # atno 702  bound_to 698 
   -6.4396   16.4337   -1.5936 H   0  0  0  0  0  0  0  0  0  0  0  0  # atno 965  bound_to 957 
    1.0573   10.6143   10.7145 H   0  0  0  0  0  0  0  0  0  0  0  0  # atno 1886 bound_to 1878
    9.7460    1.9765   -2.4736 H   0  0  0  0  0  0  0  0  0  0  0  0  # atno 2577 bound_to 2569
    7.6418    5.1789    0.8086 H   0  0  0  0  0  0  0  0  0  0  0  0  # atno 2891 bound_to 2887
   18.3874    2.4055    0.3385 H   0  0  0  0  0  0  0  0  0  0  0  0  # atno 3175 bound_to 3171
   13.2707   10.2284    8.7809 H   0  0  0  0  0  0  0  0  0  0  0  0  # atno 5278 bound_to 5270
   17.2622   13.3166    6.2918 LP  0  0  0  0  0  0  0  0  0  0  0  0  # atno 5914 bound_to 677 
   15.8028   12.6138    6.4992 LP  0  0  0  0  0  0  0  0  0  0  0  0  # atno 5915 bound_to 677 
   20.2781   11.6611   -0.1941 LP  0  0  0  0  0  0  0  0  0  0  0  0  # atno 5920 bound_to 698 
   21.0086   11.5597   -1.6511 LP  0  0  0  0  0  0  0  0  0  0  0  0  # atno 5921 bound_to 698 
    9.6908    3.2912   -3.3702 LP  0  0  0  0  0  0  0  0  0  0  0  0  # atno 5950 bound_to 2569
   11.1179    2.6920   -2.8495 LP  0  0  0  0  0  0  0  0  0  0  0  0  # atno 5951 bound_to 2569
    7.2828    6.5290    1.5732 LP  0  0  0  0  0  0  0  0  0  0  0  0  # atno 5982 bound_to 2887
    8.3495    6.5254    0.3368 LP  0  0  0  0  0  0  0  0  0  0  0  0  # atno 5983 bound_to 2887
   18.1534    2.0530   -1.1966 LP  0  0  0  0  0  0  0  0  0  0  0  0  # atno 6000 bound_to 3171
   19.3837    3.0242   -0.7386 LP  0  0  0  0  0  0  0  0  0  0  0  0  # atno 6001 bound_to 3171
   12.8854    9.8383   10.2762 LP  0  0  0  0  0  0  0  0  0  0  0  0  # atno 6004 bound_to 5270
   14.4483    9.9670    9.8209 LP  0  0  0  0  0  0  0  0  0  0  0  0  # atno 6005 bound_to 5270
   10.0174   19.7586    8.7849 LP  0  0  0  0  0  0  0  0  0  0  0  0  # atno 6055 bound_to 637 
    9.9802   19.0178    7.3301 LP  0  0  0  0  0  0  0  0  0  0  0  0  # atno 6056 bound_to 637 
    0.9698   12.1710   11.0375 LP  0  0  0  0  0  0  0  0  0  0  0  0  # atno 6063 bound_to 1878
    2.3025   11.5339   10.3413 LP  0  0  0  0  0  0  0  0  0  0  0  0  # atno 6064 bound_to 1878
   -7.0689   16.9845   -0.2388 LP  0  0  0  0  0  0  0  0  0  0  0  0  # atno 6067 bound_to 957 
   -6.9570   15.3795   -0.5184 LP  0  0  0  0  0  0  0  0  0  0  0  0  # atno 6068 bound_to 957 

>  <STRIFE_LigEff_Score>  (144) 
2.8305052631578946

$$$$
unknown|pharmsElabsTestPreDocking|sdf|145|dock8
     RDKit          3D

 17 17  0  0  0  0  0  0  0  0999 V2000
    3.6540   10.0475    5.4192 C   0  0  0  0  0  0  0  0  0  0  0  0
    4.9180    9.6889    5.1817 C   0  0  0  0  0  0  0  0  0  0  0  0
    5.4963    9.3767    3.8519 C   0  0  0  0  0  0  0  0  0  0  0  0
    4.6831    9.2699    2.7732 C   0  0  0  0  0  0  0  0  0  0  0  0
    5.1528    8.8912    1.4016 C   0  0  0  0  0  0  0  0  0  0  0  0
    6.9035    9.0564    3.7064 N   0  0  0  0  0  0  0  0  0  0  0  0
    7.8979    9.4031    2.7139 C   0  0  0  0  0  0  0  0  0  0  0  0
    7.5403   10.1949    1.8041 O   0  0  0  0  0  0  0  0  0  0  0  0
    9.3516    9.0226    2.6407 C   0  0  0  0  0  0  0  0  0  0  0  0
    9.6288    7.5547    2.9183 C   0  0  0  0  0  0  0  0  0  0  0  0
   11.0438    7.1283    2.5855 C   0  0  0  0  0  0  0  0  0  0  0  0
   12.1652    8.1487    2.8057 C   0  0  0  0  0  0  0  0  0  0  0  0
   13.4445    7.8181    1.9979 C   0  0  0  0  0  0  0  0  0  0  0  0
   14.4281    8.9498    1.6994 C   0  0  0  0  0  0  0  0  0  0  0  0
   13.1681    6.9979    0.8176 N   0  0  0  0  0  0  0  0  0  0  0  0
   11.7945    9.6415    2.6246 C   0  0  0  0  0  0  0  0  0  0  0  0
   10.3822   10.0544    3.0164 C   0  0  0  0  0  0  0  0  0  0  0  0
  1  2  2  0
  2  3  1  0
  3  4  2  0
  4  5  1  0
  3  6  1  0
  6  7  1  0
  7  8  2  0
  7  9  1  0
  9 10  1  0
 10 11  1  0
 11 12  1  0
 12 13  1  0
 13 14  1  0
 13 15  1  0
 12 16  1  0
 16 17  1  0
 17  9  1  0
M  CHG  1  15   1
M  END
>  <EmbedRMS>  (145) 
0.29216731409503444

>  <Gold.Version>  (145) 
2020.3.0

>  <Gold.Id.Protein>  (145) 
unknown|1q8t_protein|pdb

>  <Gold.PLP.Fitness>  (145) 
44.4451

>  <Gold.PLP.PLP>  (145) 
-39.1360

>  <Gold.PLP.part.hbond>  (145) 
-1.2065

>  <Gold.PLP.part.metal>  (145) 
0.0000

>  <Gold.PLP.part.buried>  (145) 
-3.7589

>  <Gold.PLP.part.nonpolar>  (145) 
-34.5813

>  <Gold.PLP.part.repulsive>  (145) 
0.0563

>  <Gold.PLP.ligand.clash>  (145) 
0.0028

>  <Gold.PLP.ligand.torsion>  (145) 
1.6763

>  <Gold.PLP.Chemscore.Hbond>  (145) 
2.5760

>  <Gold.PLP.Chemscore.CHOScore>  (145) 
0.0000

>  <Gold.PLP.Chemscore.Metal>  (145) 
0.0000

>  <Gold.Chemscore.Hbonds>  (145) 
donor molecule, donor type, donor heavy atom, donor atom, acceptor molecule, acceptor atom, score
      L1  H    15    36       P1  2691  0.59
      L1  H    15    38       P1  2902  1.98

>  <Gold.PLP.Chemscore.Internal.Correction>  (145) 
0.9364

>  <Gold.PLP.Constraint>  (145) 
-0.0000

>  <Gold.Protein.RotatedTorsions>  (145) 
[  681  677  676  673 ] final   18.33 input -179.99 | X-H torsion
[  702  698  697  694 ] final  -76.60 input  179.99 | X-H torsion
[ 2577 2569 2568 2566 ] final   -8.46 input   -0.13 | X-H torsion
[ 2891 2887 2886 2883 ] final  -48.79 input  179.98 | X-H torsion
[ 3175 3171 3170 3167 ] final  173.63 input -179.99 | X-H torsion
[ 5278 5270 5269 5267 ] final -144.13 input    0.55 | X-H torsion
[  641  637  636  633 ] final  -53.39 input  179.99 | X-H torsion
[ 1886 1878 1877 1875 ] final  -99.16 input    1.60 | X-H torsion
[  965  957  956  954 ] final -179.58 input    0.45 | X-H torsion

>  <Gold.Protein.ActiveResidues>  (145) 
 LYS47   THR48   LEU49   GLY50   THR51   GLY52   SER53   PHE54   GLY55   ARG56  
 VAL57   MET58   LEU59   TYR69   ALA70   MET71   LYS72   ILE73   LEU74   GLU91  
 LEU95   VAL104  LYS105  MET118  VAL119  MET120  GLU121  TYR122  VAL123  PRO124 
 GLY125  GLY126  GLU127  MET128  PHE129  TYR164  ASP166  LEU167  LYS168  PRO169 
 GLU170  ASN171  LEU172  LEU173  ILE174  GLN181  VAL182  THR183  ASP184  PHE185 
 GLY186  PHE187  GLY200  THR201  ASN326  PHE327  TYR330  ARG18   ARG19   ASN20  
 ALA21   ILE22   HIS23  

>  <Gold.Protein.RotatedAtoms>  (145) 
   10.0594   19.0039    7.3479 H   0  0  0  0  0  0  0  0  0  0  0  0  # atno 641  bound_to 637 
   16.0862   12.5900    6.2744 H   0  0  0  0  0  0  0  0  0  0  0  0  # atno 681  bound_to 677 
   20.5335   11.6346   -0.2936 H   0  0  0  0  0  0  0  0  0  0  0  0  # atno 702  bound_to 698 
   -6.8901   17.1364   -0.5891 H   0  0  0  0  0  0  0  0  0  0  0  0  # atno 965  bound_to 957 
    1.1471   10.5785   10.6688 H   0  0  0  0  0  0  0  0  0  0  0  0  # atno 1886 bound_to 1878
    9.8810    3.3188   -3.3958 H   0  0  0  0  0  0  0  0  0  0  0  0  # atno 2577 bound_to 2569
    7.5991    5.1814    0.8586 H   0  0  0  0  0  0  0  0  0  0  0  0  # atno 2891 bound_to 2887
   18.0999    2.1639    0.1196 H   0  0  0  0  0  0  0  0  0  0  0  0  # atno 3175 bound_to 3171
   14.3666    9.9568    9.9282 H   0  0  0  0  0  0  0  0  0  0  0  0  # atno 5278 bound_to 5270
   15.9441   13.6582    7.4470 LP  0  0  0  0  0  0  0  0  0  0  0  0  # atno 5914 bound_to 677 
   17.2989   13.5879    6.5381 LP  0  0  0  0  0  0  0  0  0  0  0  0  # atno 5915 bound_to 677 
   20.8274   11.5958   -1.8587 LP  0  0  0  0  0  0  0  0  0  0  0  0  # atno 5920 bound_to 698 
   19.3158   11.8530   -1.2971 LP  0  0  0  0  0  0  0  0  0  0  0  0  # atno 5921 bound_to 698 
   11.1020    2.5341   -2.7411 LP  0  0  0  0  0  0  0  0  0  0  0  0  # atno 5950 bound_to 2569
    9.5646    2.0357   -2.5077 LP  0  0  0  0  0  0  0  0  0  0  0  0  # atno 5951 bound_to 2569
    7.3138    6.5869    1.5512 LP  0  0  0  0  0  0  0  0  0  0  0  0  # atno 5982 bound_to 2887
    8.3634    6.4648    0.3062 LP  0  0  0  0  0  0  0  0  0  0  0  0  # atno 5983 bound_to 2887
   18.4873    2.2708   -1.4212 LP  0  0  0  0  0  0  0  0  0  0  0  0  # atno 6000 bound_to 3171
   19.3525    3.0606   -0.2836 LP  0  0  0  0  0  0  0  0  0  0  0  0  # atno 6001 bound_to 3171
   13.3832   10.2309    8.7057 LP  0  0  0  0  0  0  0  0  0  0  0  0  # atno 6004 bound_to 5270
   12.7975    9.8601   10.1842 LP  0  0  0  0  0  0  0  0  0  0  0  0  # atno 6005 bound_to 5270
   11.4101   19.3414    8.1203 LP  0  0  0  0  0  0  0  0  0  0  0  0  # atno 6055 bound_to 637 
    9.9601   19.7456    8.7533 LP  0  0  0  0  0  0  0  0  0  0  0  0  # atno 6056 bound_to 637 
    0.8866   12.0993   11.0620 LP  0  0  0  0  0  0  0  0  0  0  0  0  # atno 6063 bound_to 1878
    2.2912   11.6434   10.3650 LP  0  0  0  0  0  0  0  0  0  0  0  0  # atno 6064 bound_to 1878
   -7.1051   15.6105   -0.1881 LP  0  0  0  0  0  0  0  0  0  0  0  0  # atno 6067 bound_to 957 
   -6.4464   16.0135   -1.6270 LP  0  0  0  0  0  0  0  0  0  0  0  0  # atno 6068 bound_to 957 

>  <STRIFE_LigEff_Score>  (145) 
2.6144176470588234

$$$$
unknown|pharmsElabsTestPreDocking|sdf|146|dock6
     RDKit          3D

 16 16  0  0  0  0  0  0  0  0999 V2000
   14.9956    7.8717    3.1098 C   0  0  0  0  0  0  0  0  0  0  0  0
   13.9337    8.0323    2.0089 C   0  0  0  0  0  0  0  0  0  0  0  0
   14.0629    6.9549    1.0231 N   0  0  0  0  0  0  0  0  0  0  0  0
   12.4524    8.2316    2.4926 C   0  0  0  0  0  0  0  0  0  0  0  0
   11.4041    7.6489    1.5456 C   0  0  0  0  0  0  0  0  0  0  0  0
    9.9630    7.7858    2.0131 C   0  0  0  0  0  0  0  0  0  0  0  0
    9.6679    9.1290    2.6376 C   0  0  0  0  0  0  0  0  0  0  0  0
    8.2033    9.4059    2.8282 C   0  0  0  0  0  0  0  0  0  0  0  0
    7.5682    9.5134    1.7554 O   0  0  0  0  0  0  0  0  0  0  0  0
    7.5106    9.5335    4.0893 N   0  0  0  0  0  0  0  0  0  0  0  0
    6.1257    9.9649    4.2070 C   0  0  0  0  0  0  0  0  0  0  0  0
    5.2121   10.1136    2.8536 S   0  0  0  0  0  0  0  0  0  0  0  0
    5.4011   10.0984    5.5267 C   0  0  0  0  0  0  0  0  0  0  0  0
    3.6031   10.0924    5.2580 S   0  0  0  0  0  0  0  0  0  0  0  0
   10.6338    9.6410    3.6808 C   0  0  0  0  0  0  0  0  0  0  0  0
   12.0904    9.5546    3.1965 C   0  0  0  0  0  0  0  0  0  0  0  0
  1  2  1  0
  2  3  1  0
  2  4  1  0
  4  5  1  0
  5  6  1  0
  6  7  1  0
  7  8  1  0
  8  9  2  0
  8 10  1  0
 10 11  1  0
 11 12  2  0
 11 13  1  0
 13 14  1  0
  7 15  1  0
 15 16  1  0
 16  4  1  0
M  CHG  1   3   1
M  END
>  <EmbedRMS>  (146) 
0.2776559693615689

>  <Gold.Version>  (146) 
2020.3.0

>  <Gold.Id.Protein>  (146) 
unknown|1q8t_protein|pdb

>  <Gold.PLP.Fitness>  (146) 
45.0814

>  <Gold.PLP.PLP>  (146) 
-37.5727

>  <Gold.PLP.part.hbond>  (146) 
-2.0000

>  <Gold.PLP.part.metal>  (146) 
0.0000

>  <Gold.PLP.part.buried>  (146) 
-3.5492

>  <Gold.PLP.part.nonpolar>  (146) 
-32.8891

>  <Gold.PLP.part.repulsive>  (146) 
0.0762

>  <Gold.PLP.ligand.clash>  (146) 
0.0000

>  <Gold.PLP.ligand.torsion>  (146) 
1.1761

>  <Gold.PLP.Chemscore.Hbond>  (146) 
3.0000

>  <Gold.PLP.Chemscore.CHOScore>  (146) 
0.0000

>  <Gold.PLP.Chemscore.Metal>  (146) 
0.0000

>  <Gold.Chemscore.Hbonds>  (146) 
donor molecule, donor type, donor heavy atom, donor atom, acceptor molecule, acceptor atom, score
      L1  H     3    22       P1  2902  2.00
      L1  H     3    23       P1  2691  1.00

>  <Gold.PLP.Chemscore.Internal.Correction>  (146) 
0.8609

>  <Gold.PLP.Constraint>  (146) 
-0.0000

>  <Gold.Protein.RotatedTorsions>  (146) 
[  681  677  676  673 ] final  103.68 input -179.99 | X-H torsion
[  702  698  697  694 ] final -119.26 input  179.99 | X-H torsion
[ 2577 2569 2568 2566 ] final   62.29 input   -0.13 | X-H torsion
[ 2891 2887 2886 2883 ] final   24.18 input  179.98 | X-H torsion
[ 3175 3171 3170 3167 ] final  127.97 input -179.99 | X-H torsion
[ 5278 5270 5269 5267 ] final -145.27 input    0.55 | X-H torsion
[  641  637  636  633 ] final -142.79 input  179.99 | X-H torsion
[ 1886 1878 1877 1875 ] final -169.34 input    1.60 | X-H torsion
[  965  957  956  954 ] final  -80.83 input    0.45 | X-H torsion

>  <Gold.Protein.ActiveResidues>  (146) 
 LYS47   THR48   LEU49   GLY50   THR51   GLY52   SER53   PHE54   GLY55   ARG56  
 VAL57   MET58   LEU59   TYR69   ALA70   MET71   LYS72   ILE73   LEU74   GLU91  
 LEU95   VAL104  LYS105  MET118  VAL119  MET120  GLU121  TYR122  VAL123  PRO124 
 GLY125  GLY126  GLU127  MET128  PHE129  TYR164  ASP166  LEU167  LYS168  PRO169 
 GLU170  ASN171  LEU172  LEU173  ILE174  GLN181  VAL182  THR183  ASP184  PHE185 
 GLY186  PHE187  GLY200  THR201  ASN326  PHE327  TYR330  ARG18   ARG19   ASN20  
 ALA21   ILE22   HIS23  

>  <Gold.Protein.RotatedAtoms>  (146) 
   11.2594   19.1225    7.7116 H   0  0  0  0  0  0  0  0  0  0  0  0  # atno 641  bound_to 637 
   17.1452   13.1801    6.2033 H   0  0  0  0  0  0  0  0  0  0  0  0  # atno 681  bound_to 677 
   21.0161   11.5574   -0.7252 H   0  0  0  0  0  0  0  0  0  0  0  0  # atno 702  bound_to 698 
   -6.4356   16.3550   -1.6041 H   0  0  0  0  0  0  0  0  0  0  0  0  # atno 965  bound_to 957 
    0.6108   11.3746   11.0411 H   0  0  0  0  0  0  0  0  0  0  0  0  # atno 1886 bound_to 1878
    9.2841    2.6027   -2.9423 H   0  0  0  0  0  0  0  0  0  0  0  0  # atno 2577 bound_to 2569
    8.2550    5.7415    0.2331 H   0  0  0  0  0  0  0  0  0  0  0  0  # atno 2891 bound_to 2887
   17.9243    1.9503   -0.5181 H   0  0  0  0  0  0  0  0  0  0  0  0  # atno 3175 bound_to 3171
   14.3728    9.9609    9.9120 H   0  0  0  0  0  0  0  0  0  0  0  0  # atno 5278 bound_to 5270
   15.6946   12.6941    6.6458 LP  0  0  0  0  0  0  0  0  0  0  0  0  # atno 5914 bound_to 677 
   16.4338   13.9310    7.4142 LP  0  0  0  0  0  0  0  0  0  0  0  0  # atno 5915 bound_to 677 
   20.1879   11.7134   -2.0769 LP  0  0  0  0  0  0  0  0  0  0  0  0  # atno 5920 bound_to 698 
   19.4477   11.8166   -0.6249 LP  0  0  0  0  0  0  0  0  0  0  0  0  # atno 5921 bound_to 698 
   10.6454    3.3325   -3.3289 LP  0  0  0  0  0  0  0  0  0  0  0  0  # atno 5950 bound_to 2569
   10.6496    1.9913   -2.3973 LP  0  0  0  0  0  0  0  0  0  0  0  0  # atno 5951 bound_to 2569
    7.2100    5.4799    1.4062 LP  0  0  0  0  0  0  0  0  0  0  0  0  # atno 5982 bound_to 2887
    7.7769    6.9824    1.1095 LP  0  0  0  0  0  0  0  0  0  0  0  0  # atno 5983 bound_to 2887
   19.0646    2.7106   -1.3288 LP  0  0  0  0  0  0  0  0  0  0  0  0  # atno 6000 bound_to 3171
   18.9599    2.8457    0.2952 LP  0  0  0  0  0  0  0  0  0  0  0  0  # atno 6001 bound_to 3171
   13.3647   10.2300    8.7086 LP  0  0  0  0  0  0  0  0  0  0  0  0  # atno 6004 bound_to 5270
   12.8095    9.8568   10.1983 LP  0  0  0  0  0  0  0  0  0  0  0  0  # atno 6005 bound_to 5270
   10.4341   19.7925    8.8969 LP  0  0  0  0  0  0  0  0  0  0  0  0  # atno 6055 bound_to 637 
    9.6723   19.1696    7.5937 LP  0  0  0  0  0  0  0  0  0  0  0  0  # atno 6056 bound_to 637 
    1.8774   12.2576   10.6522 LP  0  0  0  0  0  0  0  0  0  0  0  0  # atno 6063 bound_to 1878
    1.8649   10.6470   10.3830 LP  0  0  0  0  0  0  0  0  0  0  0  0  # atno 6064 bound_to 1878
   -7.0412   17.0361   -0.2985 LP  0  0  0  0  0  0  0  0  0  0  0  0  # atno 6067 bound_to 957 
   -6.9889   15.4108   -0.4476 LP  0  0  0  0  0  0  0  0  0  0  0  0  # atno 6068 bound_to 957 

>  <STRIFE_LigEff_Score>  (146) 
2.8175875

$$$$
unknown|pharmsElabsTestPreDocking|sdf|147|dock3
     RDKit          3D

 17 17  0  0  0  0  0  0  0  0999 V2000
   14.4855    9.2301    1.4202 C   0  0  0  0  0  0  0  0  0  0  0  0
   13.5585    8.0506    1.6595 C   0  0  0  0  0  0  0  0  0  0  0  0
   13.7490    6.9189    0.7614 N   0  0  0  0  0  0  0  0  0  0  0  0
   12.0997    8.3833    2.0871 C   0  0  0  0  0  0  0  0  0  0  0  0
   11.2271    7.2539    2.6644 C   0  0  0  0  0  0  0  0  0  0  0  0
    9.7552    7.6840    2.5477 C   0  0  0  0  0  0  0  0  0  0  0  0
    9.5112    9.0008    3.3063 C   0  0  0  0  0  0  0  0  0  0  0  0
    8.0883    9.4560    3.1444 C   0  0  0  0  0  0  0  0  0  0  0  0
    7.6341    9.7861    2.0132 O   0  0  0  0  0  0  0  0  0  0  0  0
    7.2606    9.5316    4.2991 N   0  0  0  0  0  0  0  0  0  0  0  0
    5.9264    9.9461    4.2089 N   0  0  0  0  0  0  0  0  0  0  0  0
    5.0922    9.6278    5.1417 C   0  0  0  0  0  0  0  0  0  0  0  0
    3.6941   10.0591    5.0618 C   0  0  0  0  0  0  0  0  0  0  0  0
    2.9175    9.7410    4.0700 N   0  0  0  0  0  0  0  0  0  0  0  0
    3.2912    8.8991    3.0084 N   0  0  0  0  0  0  0  0  0  0  0  0
   10.4843   10.1229    2.8976 C   0  0  0  0  0  0  0  0  0  0  0  0
   11.9436    9.6490    2.9480 C   0  0  0  0  0  0  0  0  0  0  0  0
  1  2  1  0
  2  3  1  0
  2  4  1  0
  4  5  1  0
  5  6  1  0
  6  7  1  0
  7  8  1  0
  8  9  2  0
  8 10  1  0
 10 11  1  0
 11 12  2  0
 12 13  1  0
 13 14  2  0
 14 15  1  0
  7 16  1  0
 16 17  1  0
 17  4  1  0
M  CHG  1   3   1
M  END
>  <EmbedRMS>  (147) 
0.1883840412854219

>  <Gold.Version>  (147) 
2020.3.0

>  <Gold.Id.Protein>  (147) 
unknown|1q8t_protein|pdb

>  <Gold.PLP.Fitness>  (147) 
46.0810

>  <Gold.PLP.PLP>  (147) 
-34.8572

>  <Gold.PLP.part.hbond>  (147) 
-2.8409

>  <Gold.PLP.part.metal>  (147) 
0.0000

>  <Gold.PLP.part.buried>  (147) 
-6.8647

>  <Gold.PLP.part.nonpolar>  (147) 
-26.0183

>  <Gold.PLP.part.repulsive>  (147) 
0.3037

>  <Gold.PLP.ligand.clash>  (147) 
0.0000

>  <Gold.PLP.ligand.torsion>  (147) 
0.5795

>  <Gold.PLP.Chemscore.Hbond>  (147) 
3.9760

>  <Gold.PLP.Chemscore.CHOScore>  (147) 
0.0000

>  <Gold.PLP.Chemscore.Metal>  (147) 
0.0000

>  <Gold.Chemscore.Hbonds>  (147) 
donor molecule, donor type, donor heavy atom, donor atom, acceptor molecule, acceptor atom, score
      L1  H     3    22       P1  2902  2.00
      L1  H     3    23       P1  2691  0.98
      P1  H  1888  1903       L1    14  1.00

>  <Gold.PLP.Chemscore.Internal.Correction>  (147) 
0.4548

>  <Gold.PLP.Constraint>  (147) 
-0.0000

>  <Gold.Protein.RotatedTorsions>  (147) 
[  681  677  676  673 ] final  134.27 input -179.99 | X-H torsion
[  702  698  697  694 ] final -100.23 input  179.99 | X-H torsion
[ 2577 2569 2568 2566 ] final -175.33 input   -0.13 | X-H torsion
[ 2891 2887 2886 2883 ] final -123.23 input  179.98 | X-H torsion
[ 3175 3171 3170 3167 ] final  -68.05 input -179.99 | X-H torsion
[ 5278 5270 5269 5267 ] final  -55.67 input    0.55 | X-H torsion
[  641  637  636  633 ] final -117.87 input  179.99 | X-H torsion
[ 1886 1878 1877 1875 ] final   88.82 input    1.60 | X-H torsion
[  965  957  956  954 ] final -128.79 input    0.45 | X-H torsion

>  <Gold.Protein.ActiveResidues>  (147) 
 LYS47   THR48   LEU49   GLY50   THR51   GLY52   SER53   PHE54   GLY55   ARG56  
 VAL57   MET58   LEU59   TYR69   ALA70   MET71   LYS72   ILE73   LEU74   GLU91  
 LEU95   VAL104  LYS105  MET118  VAL119  MET120  GLU121  TYR122  VAL123  PRO124 
 GLY125  GLY126  GLU127  MET128  PHE129  TYR164  ASP166  LEU167  LYS168  PRO169 
 GLU170  ASN171  LEU172  LEU173  ILE174  GLN181  VAL182  THR183  ASP184  PHE185 
 GLY186  PHE187  GLY200  THR201  ASN326  PHE327  TYR330  ARG18   ARG19   ASN20  
 ALA21   ILE22   HIS23  

>  <Gold.Protein.RotatedAtoms>  (147) 
   11.0098   18.9996    7.4435 H   0  0  0  0  0  0  0  0  0  0  0  0  # atno 641  bound_to 637 
   17.2524   13.5384    6.4922 H   0  0  0  0  0  0  0  0  0  0  0  0  # atno 681  bound_to 677 
   20.8409   11.5838   -0.4878 H   0  0  0  0  0  0  0  0  0  0  0  0  # atno 702  bound_to 698 
   -6.5791   16.9884   -1.2755 H   0  0  0  0  0  0  0  0  0  0  0  0  # atno 965  bound_to 957 
    1.6074   12.3025   10.7599 H   0  0  0  0  0  0  0  0  0  0  0  0  # atno 1886 bound_to 1878
   10.6586    2.0316   -2.4450 H   0  0  0  0  0  0  0  0  0  0  0  0  # atno 2577 bound_to 2569
    7.1533    5.8917    1.5451 H   0  0  0  0  0  0  0  0  0  0  0  0  # atno 2891 bound_to 2887
   19.3198    3.0166   -0.2683 H   0  0  0  0  0  0  0  0  0  0  0  0  # atno 3175 bound_to 3171
   13.2314    9.8203   10.4336 H   0  0  0  0  0  0  0  0  0  0  0  0  # atno 5278 bound_to 5270
   16.0202   12.5481    6.2993 LP  0  0  0  0  0  0  0  0  0  0  0  0  # atno 5914 bound_to 677 
   15.9954   13.6999    7.4566 LP  0  0  0  0  0  0  0  0  0  0  0  0  # atno 5915 bound_to 677 
   20.4925   11.6587   -2.0403 LP  0  0  0  0  0  0  0  0  0  0  0  0  # atno 5920 bound_to 698 
   19.3274   11.8435   -0.9112 LP  0  0  0  0  0  0  0  0  0  0  0  0  # atno 5921 bound_to 698 
    9.2368    2.5784   -2.9085 LP  0  0  0  0  0  0  0  0  0  0  0  0  # atno 5950 bound_to 2569
   10.6111    3.3468   -3.3413 LP  0  0  0  0  0  0  0  0  0  0  0  0  # atno 5951 bound_to 2569
    8.0631    6.9434    0.7687 LP  0  0  0  0  0  0  0  0  0  0  0  0  # atno 5982 bound_to 2887
    8.0833    5.3609    0.3662 LP  0  0  0  0  0  0  0  0  0  0  0  0  # atno 5983 bound_to 2887
   18.0466    2.1478    0.1317 LP  0  0  0  0  0  0  0  0  0  0  0  0  # atno 6000 bound_to 3171
   18.5093    2.2862   -1.4282 LP  0  0  0  0  0  0  0  0  0  0  0  0  # atno 6001 bound_to 3171
   14.4573   10.0597    9.4453 LP  0  0  0  0  0  0  0  0  0  0  0  0  # atno 6004 bound_to 5270
   12.9179   10.1750    8.9128 LP  0  0  0  0  0  0  0  0  0  0  0  0  # atno 6005 bound_to 5270
   10.8340   19.7417    8.8411 LP  0  0  0  0  0  0  0  0  0  0  0  0  # atno 6055 bound_to 637 
    9.5354   19.3499    7.9318 LP  0  0  0  0  0  0  0  0  0  0  0  0  # atno 6056 bound_to 637 
    2.0782   10.8456   10.3228 LP  0  0  0  0  0  0  0  0  0  0  0  0  # atno 6063 bound_to 1878
    0.6150   11.0822   11.0083 LP  0  0  0  0  0  0  0  0  0  0  0  0  # atno 6064 bound_to 1878
   -7.2075   16.3757    0.0530 LP  0  0  0  0  0  0  0  0  0  0  0  0  # atno 6067 bound_to 957 
   -6.6715   15.4042   -1.1452 LP  0  0  0  0  0  0  0  0  0  0  0  0  # atno 6068 bound_to 957 

>  <STRIFE_LigEff_Score>  (147) 
2.7106470588235294

$$$$
unknown|pharmsElabsTestPreDocking|sdf|148|dock2
     RDKit          3D

 15 15  0  0  0  0  0  0  0  0999 V2000
    3.8710   10.0420    5.3734 C   0  0  0  0  0  0  0  0  0  0  0  0
    5.3951   10.0599    5.4704 C   0  0  0  0  0  0  0  0  0  0  0  0
    6.0459    9.9896    4.0875 C   0  0  0  0  0  0  0  0  0  0  0  0
    7.4424    9.5846    4.1968 N   0  0  0  0  0  0  0  0  0  0  0  0
    8.2829    9.4493    3.0507 C   0  0  0  0  0  0  0  0  0  0  0  0
    7.8437    9.7283    1.8992 O   0  0  0  0  0  0  0  0  0  0  0  0
    9.7046    9.0010    3.2449 C   0  0  0  0  0  0  0  0  0  0  0  0
    9.9544    7.6501    2.5494 C   0  0  0  0  0  0  0  0  0  0  0  0
   11.4257    7.2258    2.6949 C   0  0  0  0  0  0  0  0  0  0  0  0
   12.3024    8.3269    2.0713 C   0  0  0  0  0  0  0  0  0  0  0  0
   13.7645    7.9749    1.6701 C   0  0  0  0  0  0  0  0  0  0  0  0
   14.6954    9.1420    1.3889 C   0  0  0  0  0  0  0  0  0  0  0  0
   13.9609    6.8058    0.8222 N   0  0  0  0  0  0  0  0  0  0  0  0
   12.1403    9.6314    2.8712 C   0  0  0  0  0  0  0  0  0  0  0  0
   10.6813   10.1021    2.7894 C   0  0  0  0  0  0  0  0  0  0  0  0
  1  2  1  0
  2  3  1  0
  3  4  1  0
  4  5  1  0
  5  6  2  0
  5  7  1  0
  7  8  1  0
  8  9  1  0
  9 10  1  0
 10 11  1  0
 11 12  1  0
 11 13  1  0
 10 14  1  0
 14 15  1  0
 15  7  1  0
M  CHG  1  13   1
M  END
>  <EmbedRMS>  (148) 
0.2000484947854372

>  <Gold.Version>  (148) 
2020.3.0

>  <Gold.Id.Protein>  (148) 
unknown|1q8t_protein|pdb

>  <Gold.PLP.Fitness>  (148) 
42.6833

>  <Gold.PLP.PLP>  (148) 
-33.9440

>  <Gold.PLP.part.hbond>  (148) 
-1.8818

>  <Gold.PLP.part.metal>  (148) 
0.0000

>  <Gold.PLP.part.buried>  (148) 
-3.4987

>  <Gold.PLP.part.nonpolar>  (148) 
-29.8899

>  <Gold.PLP.part.repulsive>  (148) 
0.0917

>  <Gold.PLP.ligand.clash>  (148) 
0.0000

>  <Gold.PLP.ligand.torsion>  (148) 
0.3344

>  <Gold.PLP.Chemscore.Hbond>  (148) 
3.0000

>  <Gold.PLP.Chemscore.CHOScore>  (148) 
0.0000

>  <Gold.PLP.Chemscore.Metal>  (148) 
0.0000

>  <Gold.Chemscore.Hbonds>  (148) 
donor molecule, donor type, donor heavy atom, donor atom, acceptor molecule, acceptor atom, score
      L1  H    13    34       P1  2902  2.00
      L1  H    13    36       P1  2691  1.00

>  <Gold.PLP.Chemscore.Internal.Correction>  (148) 
0.4080

>  <Gold.PLP.Constraint>  (148) 
-0.0000

>  <Gold.Protein.RotatedTorsions>  (148) 
[  681  677  676  673 ] final -173.64 input -179.99 | X-H torsion
[  702  698  697  694 ] final  -50.29 input  179.99 | X-H torsion
[ 2577 2569 2568 2566 ] final  107.51 input   -0.13 | X-H torsion
[ 2891 2887 2886 2883 ] final  -17.75 input  179.98 | X-H torsion
[ 3175 3171 3170 3167 ] final  -82.23 input -179.99 | X-H torsion
[ 5278 5270 5269 5267 ] final    3.53 input    0.55 | X-H torsion
[  641  637  636  633 ] final  -25.40 input  179.99 | X-H torsion
[ 1886 1878 1877 1875 ] final  -81.22 input    1.60 | X-H torsion
[  965  957  956  954 ] final  -63.82 input    0.45 | X-H torsion

>  <Gold.Protein.ActiveResidues>  (148) 
 LYS47   THR48   LEU49   GLY50   THR51   GLY52   SER53   PHE54   GLY55   ARG56  
 VAL57   MET58   LEU59   TYR69   ALA70   MET71   LYS72   ILE73   LEU74   GLU91  
 LEU95   VAL104  LYS105  MET118  VAL119  MET120  GLU121  TYR122  VAL123  PRO124 
 GLY125  GLY126  GLU127  MET128  PHE129  TYR164  ASP166  LEU167  LYS168  PRO169 
 GLU170  ASN171  LEU172  LEU173  ILE174  GLN181  VAL182  THR183  ASP184  PHE185 
 GLY186  PHE187  GLY200  THR201  ASN326  PHE327  TYR330  ARG18   ARG19   ASN20  
 ALA21   ILE22   HIS23  

>  <Gold.Protein.RotatedAtoms>  (148) 
    9.7341   19.1482    7.5949 H   0  0  0  0  0  0  0  0  0  0  0  0  # atno 641  bound_to 637 
   16.9255   13.9349    7.0878 H   0  0  0  0  0  0  0  0  0  0  0  0  # atno 681  bound_to 677 
   20.1346   11.7043   -0.2441 H   0  0  0  0  0  0  0  0  0  0  0  0  # atno 702  bound_to 698 
   -6.4434   16.0907   -1.5925 H   0  0  0  0  0  0  0  0  0  0  0  0  # atno 965  bound_to 957 
    1.3983   10.5427   10.5520 H   0  0  0  0  0  0  0  0  0  0  0  0  # atno 1886 bound_to 1878
    9.5501    2.0902   -2.5669 H   0  0  0  0  0  0  0  0  0  0  0  0  # atno 2577 bound_to 2569
    7.9174    5.2733    0.5119 H   0  0  0  0  0  0  0  0  0  0  0  0  # atno 2891 bound_to 2887
   19.2370    2.9818   -0.0663 H   0  0  0  0  0  0  0  0  0  0  0  0  # atno 3175 bound_to 3171
   12.6517    9.9748    9.7829 H   0  0  0  0  0  0  0  0  0  0  0  0  # atno 5278 bound_to 5270
   16.7770   12.7517    6.0323 LP  0  0  0  0  0  0  0  0  0  0  0  0  # atno 5914 bound_to 677 
   15.5826   13.0790    7.0968 LP  0  0  0  0  0  0  0  0  0  0  0  0  # atno 5915 bound_to 677 
   21.0804   11.5444   -1.5159 LP  0  0  0  0  0  0  0  0  0  0  0  0  # atno 5920 bound_to 698 
   19.4824   11.8310   -1.6919 LP  0  0  0  0  0  0  0  0  0  0  0  0  # atno 5921 bound_to 698 
    9.9275    3.3829   -3.4165 LP  0  0  0  0  0  0  0  0  0  0  0  0  # atno 5950 bound_to 2569
   11.0876    2.4805   -2.7049 LP  0  0  0  0  0  0  0  0  0  0  0  0  # atno 5951 bound_to 2569
    7.1515    6.1150    1.6261 LP  0  0  0  0  0  0  0  0  0  0  0  0  # atno 5982 bound_to 2887
    8.1907    6.8401    0.5961 LP  0  0  0  0  0  0  0  0  0  0  0  0  # atno 5983 bound_to 2887
   17.9463    2.0493   -0.0537 LP  0  0  0  0  0  0  0  0  0  0  0  0  # atno 6000 bound_to 3171
   18.6967    2.4215   -1.4555 LP  0  0  0  0  0  0  0  0  0  0  0  0  # atno 6001 bound_to 3171
   14.1529    9.8459   10.2991 LP  0  0  0  0  0  0  0  0  0  0  0  0  # atno 6004 bound_to 5270
   13.8322   10.2262    8.7437 LP  0  0  0  0  0  0  0  0  0  0  0  0  # atno 6005 bound_to 5270
   11.3213   19.1419    7.7199 LP  0  0  0  0  0  0  0  0  0  0  0  0  # atno 6055 bound_to 637 
   10.3915   19.7932    8.8936 LP  0  0  0  0  0  0  0  0  0  0  0  0  # atno 6056 bound_to 637 
    0.7085   11.8686   11.1012 LP  0  0  0  0  0  0  0  0  0  0  0  0  # atno 6063 bound_to 1878
    2.2049   11.9117   10.4488 LP  0  0  0  0  0  0  0  0  0  0  0  0  # atno 6064 bound_to 1878
   -6.9374   17.1628   -0.5241 LP  0  0  0  0  0  0  0  0  0  0  0  0  # atno 6067 bound_to 957 
   -7.0846   15.5625   -0.2342 LP  0  0  0  0  0  0  0  0  0  0  0  0  # atno 6068 bound_to 957 

>  <STRIFE_LigEff_Score>  (148) 
2.8455533333333336

$$$$
unknown|pharmsElabsTestPreDocking|sdf|149|dock7
     RDKit          3D

 19 20  0  0  0  0  0  0  0  0999 V2000
   14.7642    8.9295    1.8777 C   0  0  0  0  0  0  0  0  0  0  0  0
   13.7773    7.7747    1.8436 C   0  0  0  0  0  0  0  0  0  0  0  0
   14.1351    6.6910    0.9345 N   0  0  0  0  0  0  0  0  0  0  0  0
   12.2643    8.1331    1.9723 C   0  0  0  0  0  0  0  0  0  0  0  0
   11.2719    6.9821    2.2007 C   0  0  0  0  0  0  0  0  0  0  0  0
    9.8226    7.4331    1.9250 C   0  0  0  0  0  0  0  0  0  0  0  0
    9.5847    8.9359    2.0951 C   0  0  0  0  0  0  0  0  0  0  0  0
    8.1493    9.3631    2.0017 C   0  0  0  0  0  0  0  0  0  0  0  0
    7.5648    9.0400    0.9374 O   0  0  0  0  0  0  0  0  0  0  0  0
    7.4243   10.1126    2.9916 N   0  0  0  0  0  0  0  0  0  0  0  0
    6.0515   10.5379    2.6785 C   0  0  0  0  0  0  0  0  0  0  0  0
    5.0529    9.9288    3.6093 C   0  0  0  0  0  0  0  0  0  0  0  0
    5.1207   10.0461    4.9493 N   0  0  0  0  0  0  0  0  0  0  0  0
    4.0140    9.3823    5.3513 C   0  0  0  0  0  0  0  0  0  0  0  0
    3.3042    8.8866    4.3179 N   0  0  0  0  0  0  0  0  0  0  0  0
    3.9627    9.2396    3.2300 N   0  0  0  0  0  0  0  0  0  0  0  0
    3.5525    8.8988    1.8732 C   0  0  0  0  0  0  0  0  0  0  0  0
   10.5187    9.7722    2.9548 C   0  0  0  0  0  0  0  0  0  0  0  0
   11.9784    9.2698    2.9749 C   0  0  0  0  0  0  0  0  0  0  0  0
  1  2  1  0
  2  3  1  0
  2  4  1  0
  4  5  1  0
  5  6  1  0
  6  7  1  0
  7  8  1  0
  8  9  2  0
  8 10  1  0
 10 11  1  0
 11 12  1  0
 12 13  2  0
 13 14  1  0
 14 15  2  0
 15 16  1  0
 16 17  1  0
  7 18  1  0
 18 19  1  0
 19  4  1  0
 16 12  1  0
M  CHG  1   3   1
M  END
>  <EmbedRMS>  (149) 
0.24309368491659913

>  <Gold.Version>  (149) 
2020.3.0

>  <Gold.Id.Protein>  (149) 
unknown|1q8t_protein|pdb

>  <Gold.PLP.Fitness>  (149) 
54.4774

>  <Gold.PLP.PLP>  (149) 
-38.4751

>  <Gold.PLP.part.hbond>  (149) 
-3.9227

>  <Gold.PLP.part.metal>  (149) 
0.0000

>  <Gold.PLP.part.buried>  (149) 
0.7911

>  <Gold.PLP.part.nonpolar>  (149) 
-36.6593

>  <Gold.PLP.part.repulsive>  (149) 
0.2517

>  <Gold.PLP.ligand.clash>  (149) 
0.0000

>  <Gold.PLP.ligand.torsion>  (149) 
0.5903

>  <Gold.PLP.Chemscore.Hbond>  (149) 
4.5335

>  <Gold.PLP.Chemscore.CHOScore>  (149) 
0.8528

>  <Gold.PLP.Chemscore.Metal>  (149) 
0.0000

>  <Gold.Chemscore.Hbonds>  (149) 
donor molecule, donor type, donor heavy atom, donor atom, acceptor molecule, acceptor atom, score
      L1  H     3    24       P1  2902  2.00
      L1  H     3    25       P1  2691  1.00
      P1  H  2887  2891       L1     9  0.87
      P1  H  1888  1903       L1    15  0.66
      L1  C    14    36       P1  1891  0.85

>  <Gold.PLP.Chemscore.Internal.Correction>  (149) 
1.0240

>  <Gold.PLP.Constraint>  (149) 
-0.0000

>  <Gold.Protein.RotatedTorsions>  (149) 
[  681  677  676  673 ] final   60.31 input -179.99 | X-H torsion
[  702  698  697  694 ] final  -43.43 input  179.99 | X-H torsion
[ 2577 2569 2568 2566 ] final -124.59 input   -0.13 | X-H torsion
[ 2891 2887 2886 2883 ] final  135.03 input  179.98 | X-H torsion
[ 3175 3171 3170 3167 ] final   20.23 input -179.99 | X-H torsion
[ 5278 5270 5269 5267 ] final -106.96 input    0.55 | X-H torsion
[  641  637  636  633 ] final -142.91 input  179.99 | X-H torsion
[ 1886 1878 1877 1875 ] final  120.26 input    1.60 | X-H torsion
[  965  957  956  954 ] final  109.87 input    0.45 | X-H torsion

>  <Gold.Protein.ActiveResidues>  (149) 
 LYS47   THR48   LEU49   GLY50   THR51   GLY52   SER53   PHE54   GLY55   ARG56  
 VAL57   MET58   LEU59   TYR69   ALA70   MET71   LYS72   ILE73   LEU74   GLU91  
 LEU95   VAL104  LYS105  MET118  VAL119  MET120  GLU121  TYR122  VAL123  PRO124 
 GLY125  GLY126  GLU127  MET128  PHE129  TYR164  ASP166  LEU167  LYS168  PRO169 
 GLU170  ASN171  LEU172  LEU173  ILE174  GLN181  VAL182  THR183  ASP184  PHE185 
 GLY186  PHE187  GLY200  THR201  ASN326  PHE327  TYR330  ARG18   ARG19   ASN20  
 ALA21   ILE22   HIS23  

>  <Gold.Protein.RotatedAtoms>  (149) 
   11.2603   19.1232    7.7130 H   0  0  0  0  0  0  0  0  0  0  0  0  # atno 641  bound_to 637 
   16.6721   12.7398    6.0598 H   0  0  0  0  0  0  0  0  0  0  0  0  # atno 681  bound_to 677 
   20.0307   11.7231   -0.2620 H   0  0  0  0  0  0  0  0  0  0  0  0  # atno 702  bound_to 698 
   -7.1742   16.3493    0.0186 H   0  0  0  0  0  0  0  0  0  0  0  0  # atno 965  bound_to 957 
    1.1631   12.2417   10.9454 H   0  0  0  0  0  0  0  0  0  0  0  0  # atno 1886 bound_to 1878
   11.0656    2.5795   -2.7956 H   0  0  0  0  0  0  0  0  0  0  0  0  # atno 2577 bound_to 2569
    7.8581    6.9491    0.9820 H   0  0  0  0  0  0  0  0  0  0  0  0  # atno 2891 bound_to 2887
   18.9178    2.5754   -1.3639 H   0  0  0  0  0  0  0  0  0  0  0  0  # atno 3175 bound_to 3171
   14.0025    9.8479   10.3546 H   0  0  0  0  0  0  0  0  0  0  0  0  # atno 5278 bound_to 5270
   15.5984   13.1535    7.1608 LP  0  0  0  0  0  0  0  0  0  0  0  0  # atno 5914 bound_to 677 
   17.0279   13.9351    7.0501 LP  0  0  0  0  0  0  0  0  0  0  0  0  # atno 5915 bound_to 677 
   21.1187   11.5355   -1.4102 LP  0  0  0  0  0  0  0  0  0  0  0  0  # atno 5920 bound_to 698 
   19.5535   11.8201   -1.7787 LP  0  0  0  0  0  0  0  0  0  0  0  0  # atno 5921 bound_to 698 
    9.6141    2.0048   -2.4826 LP  0  0  0  0  0  0  0  0  0  0  0  0  # atno 5950 bound_to 2569
    9.8052    3.3434   -3.3981 LP  0  0  0  0  0  0  0  0  0  0  0  0  # atno 5951 bound_to 2569
    8.2350    5.5884    0.2450 LP  0  0  0  0  0  0  0  0  0  0  0  0  # atno 5982 bound_to 2887
    7.1696    5.6030    1.4825 LP  0  0  0  0  0  0  0  0  0  0  0  0  # atno 5983 bound_to 2887
   19.0984    2.9328    0.1773 LP  0  0  0  0  0  0  0  0  0  0  0  0  # atno 6000 bound_to 3171
   17.8806    1.9656   -0.3209 LP  0  0  0  0  0  0  0  0  0  0  0  0  # atno 6001 bound_to 3171
   13.9757   10.2127    8.8045 LP  0  0  0  0  0  0  0  0  0  0  0  0  # atno 6004 bound_to 5270
   12.5881    9.9929    9.6368 LP  0  0  0  0  0  0  0  0  0  0  0  0  # atno 6005 bound_to 5270
   10.4322   19.7925    8.8968 LP  0  0  0  0  0  0  0  0  0  0  0  0  # atno 6055 bound_to 637 
    9.6733   19.1688    7.5923 LP  0  0  0  0  0  0  0  0  0  0  0  0  # atno 6056 bound_to 637 
    2.2880   11.3111   10.3097 LP  0  0  0  0  0  0  0  0  0  0  0  0  # atno 6063 bound_to 1878
    0.8729   10.6807   10.8261 LP  0  0  0  0  0  0  0  0  0  0  0  0  # atno 6064 bound_to 1878
   -6.6630   15.4133   -1.1636 LP  0  0  0  0  0  0  0  0  0  0  0  0  # atno 6067 bound_to 957 
   -6.5893   17.0396   -1.2915 LP  0  0  0  0  0  0  0  0  0  0  0  0  # atno 6068 bound_to 957 

>  <STRIFE_LigEff_Score>  (149) 
2.8672315789473686

$$$$
unknown|pharmsElabsTestPreDocking|sdf|150|dock7
     RDKit          3D

 16 16  0  0  0  0  0  0  0  0999 V2000
   14.4234    9.2742    1.4079 C   0  0  0  0  0  0  0  0  0  0  0  0
   13.5151    8.0915    1.6986 C   0  0  0  0  0  0  0  0  0  0  0  0
   13.7449    6.9219    0.8572 N   0  0  0  0  0  0  0  0  0  0  0  0
   12.0405    8.4128    2.0927 C   0  0  0  0  0  0  0  0  0  0  0  0
   11.1764    7.2631    2.6345 C   0  0  0  0  0  0  0  0  0  0  0  0
    9.6792    7.6333    2.6114 C   0  0  0  0  0  0  0  0  0  0  0  0
    9.3985    9.1371    2.6647 C   0  0  0  0  0  0  0  0  0  0  0  0
    7.9518    9.4990    2.8236 C   0  0  0  0  0  0  0  0  0  0  0  0
    7.2891    9.5349    1.7575 O   0  0  0  0  0  0  0  0  0  0  0  0
    7.3066    9.8397    4.0614 N   0  0  0  0  0  0  0  0  0  0  0  0
    5.9128   10.3080    4.0787 C   0  0  0  0  0  0  0  0  0  0  0  0
    4.9397    9.1981    4.5000 C   0  0  0  0  0  0  0  0  0  0  0  0
    3.4660    9.5143    4.1887 C   0  0  0  0  0  0  0  0  0  0  0  0
    3.1820    9.5069    2.7466 N   0  0  0  0  0  0  0  0  0  0  0  0
   10.4376   10.0950    3.2280 C   0  0  0  0  0  0  0  0  0  0  0  0
   11.8970    9.6435    3.0105 C   0  0  0  0  0  0  0  0  0  0  0  0
  1  2  1  0
  2  3  1  0
  2  4  1  0
  4  5  1  0
  5  6  1  0
  6  7  1  0
  7  8  1  0
  8  9  2  0
  8 10  1  0
 10 11  1  0
 11 12  1  0
 12 13  1  0
 13 14  1  0
  7 15  1  0
 15 16  1  0
 16  4  1  0
M  CHG  2   3   1  14   1
M  END
>  <EmbedRMS>  (150) 
0.26685653268904913

>  <Gold.Version>  (150) 
2020.3.0

>  <Gold.Id.Protein>  (150) 
unknown|1q8t_protein|pdb

>  <Gold.PLP.Fitness>  (150) 
45.5673

>  <Gold.PLP.PLP>  (150) 
-34.0708

>  <Gold.PLP.part.hbond>  (150) 
-2.8394

>  <Gold.PLP.part.metal>  (150) 
0.0000

>  <Gold.PLP.part.buried>  (150) 
-3.8085

>  <Gold.PLP.part.nonpolar>  (150) 
-27.9430

>  <Gold.PLP.part.repulsive>  (150) 
0.1620

>  <Gold.PLP.ligand.clash>  (150) 
0.0000

>  <Gold.PLP.ligand.torsion>  (150) 
0.7358

>  <Gold.PLP.Chemscore.Hbond>  (150) 
3.9760

>  <Gold.PLP.Chemscore.CHOScore>  (150) 
0.0000

>  <Gold.PLP.Chemscore.Metal>  (150) 
0.0000

>  <Gold.Chemscore.Hbonds>  (150) 
donor molecule, donor type, donor heavy atom, donor atom, acceptor molecule, acceptor atom, score
      L1  H     3    22       P1  2691  0.98
      L1  H     3    23       P1  2902  2.00
      L1  H    14    39       P1  1855  1.00

>  <Gold.PLP.Chemscore.Internal.Correction>  (150) 
1.0402

>  <Gold.PLP.Constraint>  (150) 
-0.0000

>  <Gold.Protein.RotatedTorsions>  (150) 
[  681  677  676  673 ] final -140.92 input -179.99 | X-H torsion
[  702  698  697  694 ] final   57.75 input  179.99 | X-H torsion
[ 2577 2569 2568 2566 ] final -129.71 input   -0.13 | X-H torsion
[ 2891 2887 2886 2883 ] final -158.49 input  179.98 | X-H torsion
[ 3175 3171 3170 3167 ] final   85.45 input -179.99 | X-H torsion
[ 5278 5270 5269 5267 ] final   52.47 input    0.55 | X-H torsion
[  641  637  636  633 ] final  138.12 input  179.99 | X-H torsion
[ 1886 1878 1877 1875 ] final -151.04 input    1.60 | X-H torsion
[  965  957  956  954 ] final  142.90 input    0.45 | X-H torsion

>  <Gold.Protein.ActiveResidues>  (150) 
 LYS47   THR48   LEU49   GLY50   THR51   GLY52   SER53   PHE54   GLY55   ARG56  
 VAL57   MET58   LEU59   TYR69   ALA70   MET71   LYS72   ILE73   LEU74   GLU91  
 LEU95   VAL104  LYS105  MET118  VAL119  MET120  GLU121  TYR122  VAL123  PRO124 
 GLY125  GLY126  GLU127  MET128  PHE129  TYR164  ASP166  LEU167  LYS168  PRO169 
 GLU170  ASN171  LEU172  LEU173  ILE174  GLN181  VAL182  THR183  ASP184  PHE185 
 GLY186  PHE187  GLY200  THR201  ASN326  PHE327  TYR330  ARG18   ARG19   ASN20  
 ALA21   ILE22   HIS23  

>  <Gold.Protein.RotatedAtoms>  (150) 
   11.0285   19.6405    8.7006 H   0  0  0  0  0  0  0  0  0  0  0  0  # atno 641  bound_to 637 
   16.4931   13.9271    7.3479 H   0  0  0  0  0  0  0  0  0  0  0  0  # atno 681  bound_to 677 
   19.4292   11.8537   -1.5027 H   0  0  0  0  0  0  0  0  0  0  0  0  # atno 702  bound_to 698 
   -7.0925   16.8224   -0.1509 H   0  0  0  0  0  0  0  0  0  0  0  0  # atno 965  bound_to 957 
    0.6501   11.1000   10.9769 H   0  0  0  0  0  0  0  0  0  0  0  0  # atno 1886 bound_to 1878
   11.0527    2.5142   -2.7512 H   0  0  0  0  0  0  0  0  0  0  0  0  # atno 2577 bound_to 2569
    7.2560    6.4245    1.5538 H   0  0  0  0  0  0  0  0  0  0  0  0  # atno 2891 bound_to 2887
   18.1523    2.0404   -1.1196 H   0  0  0  0  0  0  0  0  0  0  0  0  # atno 3175 bound_to 3171
   12.8205   10.1495    9.0815 H   0  0  0  0  0  0  0  0  0  0  0  0  # atno 5278 bound_to 5270
   17.1527   13.1075    6.1523 LP  0  0  0  0  0  0  0  0  0  0  0  0  # atno 5914 bound_to 677 
   15.6620   12.7314    6.7030 LP  0  0  0  0  0  0  0  0  0  0  0  0  # atno 5915 bound_to 677 
   20.3201   11.6537   -0.1975 LP  0  0  0  0  0  0  0  0  0  0  0  0  # atno 5920 bound_to 698 
   20.9848   11.5646   -1.6864 LP  0  0  0  0  0  0  0  0  0  0  0  0  # atno 5921 bound_to 698 
    9.5490    2.0464   -2.5162 LP  0  0  0  0  0  0  0  0  0  0  0  0  # atno 5950 bound_to 2569
    9.8838    3.3706   -3.4112 LP  0  0  0  0  0  0  0  0  0  0  0  0  # atno 5951 bound_to 2569
    8.3238    6.6084    0.3865 LP  0  0  0  0  0  0  0  0  0  0  0  0  # atno 5982 bound_to 2887
    7.7145    5.1350    0.7393 LP  0  0  0  0  0  0  0  0  0  0  0  0  # atno 5983 bound_to 2887
   19.3742    3.0094   -0.7976 LP  0  0  0  0  0  0  0  0  0  0  0  0  # atno 6000 bound_to 3171
   18.4103    2.4519    0.3969 LP  0  0  0  0  0  0  0  0  0  0  0  0  # atno 6001 bound_to 3171
   13.4054    9.7843   10.5172 LP  0  0  0  0  0  0  0  0  0  0  0  0  # atno 6004 bound_to 5270
   14.4021   10.1039    9.2637 LP  0  0  0  0  0  0  0  0  0  0  0  0  # atno 6005 bound_to 5270
    9.5389   19.4690    8.1654 LP  0  0  0  0  0  0  0  0  0  0  0  0  # atno 6055 bound_to 637 
   10.8107   18.9477    7.2837 LP  0  0  0  0  0  0  0  0  0  0  0  0  # atno 6056 bound_to 637 
    1.6214   12.3464   10.7802 LP  0  0  0  0  0  0  0  0  0  0  0  0  # atno 6063 bound_to 1878
    2.0796   10.8473   10.3225 LP  0  0  0  0  0  0  0  0  0  0  0  0  # atno 6064 bound_to 1878
   -6.8833   15.3357   -0.6811 LP  0  0  0  0  0  0  0  0  0  0  0  0  # atno 6067 bound_to 957 
   -6.4549   16.6190   -1.5956 LP  0  0  0  0  0  0  0  0  0  0  0  0  # atno 6068 bound_to 957 

>  <STRIFE_LigEff_Score>  (150) 
2.84795625

$$$$
unknown|pharmsElabsTestPreDocking|sdf|151|dock7
     RDKit          3D

 18 18  0  0  0  0  0  0  0  0999 V2000
    4.5532   10.3890    6.0434 C   0  0  0  0  0  0  0  0  0  0  0  0
    4.1884    9.9838    4.6478 C   0  0  0  0  0  0  0  0  0  0  0  0
    5.0739    9.4554    3.7833 C   0  0  0  0  0  0  0  0  0  0  0  0
    6.4219    9.2042    4.2203 N   0  0  0  0  0  0  0  0  0  0  0  0
    7.5966    9.4286    3.4330 C   0  0  0  0  0  0  0  0  0  0  0  0
    7.5401   10.0957    2.3618 O   0  0  0  0  0  0  0  0  0  0  0  0
    8.9088    8.8890    3.9328 C   0  0  0  0  0  0  0  0  0  0  0  0
    9.4413    7.7869    2.9992 C   0  0  0  0  0  0  0  0  0  0  0  0
   10.8099    7.2769    3.4838 C   0  0  0  0  0  0  0  0  0  0  0  0
   11.7787    8.4729    3.5182 C   0  0  0  0  0  0  0  0  0  0  0  0
   13.3095    8.1901    3.5266 C   0  0  0  0  0  0  0  0  0  0  0  0
   13.8750    7.5286    4.7718 C   0  0  0  0  0  0  0  0  0  0  0  0
   14.1753    9.1833    2.9036 N   0  0  0  0  0  0  0  0  0  0  0  0
   11.2975    9.4984    4.5598 C   0  0  0  0  0  0  0  0  0  0  0  0
    9.9174   10.0332    4.1503 C   0  0  0  0  0  0  0  0  0  0  0  0
    4.6109    9.0237    2.4349 C   0  0  0  0  0  0  0  0  0  0  0  0
    3.2381    8.4484    2.2312 C   0  0  0  0  0  0  0  0  0  0  0  0
    5.3761    9.2032    1.4026 N   0  0  0  0  0  0  0  0  0  0  0  0
  1  2  1  0
  2  3  2  0
  3  4  1  0
  4  5  1  0
  5  6  2  0
  5  7  1  0
  7  8  1  0
  8  9  1  0
  9 10  1  0
 10 11  1  0
 11 12  1  0
 11 13  1  0
 10 14  1  0
 14 15  1  0
  3 16  1  0
 16 17  1  0
 16 18  2  0
 15  7  1  0
M  CHG  1  13   1
M  END
>  <EmbedRMS>  (151) 
0.18298173008130458

>  <Gold.Version>  (151) 
2020.3.0

>  <Gold.Id.Protein>  (151) 
unknown|1q8t_protein|pdb

>  <Gold.PLP.Fitness>  (151) 
43.5293

>  <Gold.PLP.PLP>  (151) 
-41.8830

>  <Gold.PLP.part.hbond>  (151) 
-1.0000

>  <Gold.PLP.part.metal>  (151) 
0.0000

>  <Gold.PLP.part.buried>  (151) 
-3.7863

>  <Gold.PLP.part.nonpolar>  (151) 
-37.4350

>  <Gold.PLP.part.repulsive>  (151) 
0.0417

>  <Gold.PLP.ligand.clash>  (151) 
0.0000

>  <Gold.PLP.ligand.torsion>  (151) 
1.2588

>  <Gold.PLP.Chemscore.Hbond>  (151) 
0.9760

>  <Gold.PLP.Chemscore.CHOScore>  (151) 
0.0000

>  <Gold.PLP.Chemscore.Metal>  (151) 
0.0000

>  <Gold.Chemscore.Hbonds>  (151) 
donor molecule, donor type, donor heavy atom, donor atom, acceptor molecule, acceptor atom, score
      L1  H    13    35       P1   675  0.98

>  <Gold.PLP.Chemscore.Internal.Correction>  (151) 
1.2359

>  <Gold.PLP.Constraint>  (151) 
-0.0000

>  <Gold.Protein.RotatedTorsions>  (151) 
[  681  677  676  673 ] final  -66.22 input -179.99 | X-H torsion
[  702  698  697  694 ] final   34.51 input  179.99 | X-H torsion
[ 2577 2569 2568 2566 ] final  -52.97 input   -0.13 | X-H torsion
[ 2891 2887 2886 2883 ] final   35.90 input  179.98 | X-H torsion
[ 3175 3171 3170 3167 ] final -117.78 input -179.99 | X-H torsion
[ 5278 5270 5269 5267 ] final    3.15 input    0.55 | X-H torsion
[  641  637  636  633 ] final  115.77 input  179.99 | X-H torsion
[ 1886 1878 1877 1875 ] final -137.67 input    1.60 | X-H torsion
[  965  957  956  954 ] final  -30.60 input    0.45 | X-H torsion

>  <Gold.Protein.ActiveResidues>  (151) 
 LYS47   THR48   LEU49   GLY50   THR51   GLY52   SER53   PHE54   GLY55   ARG56  
 VAL57   MET58   LEU59   TYR69   ALA70   MET71   LYS72   ILE73   LEU74   GLU91  
 LEU95   VAL104  LYS105  MET118  VAL119  MET120  GLU121  TYR122  VAL123  PRO124 
 GLY125  GLY126  GLU127  MET128  PHE129  TYR164  ASP166  LEU167  LYS168  PRO169 
 GLU170  ASN171  LEU172  LEU173  ILE174  GLN181  VAL182  THR183  ASP184  PHE185 
 GLY186  PHE187  GLY200  THR201  ASN326  PHE327  TYR330  ARG18   ARG19   ASN20  
 ALA21   ILE22   HIS23  

>  <Gold.Protein.RotatedAtoms>  (151) 
   10.7213   19.7272    8.8368 H   0  0  0  0  0  0  0  0  0  0  0  0  # atno 641  bound_to 637 
   15.6598   13.2474    7.1902 H   0  0  0  0  0  0  0  0  0  0  0  0  # atno 681  bound_to 677 
   19.3504   11.8608   -1.1505 H   0  0  0  0  0  0  0  0  0  0  0  0  # atno 702  bound_to 698 
   -6.5468   15.6390   -1.3748 H   0  0  0  0  0  0  0  0  0  0  0  0  # atno 965  bound_to 957 
    0.7295   10.9188   10.9110 H   0  0  0  0  0  0  0  0  0  0  0  0  # atno 1886 bound_to 1878
   10.5572    3.3143   -3.3431 H   0  0  0  0  0  0  0  0  0  0  0  0  # atno 2577 bound_to 2569
    8.3076    5.9157    0.2139 H   0  0  0  0  0  0  0  0  0  0  0  0  # atno 2891 bound_to 2887
   18.8871    2.7702    0.2969 H   0  0  0  0  0  0  0  0  0  0  0  0  # atno 3175 bound_to 3171
   12.6529    9.9734    9.7886 H   0  0  0  0  0  0  0  0  0  0  0  0  # atno 5278 bound_to 5270
   17.0959   13.9010    6.9743 LP  0  0  0  0  0  0  0  0  0  0  0  0  # atno 5914 bound_to 677 
   16.5959   12.6533    6.0470 LP  0  0  0  0  0  0  0  0  0  0  0  0  # atno 5915 bound_to 677 
   20.6773   11.5926   -0.3110 LP  0  0  0  0  0  0  0  0  0  0  0  0  # atno 5920 bound_to 698 
   20.7105   11.6182   -1.9434 LP  0  0  0  0  0  0  0  0  0  0  0  0  # atno 5921 bound_to 698 
   10.7153    2.0281   -2.4180 LP  0  0  0  0  0  0  0  0  0  0  0  0  # atno 5950 bound_to 2569
    9.2393    2.5465   -2.8862 LP  0  0  0  0  0  0  0  0  0  0  0  0  # atno 5951 bound_to 2569
    7.2821    5.3442    1.2902 LP  0  0  0  0  0  0  0  0  0  0  0  0  # atno 5982 bound_to 2887
    7.6494    6.9348    1.2458 LP  0  0  0  0  0  0  0  0  0  0  0  0  # atno 5983 bound_to 2887
   17.8860    1.9312   -0.6139 LP  0  0  0  0  0  0  0  0  0  0  0  0  # atno 6000 bound_to 3171
   19.1253    2.7622   -1.2775 LP  0  0  0  0  0  0  0  0  0  0  0  0  # atno 6001 bound_to 3171
   14.1576    9.8470   10.2951 LP  0  0  0  0  0  0  0  0  0  0  0  0  # atno 6004 bound_to 5270
   13.8263   10.2266    8.7418 LP  0  0  0  0  0  0  0  0  0  0  0  0  # atno 6005 bound_to 5270
    9.5543   19.3022    7.8405 LP  0  0  0  0  0  0  0  0  0  0  0  0  # atno 6055 bound_to 637 
   11.1189   19.0232    7.4652 LP  0  0  0  0  0  0  0  0  0  0  0  0  # atno 6056 bound_to 637 
    1.4210   12.3524   10.8696 LP  0  0  0  0  0  0  0  0  0  0  0  0  # atno 6063 bound_to 1878
    2.1965   11.0320   10.3025 LP  0  0  0  0  0  0  0  0  0  0  0  0  # atno 6064 bound_to 1878
   -6.7140   17.1809   -1.0144 LP  0  0  0  0  0  0  0  0  0  0  0  0  # atno 6067 bound_to 957 
   -7.1990   16.0201    0.0268 LP  0  0  0  0  0  0  0  0  0  0  0  0  # atno 6068 bound_to 957 

>  <STRIFE_LigEff_Score>  (151) 
2.4182944444444443

$$$$
unknown|pharmsElabsTestPreDocking|sdf|152|dock3
     RDKit          3D

 19 20  0  0  0  0  0  0  0  0999 V2000
   13.7923    6.7282    3.5452 C   0  0  0  0  0  0  0  0  0  0  0  0
   13.7140    7.7818    2.4226 C   0  0  0  0  0  0  0  0  0  0  0  0
   14.0626    7.1492    1.1438 N   0  0  0  0  0  0  0  0  0  0  0  0
   12.2971    8.4277    2.3922 C   0  0  0  0  0  0  0  0  0  0  0  0
   11.2452    7.3709    1.9964 C   0  0  0  0  0  0  0  0  0  0  0  0
    9.8849    8.0282    1.8080 C   0  0  0  0  0  0  0  0  0  0  0  0
    9.4394    8.7032    3.1087 C   0  0  0  0  0  0  0  0  0  0  0  0
    8.0893    9.3351    2.9311 C   0  0  0  0  0  0  0  0  0  0  0  0
    7.8440   10.4763    3.4143 O   0  0  0  0  0  0  0  0  0  0  0  0
    7.0818    8.6251    2.2107 N   0  0  0  0  0  0  0  0  0  0  0  0
    5.7690    9.2028    1.9589 C   0  0  0  0  0  0  0  0  0  0  0  0
    4.9926    9.2635    3.2359 C   0  0  0  0  0  0  0  0  0  0  0  0
    5.5309    9.4078    4.4966 C   0  0  0  0  0  0  0  0  0  0  0  0
    4.4311    9.5091    5.3275 C   0  0  0  0  0  0  0  0  0  0  0  0
    3.2995    9.4505    4.5962 N   0  0  0  0  0  0  0  0  0  0  0  0
    3.6495    9.3136    3.3280 N   0  0  0  0  0  0  0  0  0  0  0  0
    2.6955    9.2351    2.2277 C   0  0  0  0  0  0  0  0  0  0  0  0
   10.4757    9.7305    3.5948 C   0  0  0  0  0  0  0  0  0  0  0  0
   11.8690    9.0920    3.7244 C   0  0  0  0  0  0  0  0  0  0  0  0
  1  2  1  0
  2  3  1  0
  2  4  1  0
  4  5  1  0
  5  6  1  0
  6  7  1  0
  7  8  1  0
  8  9  2  0
  8 10  1  0
 10 11  1  0
 11 12  1  0
 12 13  2  0
 13 14  1  0
 14 15  2  0
 15 16  1  0
 16 17  1  0
  7 18  1  0
 18 19  1  0
 19  4  1  0
 16 12  1  0
M  CHG  1   3   1
M  END
>  <EmbedRMS>  (152) 
0.027804703519808214

>  <Gold.Version>  (152) 
2020.3.0

>  <Gold.Id.Protein>  (152) 
unknown|1q8t_protein|pdb

>  <Gold.PLP.Fitness>  (152) 
57.2439

>  <Gold.PLP.PLP>  (152) 
-43.8650

>  <Gold.PLP.part.hbond>  (152) 
-4.0000

>  <Gold.PLP.part.metal>  (152) 
0.0000

>  <Gold.PLP.part.buried>  (152) 
0.9696

>  <Gold.PLP.part.nonpolar>  (152) 
-41.3348

>  <Gold.PLP.part.repulsive>  (152) 
0.1837

>  <Gold.PLP.ligand.clash>  (152) 
0.0000

>  <Gold.PLP.ligand.torsion>  (152) 
0.8398

>  <Gold.PLP.Chemscore.Hbond>  (152) 
5.0000

>  <Gold.PLP.Chemscore.CHOScore>  (152) 
0.0000

>  <Gold.PLP.Chemscore.Metal>  (152) 
0.0000

>  <Gold.Chemscore.Hbonds>  (152) 
donor molecule, donor type, donor heavy atom, donor atom, acceptor molecule, acceptor atom, score
      L1  H     3    25       P1  2902  2.00
      L1  H     3    26       P1  2691  1.00
      L1  H    10    33       P1  2887  1.00
      P1  H  1888  1903       L1    15  1.00

>  <Gold.PLP.Chemscore.Internal.Correction>  (152) 
0.0584

>  <Gold.PLP.Constraint>  (152) 
-0.0000

>  <Gold.Protein.RotatedTorsions>  (152) 
[  681  677  676  673 ] final -152.80 input -179.99 | X-H torsion
[  702  698  697  694 ] final -154.89 input  179.99 | X-H torsion
[ 2577 2569 2568 2566 ] final   11.07 input   -0.13 | X-H torsion
[ 2891 2887 2886 2883 ] final  -44.58 input  179.98 | X-H torsion
[ 3175 3171 3170 3167 ] final -139.29 input -179.99 | X-H torsion
[ 5278 5270 5269 5267 ] final   45.66 input    0.55 | X-H torsion
[  641  637  636  633 ] final  161.50 input  179.99 | X-H torsion
[ 1886 1878 1877 1875 ] final -149.03 input    1.60 | X-H torsion
[  965  957  956  954 ] final   -5.76 input    0.45 | X-H torsion

>  <Gold.Protein.ActiveResidues>  (152) 
 LYS47   THR48   LEU49   GLY50   THR51   GLY52   SER53   PHE54   GLY55   ARG56  
 VAL57   MET58   LEU59   TYR69   ALA70   MET71   LYS72   ILE73   LEU74   GLU91  
 LEU95   VAL104  LYS105  MET118  VAL119  MET120  GLU121  TYR122  VAL123  PRO124 
 GLY125  GLY126  GLU127  MET128  PHE129  TYR164  ASP166  LEU167  LYS168  PRO169 
 GLU170  ASN171  LEU172  LEU173  ILE174  GLN181  VAL182  THR183  ASP184  PHE185 
 GLY186  PHE187  GLY200  THR201  ASN326  PHE327  TYR330  ARG18   ARG19   ASN20  
 ALA21   ILE22   HIS23  

>  <Gold.Protein.RotatedAtoms>  (152) 
   11.2593   19.5030    8.4566 H   0  0  0  0  0  0  0  0  0  0  0  0  # atno 641  bound_to 637 
   16.6601   13.9556    7.2726 H   0  0  0  0  0  0  0  0  0  0  0  0  # atno 681  bound_to 677 
   21.1061   11.5518   -1.2661 H   0  0  0  0  0  0  0  0  0  0  0  0  # atno 702  bound_to 698 
   -6.6824   15.4300   -1.0812 H   0  0  0  0  0  0  0  0  0  0  0  0  # atno 965  bound_to 957 
    0.6595   11.0713   10.9679 H   0  0  0  0  0  0  0  0  0  0  0  0  # atno 1886 bound_to 1878
    9.6163    3.1881   -3.3244 H   0  0  0  0  0  0  0  0  0  0  0  0  # atno 2577 bound_to 2569
    7.6418    5.1789    0.8086 H   0  0  0  0  0  0  0  0  0  0  0  0  # atno 2891 bound_to 2887
   18.6210    2.5831    0.3738 H   0  0  0  0  0  0  0  0  0  0  0  0  # atno 3175 bound_to 3171
   12.7606   10.1279    9.1668 H   0  0  0  0  0  0  0  0  0  0  0  0  # atno 5278 bound_to 5270
   17.0375   12.9659    6.0834 LP  0  0  0  0  0  0  0  0  0  0  0  0  # atno 5914 bound_to 677 
   15.6015   12.8430    6.8511 LP  0  0  0  0  0  0  0  0  0  0  0  0  # atno 5915 bound_to 677 
   19.6555   11.8039   -1.8739 LP  0  0  0  0  0  0  0  0  0  0  0  0  # atno 5920 bound_to 698 
   19.8854   11.7320   -0.2588 LP  0  0  0  0  0  0  0  0  0  0  0  0  # atno 5921 bound_to 698 
   11.1067    2.7969   -2.9232 LP  0  0  0  0  0  0  0  0  0  0  0  0  # atno 5950 bound_to 2569
    9.8387    1.9105   -2.4006 LP  0  0  0  0  0  0  0  0  0  0  0  0  # atno 5951 bound_to 2569
    7.2828    6.5290    1.5733 LP  0  0  0  0  0  0  0  0  0  0  0  0  # atno 5982 bound_to 2887
    8.3495    6.5254    0.3368 LP  0  0  0  0  0  0  0  0  0  0  0  0  # atno 5983 bound_to 2887
   17.9879    1.9628   -0.9491 LP  0  0  0  0  0  0  0  0  0  0  0  0  # atno 6000 bound_to 3171
   19.3034    2.9275   -1.0231 LP  0  0  0  0  0  0  0  0  0  0  0  0  # atno 6001 bound_to 3171
   13.5172    9.7835   10.5254 LP  0  0  0  0  0  0  0  0  0  0  0  0  # atno 6004 bound_to 5270
   14.3533   10.1276    9.1656 LP  0  0  0  0  0  0  0  0  0  0  0  0  # atno 6005 bound_to 5270
    9.6722   19.6259    8.4873 LP  0  0  0  0  0  0  0  0  0  0  0  0  # atno 6055 bound_to 637 
   10.4344   18.9356    7.2187 LP  0  0  0  0  0  0  0  0  0  0  0  0  # atno 6056 bound_to 637 
    1.5915   12.3505   10.7941 LP  0  0  0  0  0  0  0  0  0  0  0  0  # atno 6063 bound_to 1878
    2.0996   10.8733   10.3181 LP  0  0  0  0  0  0  0  0  0  0  0  0  # atno 6064 bound_to 1878
   -6.5660   16.9961   -1.3436 LP  0  0  0  0  0  0  0  0  0  0  0  0  # atno 6067 bound_to 957 
   -7.2042   16.4251    0.0468 LP  0  0  0  0  0  0  0  0  0  0  0  0  # atno 6068 bound_to 957 

>  <STRIFE_LigEff_Score>  (152) 
3.012836842105263

$$$$
unknown|pharmsElabsTestPreDocking|sdf|153|dock3
     RDKit          3D

 18 19  0  0  0  0  0  0  0  0999 V2000
   14.6041    9.3994    1.1051 C   0  0  0  0  0  0  0  0  0  0  0  0
   13.8086    8.1709    1.5135 C   0  0  0  0  0  0  0  0  0  0  0  0
   14.1118    6.9643    0.7518 N   0  0  0  0  0  0  0  0  0  0  0  0
   12.3245    8.3978    1.9345 C   0  0  0  0  0  0  0  0  0  0  0  0
   11.6587    7.3283    2.8146 C   0  0  0  0  0  0  0  0  0  0  0  0
   10.1264    7.4911    2.8219 C   0  0  0  0  0  0  0  0  0  0  0  0
    9.6445    8.9164    2.5396 C   0  0  0  0  0  0  0  0  0  0  0  0
    8.1680    9.1144    2.6874 C   0  0  0  0  0  0  0  0  0  0  0  0
    7.6143    9.5104    1.6387 O   0  0  0  0  0  0  0  0  0  0  0  0
    7.3894    8.8879    3.8854 N   0  0  0  0  0  0  0  0  0  0  0  0
    5.9742    9.2138    4.0242 C   0  0  0  0  0  0  0  0  0  0  0  0
    5.5079    9.7567    5.2371 C   0  0  0  0  0  0  0  0  0  0  0  0
    4.1563   10.0933    5.4006 C   0  0  0  0  0  0  0  0  0  0  0  0
    3.2469    9.8856    4.3628 C   0  0  0  0  0  0  0  0  0  0  0  0
    3.6839    9.3531    3.1570 C   0  0  0  0  0  0  0  0  0  0  0  0
    5.0262    9.0338    2.9793 C   0  0  0  0  0  0  0  0  0  0  0  0
   10.5588   10.1068    2.7594 C   0  0  0  0  0  0  0  0  0  0  0  0
   12.0533    9.7987    2.5243 C   0  0  0  0  0  0  0  0  0  0  0  0
  1  2  1  0
  2  3  1  0
  2  4  1  0
  4  5  1  0
  5  6  1  0
  6  7  1  0
  7  8  1  0
  8  9  2  0
  8 10  1  0
 10 11  1  0
 11 12  2  0
 12 13  1  0
 13 14  2  0
 14 15  1  0
 15 16  2  0
  7 17  1  0
 17 18  1  0
 18  4  1  0
 16 11  1  0
M  CHG  1   3   1
M  END
>  <EmbedRMS>  (153) 
0.24964892458419108

>  <Gold.Version>  (153) 
2020.3.0

>  <Gold.Id.Protein>  (153) 
unknown|1q8t_protein|pdb

>  <Gold.PLP.Fitness>  (153) 
55.1463

>  <Gold.PLP.PLP>  (153) 
-47.2134

>  <Gold.PLP.part.hbond>  (153) 
-2.0000

>  <Gold.PLP.part.metal>  (153) 
0.0000

>  <Gold.PLP.part.buried>  (153) 
-2.3473

>  <Gold.PLP.part.nonpolar>  (153) 
-43.5920

>  <Gold.PLP.part.repulsive>  (153) 
0.0836

>  <Gold.PLP.ligand.clash>  (153) 
0.0000

>  <Gold.PLP.ligand.torsion>  (153) 
1.0014

>  <Gold.PLP.Chemscore.Hbond>  (153) 
3.0000

>  <Gold.PLP.Chemscore.CHOScore>  (153) 
0.0000

>  <Gold.PLP.Chemscore.Metal>  (153) 
0.0000

>  <Gold.Chemscore.Hbonds>  (153) 
donor molecule, donor type, donor heavy atom, donor atom, acceptor molecule, acceptor atom, score
      L1  H     3    23       P1  2902  2.00
      L1  H     3    24       P1  2691  1.00

>  <Gold.PLP.Chemscore.Internal.Correction>  (153) 
0.9356

>  <Gold.PLP.Constraint>  (153) 
-0.0000

>  <Gold.Protein.RotatedTorsions>  (153) 
[  681  677  676  673 ] final  122.91 input -179.99 | X-H torsion
[  702  698  697  694 ] final   54.14 input  179.99 | X-H torsion
[ 2577 2569 2568 2566 ] final  150.65 input   -0.13 | X-H torsion
[ 2891 2887 2886 2883 ] final  107.15 input  179.98 | X-H torsion
[ 3175 3171 3170 3167 ] final -176.83 input -179.99 | X-H torsion
[ 5278 5270 5269 5267 ] final   93.02 input    0.55 | X-H torsion
[  641  637  636  633 ] final   75.70 input  179.99 | X-H torsion
[ 1886 1878 1877 1875 ] final  -17.33 input    1.60 | X-H torsion
[  965  957  956  954 ] final   68.23 input    0.45 | X-H torsion

>  <Gold.Protein.ActiveResidues>  (153) 
 LYS47   THR48   LEU49   GLY50   THR51   GLY52   SER53   PHE54   GLY55   ARG56  
 VAL57   MET58   LEU59   TYR69   ALA70   MET71   LYS72   ILE73   LEU74   GLU91  
 LEU95   VAL104  LYS105  MET118  VAL119  MET120  GLU121  TYR122  VAL123  PRO124 
 GLY125  GLY126  GLU127  MET128  PHE129  TYR164  ASP166  LEU167  LYS168  PRO169 
 GLU170  ASN171  LEU172  LEU173  ILE174  GLN181  VAL182  THR183  ASP184  PHE185 
 GLY186  PHE187  GLY200  THR201  ASN326  PHE327  TYR330  ARG18   ARG19   ASN20  
 ALA21   ILE22   HIS23  

>  <Gold.Protein.RotatedAtoms>  (153) 
   10.1098   19.7366    8.7883 H   0  0  0  0  0  0  0  0  0  0  0  0  # atno 641  bound_to 637 
   17.2390   13.4088    6.3719 H   0  0  0  0  0  0  0  0  0  0  0  0  # atno 681  bound_to 677 
   19.4078   11.8565   -1.4506 H   0  0  0  0  0  0  0  0  0  0  0  0  # atno 702  bound_to 698 
   -7.1079   15.7365   -0.1399 H   0  0  0  0  0  0  0  0  0  0  0  0  # atno 965  bound_to 957 
    2.1540   11.0591   10.3069 H   0  0  0  0  0  0  0  0  0  0  0  0  # atno 1886 bound_to 1878
   10.1548    1.8992   -2.3900 H   0  0  0  0  0  0  0  0  0  0  0  0  # atno 2577 bound_to 2569
    8.1187    6.8426    0.6548 H   0  0  0  0  0  0  0  0  0  0  0  0  # atno 2891 bound_to 2887
   18.1861    2.2401    0.2142 H   0  0  0  0  0  0  0  0  0  0  0  0  # atno 3175 bound_to 3171
   13.3465   10.2338    8.7622 H   0  0  0  0  0  0  0  0  0  0  0  0  # atno 5278 bound_to 5270
   15.8798   12.5801    6.4180 LP  0  0  0  0  0  0  0  0  0  0  0  0  # atno 5914 bound_to 677 
   16.1499   13.8043    7.4644 LP  0  0  0  0  0  0  0  0  0  0  0  0  # atno 5915 bound_to 677 
   20.3780   11.6436   -0.2053 LP  0  0  0  0  0  0  0  0  0  0  0  0  # atno 5920 bound_to 698 
   20.9494   11.5718   -1.7334 LP  0  0  0  0  0  0  0  0  0  0  0  0  # atno 5921 bound_to 698 
    9.3744    3.0217   -3.2062 LP  0  0  0  0  0  0  0  0  0  0  0  0  # atno 5950 bound_to 2569
   11.0039    3.0429   -3.1015 LP  0  0  0  0  0  0  0  0  0  0  0  0  # atno 5951 bound_to 2569
    7.9891    5.2681    0.4531 LP  0  0  0  0  0  0  0  0  0  0  0  0  # atno 5982 bound_to 2887
    7.1413    6.0353    1.6189 LP  0  0  0  0  0  0  0  0  0  0  0  0  # atno 5983 bound_to 2887
   18.3657    2.1879   -1.3671 LP  0  0  0  0  0  0  0  0  0  0  0  0  # atno 6000 bound_to 3171
   19.3833    3.0634   -0.4372 LP  0  0  0  0  0  0  0  0  0  0  0  0  # atno 6001 bound_to 3171
   12.8279    9.8519   10.2190 LP  0  0  0  0  0  0  0  0  0  0  0  0  # atno 6004 bound_to 5270
   14.4261    9.9478    9.8978 LP  0  0  0  0  0  0  0  0  0  0  0  0  # atno 6005 bound_to 5270
    9.9117   19.0418    7.3695 LP  0  0  0  0  0  0  0  0  0  0  0  0  # atno 6055 bound_to 637 
   11.4055   19.2737    7.9871 LP  0  0  0  0  0  0  0  0  0  0  0  0  # atno 6056 bound_to 637 
    0.7019   10.8848   10.9363 LP  0  0  0  0  0  0  0  0  0  0  0  0  # atno 6063 bound_to 1878
    1.4159   12.3519   10.8717 LP  0  0  0  0  0  0  0  0  0  0  0  0  # atno 6064 bound_to 1878
   -6.4652   15.8927   -1.5882 LP  0  0  0  0  0  0  0  0  0  0  0  0  # atno 6067 bound_to 957 
   -6.8569   17.2057   -0.6999 LP  0  0  0  0  0  0  0  0  0  0  0  0  # atno 6068 bound_to 957 

>  <STRIFE_LigEff_Score>  (153) 
3.063683333333333

$$$$
unknown|pharmsElabsTestPreDocking|sdf|154|dock4
     RDKit          3D

 18 19  0  0  0  0  0  0  0  0999 V2000
   14.5045    9.4856    1.1091 C   0  0  0  0  0  0  0  0  0  0  0  0
   13.7467    8.2408    1.5390 C   0  0  0  0  0  0  0  0  0  0  0  0
   14.0813    7.0324    0.7935 N   0  0  0  0  0  0  0  0  0  0  0  0
   12.2585    8.4310    1.9638 C   0  0  0  0  0  0  0  0  0  0  0  0
   11.6020    7.3145    2.7908 C   0  0  0  0  0  0  0  0  0  0  0  0
   10.0679    7.4592    2.7992 C   0  0  0  0  0  0  0  0  0  0  0  0
    9.5704    8.8903    2.5809 C   0  0  0  0  0  0  0  0  0  0  0  0
    8.0912    9.0643    2.7314 C   0  0  0  0  0  0  0  0  0  0  0  0
    7.5217    9.3996    1.6701 O   0  0  0  0  0  0  0  0  0  0  0  0
    7.3262    8.8778    3.9449 N   0  0  0  0  0  0  0  0  0  0  0  0
    5.9055    9.1804    4.0801 C   0  0  0  0  0  0  0  0  0  0  0  0
    5.4376    9.7749    5.2678 C   0  0  0  0  0  0  0  0  0  0  0  0
    4.0805   10.0908    5.4265 C   0  0  0  0  0  0  0  0  0  0  0  0
    3.1672    9.8108    4.4092 C   0  0  0  0  0  0  0  0  0  0  0  0
    3.6056    9.2263    3.2283 C   0  0  0  0  0  0  0  0  0  0  0  0
    4.9530    8.9267    3.0548 C   0  0  0  0  0  0  0  0  0  0  0  0
   10.4699   10.0798    2.8592 C   0  0  0  0  0  0  0  0  0  0  0  0
   11.9688    9.8000    2.6164 C   0  0  0  0  0  0  0  0  0  0  0  0
  1  2  1  0
  2  3  1  0
  2  4  1  0
  4  5  1  0
  5  6  1  0
  6  7  1  0
  7  8  1  0
  8  9  2  0
  8 10  1  0
 10 11  1  0
 11 12  2  0
 12 13  1  0
 13 14  2  0
 14 15  1  0
 15 16  2  0
  7 17  1  0
 17 18  1  0
 18  4  1  0
 16 11  1  0
M  CHG  1   3   1
M  END
>  <EmbedRMS>  (154) 
0.24964892458419108

>  <Gold.Version>  (154) 
2020.3.0

>  <Gold.Id.Protein>  (154) 
unknown|1q8t_protein|pdb

>  <Gold.PLP.Fitness>  (154) 
55.5070

>  <Gold.PLP.PLP>  (154) 
-47.6625

>  <Gold.PLP.part.hbond>  (154) 
-2.0000

>  <Gold.PLP.part.metal>  (154) 
0.0000

>  <Gold.PLP.part.buried>  (154) 
-1.7803

>  <Gold.PLP.part.nonpolar>  (154) 
-44.3336

>  <Gold.PLP.part.repulsive>  (154) 
0.0761

>  <Gold.PLP.ligand.clash>  (154) 
0.0000

>  <Gold.PLP.ligand.torsion>  (154) 
0.9612

>  <Gold.PLP.Chemscore.Hbond>  (154) 
2.9440

>  <Gold.PLP.Chemscore.CHOScore>  (154) 
0.0000

>  <Gold.PLP.Chemscore.Metal>  (154) 
0.0000

>  <Gold.Chemscore.Hbonds>  (154) 
donor molecule, donor type, donor heavy atom, donor atom, acceptor molecule, acceptor atom, score
      L1  H     3    23       P1  2691  0.94
      L1  H     3    25       P1  2902  2.00

>  <Gold.PLP.Chemscore.Internal.Correction>  (154) 
0.9349

>  <Gold.PLP.Constraint>  (154) 
-0.0000

>  <Gold.Protein.RotatedTorsions>  (154) 
[  681  677  676  673 ] final  -21.31 input -179.99 | X-H torsion
[  702  698  697  694 ] final   32.08 input  179.99 | X-H torsion
[ 2577 2569 2568 2566 ] final  113.64 input   -0.13 | X-H torsion
[ 2891 2887 2886 2883 ] final   39.60 input  179.98 | X-H torsion
[ 3175 3171 3170 3167 ] final  116.69 input -179.99 | X-H torsion
[ 5278 5270 5269 5267 ] final  121.29 input    0.55 | X-H torsion
[  641  637  636  633 ] final  179.78 input  179.99 | X-H torsion
[ 1886 1878 1877 1875 ] final   92.57 input    1.60 | X-H torsion
[  965  957  956  954 ] final  -85.02 input    0.45 | X-H torsion

>  <Gold.Protein.ActiveResidues>  (154) 
 LYS47   THR48   LEU49   GLY50   THR51   GLY52   SER53   PHE54   GLY55   ARG56  
 VAL57   MET58   LEU59   TYR69   ALA70   MET71   LYS72   ILE73   LEU74   GLU91  
 LEU95   VAL104  LYS105  MET118  VAL119  MET120  GLU121  TYR122  VAL123  PRO124 
 GLY125  GLY126  GLU127  MET128  PHE129  TYR164  ASP166  LEU167  LYS168  PRO169 
 GLU170  ASN171  LEU172  LEU173  ILE174  GLN181  VAL182  THR183  ASP184  PHE185 
 GLY186  PHE187  GLY200  THR201  ASN326  PHE327  TYR330  ARG18   ARG19   ASN20  
 ALA21   ILE22   HIS23  

>  <Gold.Protein.RotatedAtoms>  (154) 
   11.3505   19.3765    8.2189 H   0  0  0  0  0  0  0  0  0  0  0  0  # atno 641  bound_to 637 
   15.6917   12.7719    6.6991 H   0  0  0  0  0  0  0  0  0  0  0  0  # atno 681  bound_to 677 
   19.3504   11.8601   -1.1125 H   0  0  0  0  0  0  0  0  0  0  0  0  # atno 702  bound_to 698 
   -6.4387   16.4200   -1.5959 H   0  0  0  0  0  0  0  0  0  0  0  0  # atno 965  bound_to 957 
    1.5545   12.3091   10.7844 H   0  0  0  0  0  0  0  0  0  0  0  0  # atno 1886 bound_to 1878
    9.6216    2.0405   -2.5272 H   0  0  0  0  0  0  0  0  0  0  0  0  # atno 2577 bound_to 2569
    8.3194    5.9724    0.2137 H   0  0  0  0  0  0  0  0  0  0  0  0  # atno 2891 bound_to 2887
   17.9494    1.9461   -0.6922 H   0  0  0  0  0  0  0  0  0  0  0  0  # atno 3175 bound_to 3171
   13.7837   10.2339    8.7804 H   0  0  0  0  0  0  0  0  0  0  0  0  # atno 5278 bound_to 5270
   16.5089   13.9521    7.3885 LP  0  0  0  0  0  0  0  0  0  0  0  0  # atno 5914 bound_to 677 
   17.1493   13.1026    6.1496 LP  0  0  0  0  0  0  0  0  0  0  0  0  # atno 5915 bound_to 677 
   20.7114   11.5869   -0.3311 LP  0  0  0  0  0  0  0  0  0  0  0  0  # atno 5920 bound_to 698 
   20.6763   11.6246   -1.9633 LP  0  0  0  0  0  0  0  0  0  0  0  0  # atno 5921 bound_to 698 
    9.8321    3.3535   -3.4031 LP  0  0  0  0  0  0  0  0  0  0  0  0  # atno 5950 bound_to 2569
   11.1077    2.5623   -2.7602 LP  0  0  0  0  0  0  0  0  0  0  0  0  # atno 5951 bound_to 2569
    7.3092    5.3073    1.2499 LP  0  0  0  0  0  0  0  0  0  0  0  0  # atno 5982 bound_to 2887
    7.6099    6.9120    1.2862 LP  0  0  0  0  0  0  0  0  0  0  0  0  # atno 5983 bound_to 2887
   19.1787    2.8091   -1.2212 LP  0  0  0  0  0  0  0  0  0  0  0  0  # atno 6000 bound_to 3171
   18.8194    2.7515    0.3708 LP  0  0  0  0  0  0  0  0  0  0  0  0  # atno 6001 bound_to 3171
   12.6139    9.9474    9.8227 LP  0  0  0  0  0  0  0  0  0  0  0  0  # atno 6004 bound_to 5270
   14.1801    9.8522   10.2750 LP  0  0  0  0  0  0  0  0  0  0  0  0  # atno 6005 bound_to 5270
    9.8694   19.7195    8.6921 LP  0  0  0  0  0  0  0  0  0  0  0  0  # atno 6055 bound_to 637 
   10.1411   18.9752    7.2642 LP  0  0  0  0  0  0  0  0  0  0  0  0  # atno 6056 bound_to 637 
    2.1149   10.8946   10.3150 LP  0  0  0  0  0  0  0  0  0  0  0  0  # atno 6063 bound_to 1878
    0.6340   11.0263   10.9904 LP  0  0  0  0  0  0  0  0  0  0  0  0  # atno 6064 bound_to 1878
   -7.0642   16.9940   -0.2490 LP  0  0  0  0  0  0  0  0  0  0  0  0  # atno 6067 bound_to 957 
   -6.9627   15.3845   -0.5058 LP  0  0  0  0  0  0  0  0  0  0  0  0  # atno 6068 bound_to 957 

>  <STRIFE_LigEff_Score>  (154) 
3.0837222222222223

$$$$
unknown|pharmsElabsTestPreDocking|sdf|155|dock4
     RDKit          3D

 19 20  0  0  0  0  0  0  0  0999 V2000
    4.1736    9.9772    5.8971 C   0  0  0  0  0  0  0  0  0  0  0  0
    3.3479    9.9456    4.6179 C   0  0  0  0  0  0  0  0  0  0  0  0
    4.1850    9.5603    3.4858 N   0  0  0  0  0  0  0  0  0  0  0  0
    3.7601    9.2822    2.2378 C   0  0  0  0  0  0  0  0  0  0  0  0
    4.8537    8.9162    1.4722 C   0  0  0  0  0  0  0  0  0  0  0  0
    5.9237    8.9898    2.3478 C   0  0  0  0  0  0  0  0  0  0  0  0
    7.3026    8.6803    2.0338 N   0  0  0  0  0  0  0  0  0  0  0  0
    8.3878    9.2715    2.7809 C   0  0  0  0  0  0  0  0  0  0  0  0
    8.1359   10.1455    3.6453 O   0  0  0  0  0  0  0  0  0  0  0  0
    9.8480    8.9484    2.6334 C   0  0  0  0  0  0  0  0  0  0  0  0
   10.1169    7.5120    2.2098 C   0  0  0  0  0  0  0  0  0  0  0  0
   11.5811    7.0965    2.3000 C   0  0  0  0  0  0  0  0  0  0  0  0
   12.5673    8.2690    2.1476 C   0  0  0  0  0  0  0  0  0  0  0  0
   14.0292    7.7099    2.1451 C   0  0  0  0  0  0  0  0  0  0  0  0
   14.2761    6.8409    3.3917 C   0  0  0  0  0  0  0  0  0  0  0  0
   14.3288    6.9229    0.9408 N   0  0  0  0  0  0  0  0  0  0  0  0
   12.3149    9.2914    3.2850 C   0  0  0  0  0  0  0  0  0  0  0  0
   10.8432    9.7212    3.4777 C   0  0  0  0  0  0  0  0  0  0  0  0
    5.4919    9.3764    3.5678 N   0  0  0  0  0  0  0  0  0  0  0  0
  1  2  1  0
  2  3  1  0
  3  4  1  0
  4  5  2  0
  5  6  1  0
  6  7  1  0
  7  8  1  0
  8  9  2  0
  8 10  1  0
 10 11  1  0
 11 12  1  0
 12 13  1  0
 13 14  1  0
 14 15  1  0
 14 16  1  0
 13 17  1  0
 17 18  1  0
  6 19  2  0
 19  3  1  0
 18 10  1  0
M  CHG  1  16   1
M  END
>  <EmbedRMS>  (155) 
0.16981956966150463

>  <Gold.Version>  (155) 
2020.3.0

>  <Gold.Id.Protein>  (155) 
unknown|1q8t_protein|pdb

>  <Gold.PLP.Fitness>  (155) 
59.9609

>  <Gold.PLP.PLP>  (155) 
-46.6657

>  <Gold.PLP.part.hbond>  (155) 
-3.0000

>  <Gold.PLP.part.metal>  (155) 
0.0000

>  <Gold.PLP.part.buried>  (155) 
-2.3292

>  <Gold.PLP.part.nonpolar>  (155) 
-41.9015

>  <Gold.PLP.part.repulsive>  (155) 
0.0866

>  <Gold.PLP.ligand.clash>  (155) 
0.0000

>  <Gold.PLP.ligand.torsion>  (155) 
0.6316

>  <Gold.PLP.Chemscore.Hbond>  (155) 
3.6136

>  <Gold.PLP.Chemscore.CHOScore>  (155) 
1.0000

>  <Gold.PLP.Chemscore.Metal>  (155) 
0.0000

>  <Gold.Chemscore.Hbonds>  (155) 
donor molecule, donor type, donor heavy atom, donor atom, acceptor molecule, acceptor atom, score
      L1  H     7    27       P1  2887  0.61
      L1  H    16    38       P1  2691  1.00
      L1  H    16    39       P1  2902  2.00
      L1  C     4    25       P1  1855  1.00

>  <Gold.PLP.Chemscore.Internal.Correction>  (155) 
0.7176

>  <Gold.PLP.Constraint>  (155) 
-0.0000

>  <Gold.Protein.RotatedTorsions>  (155) 
[  681  677  676  673 ] final -117.55 input -179.99 | X-H torsion
[  702  698  697  694 ] final   69.84 input  179.99 | X-H torsion
[ 2577 2569 2568 2566 ] final  144.41 input   -0.13 | X-H torsion
[ 2891 2887 2886 2883 ] final  -12.03 input  179.98 | X-H torsion
[ 3175 3171 3170 3167 ] final  -29.96 input -179.99 | X-H torsion
[ 5278 5270 5269 5267 ] final  108.25 input    0.55 | X-H torsion
[  641  637  636  633 ] final   67.33 input  179.99 | X-H torsion
[ 1886 1878 1877 1875 ] final  -59.13 input    1.60 | X-H torsion
[  965  957  956  954 ] final   69.46 input    0.45 | X-H torsion

>  <Gold.Protein.ActiveResidues>  (155) 
 LYS47   THR48   LEU49   GLY50   THR51   GLY52   SER53   PHE54   GLY55   ARG56  
 VAL57   MET58   LEU59   TYR69   ALA70   MET71   LYS72   ILE73   LEU74   GLU91  
 LEU95   VAL104  LYS105  MET118  VAL119  MET120  GLU121  TYR122  VAL123  PRO124 
 GLY125  GLY126  GLU127  MET128  PHE129  TYR164  ASP166  LEU167  LYS168  PRO169 
 GLU170  ASN171  LEU172  LEU173  ILE174  GLN181  VAL182  THR183  ASP184  PHE185 
 GLY186  PHE187  GLY200  THR201  ASN326  PHE327  TYR330  ARG18   ARG19   ASN20  
 ALA21   ILE22   HIS23  

>  <Gold.Protein.RotatedAtoms>  (155) 
    9.9944   19.7139    8.7314 H   0  0  0  0  0  0  0  0  0  0  0  0  # atno 641  bound_to 637 
   16.1638   13.7917    7.4176 H   0  0  0  0  0  0  0  0  0  0  0  0  # atno 681  bound_to 677 
   19.5234   11.8401   -1.6658 H   0  0  0  0  0  0  0  0  0  0  0  0  # atno 702  bound_to 698 
   -7.1124   15.7521   -0.1296 H   0  0  0  0  0  0  0  0  0  0  0  0  # atno 965  bound_to 957 
    1.7093   10.6165   10.4275 H   0  0  0  0  0  0  0  0  0  0  0  0  # atno 1886 bound_to 1878
   10.0578    1.9023   -2.3992 H   0  0  0  0  0  0  0  0  0  0  0  0  # atno 2577 bound_to 2569
    7.9733    5.3168    0.4576 H   0  0  0  0  0  0  0  0  0  0  0  0  # atno 2891 bound_to 2887
   19.3324    2.9499   -0.8489 H   0  0  0  0  0  0  0  0  0  0  0  0  # atno 3175 bound_to 3171
   13.5833   10.2403    8.7459 H   0  0  0  0  0  0  0  0  0  0  0  0  # atno 5278 bound_to 5270
   17.2867   13.3994    6.3587 LP  0  0  0  0  0  0  0  0  0  0  0  0  # atno 5914 bound_to 677 
   15.8745   12.5820    6.4232 LP  0  0  0  0  0  0  0  0  0  0  0  0  # atno 5915 bound_to 677 
   20.1245   11.6884   -0.1984 LP  0  0  0  0  0  0  0  0  0  0  0  0  # atno 5920 bound_to 698 
   21.0812   11.5442   -1.5139 LP  0  0  0  0  0  0  0  0  0  0  0  0  # atno 5921 bound_to 698 
    9.4326    3.0931   -3.2515 LP  0  0  0  0  0  0  0  0  0  0  0  0  # atno 5950 bound_to 2569
   11.0478    2.9682   -3.0465 LP  0  0  0  0  0  0  0  0  0  0  0  0  # atno 5951 bound_to 2569
    7.1400    6.0222    1.6172 LP  0  0  0  0  0  0  0  0  0  0  0  0  # atno 5982 bound_to 2887
    8.1433    6.8871    0.6623 LP  0  0  0  0  0  0  0  0  0  0  0  0  # atno 5983 bound_to 2887
   18.4693    2.4974    0.4104 LP  0  0  0  0  0  0  0  0  0  0  0  0  # atno 6000 bound_to 3171
   18.0734    2.0068   -1.0960 LP  0  0  0  0  0  0  0  0  0  0  0  0  # atno 6001 bound_to 3171
   12.6874    9.9000   10.0180 LP  0  0  0  0  0  0  0  0  0  0  0  0  # atno 6004 bound_to 5270
   14.3175    9.8928   10.1159 LP  0  0  0  0  0  0  0  0  0  0  0  0  # atno 6005 bound_to 5270
   10.0280   19.0033    7.3070 LP  0  0  0  0  0  0  0  0  0  0  0  0  # atno 6055 bound_to 637 
   11.4106   19.3360    8.1097 LP  0  0  0  0  0  0  0  0  0  0  0  0  # atno 6056 bound_to 637 
    0.5881   11.5281   11.0962 LP  0  0  0  0  0  0  0  0  0  0  0  0  # atno 6063 bound_to 1878
    1.9978   12.1745   10.5849 LP  0  0  0  0  0  0  0  0  0  0  0  0  # atno 6064 bound_to 1878
   -6.4687   15.8741   -1.5807 LP  0  0  0  0  0  0  0  0  0  0  0  0  # atno 6067 bound_to 957 
   -6.8485   17.2078   -0.7183 LP  0  0  0  0  0  0  0  0  0  0  0  0  # atno 6068 bound_to 957 

>  <STRIFE_LigEff_Score>  (155) 
3.155836842105263

$$$$
unknown|pharmsElabsTestPreDocking|sdf|156|dock10
     RDKit          3D

 18 19  0  0  0  0  0  0  0  0999 V2000
   14.5955    9.1967    1.2298 C   0  0  0  0  0  0  0  0  0  0  0  0
   13.7408    7.9847    1.5603 C   0  0  0  0  0  0  0  0  0  0  0  0
   14.0061    6.8069    0.7414 N   0  0  0  0  0  0  0  0  0  0  0  0
   12.2602    8.2542    1.9684 C   0  0  0  0  0  0  0  0  0  0  0  0
   11.5804    7.2425    2.9042 C   0  0  0  0  0  0  0  0  0  0  0  0
   10.0504    7.4266    2.9027 C   0  0  0  0  0  0  0  0  0  0  0  0
    9.5880    8.8413    2.5447 C   0  0  0  0  0  0  0  0  0  0  0  0
    8.1144    9.0673    2.6816 C   0  0  0  0  0  0  0  0  0  0  0  0
    7.5772    9.4796    1.6306 O   0  0  0  0  0  0  0  0  0  0  0  0
    7.3218    8.8497    3.8720 N   0  0  0  0  0  0  0  0  0  0  0  0
    5.9121    9.2024    4.0011 C   0  0  0  0  0  0  0  0  0  0  0  0
    5.4440    9.7366    5.2171 C   0  0  0  0  0  0  0  0  0  0  0  0
    4.0980   10.0983    5.3717 C   0  0  0  0  0  0  0  0  0  0  0  0
    3.1956    9.9247    4.3215 C   0  0  0  0  0  0  0  0  0  0  0  0
    3.6345    9.4014    3.1124 C   0  0  0  0  0  0  0  0  0  0  0  0
    4.9718    9.0573    2.9439 C   0  0  0  0  0  0  0  0  0  0  0  0
   10.5188   10.0290    2.7008 C   0  0  0  0  0  0  0  0  0  0  0  0
   12.0087    9.6882    2.4826 C   0  0  0  0  0  0  0  0  0  0  0  0
  1  2  1  0
  2  3  1  0
  2  4  1  0
  4  5  1  0
  5  6  1  0
  6  7  1  0
  7  8  1  0
  8  9  2  0
  8 10  1  0
 10 11  1  0
 11 12  2  0
 12 13  1  0
 13 14  2  0
 14 15  1  0
 15 16  2  0
  7 17  1  0
 17 18  1  0
 18  4  1  0
 16 11  1  0
M  CHG  1   3   1
M  END
>  <EmbedRMS>  (156) 
0.24964892458419108

>  <Gold.Version>  (156) 
2020.3.0

>  <Gold.Id.Protein>  (156) 
unknown|1q8t_protein|pdb

>  <Gold.PLP.Fitness>  (156) 
54.4203

>  <Gold.PLP.PLP>  (156) 
-46.7737

>  <Gold.PLP.part.hbond>  (156) 
-1.9761

>  <Gold.PLP.part.metal>  (156) 
0.0000

>  <Gold.PLP.part.buried>  (156) 
-1.6603

>  <Gold.PLP.part.nonpolar>  (156) 
-43.8816

>  <Gold.PLP.part.repulsive>  (156) 
0.0947

>  <Gold.PLP.ligand.clash>  (156) 
0.0000

>  <Gold.PLP.ligand.torsion>  (156) 
1.1434

>  <Gold.PLP.Chemscore.Hbond>  (156) 
3.0000

>  <Gold.PLP.Chemscore.CHOScore>  (156) 
0.0000

>  <Gold.PLP.Chemscore.Metal>  (156) 
0.0000

>  <Gold.Chemscore.Hbonds>  (156) 
donor molecule, donor type, donor heavy atom, donor atom, acceptor molecule, acceptor atom, score
      L1  H     3    24       P1  2902  2.00
      L1  H     3    25       P1  2691  1.00

>  <Gold.PLP.Chemscore.Internal.Correction>  (156) 
0.9335

>  <Gold.PLP.Constraint>  (156) 
-0.0000

>  <Gold.Protein.RotatedTorsions>  (156) 
[  681  677  676  673 ] final  -81.81 input -179.99 | X-H torsion
[  702  698  697  694 ] final  120.70 input  179.99 | X-H torsion
[ 2577 2569 2568 2566 ] final -123.66 input   -0.13 | X-H torsion
[ 2891 2887 2886 2883 ] final  171.28 input  179.98 | X-H torsion
[ 3175 3171 3170 3167 ] final   40.40 input -179.99 | X-H torsion
[ 5278 5270 5269 5267 ] final  150.20 input    0.55 | X-H torsion
[  641  637  636  633 ] final  -30.46 input  179.99 | X-H torsion
[ 1886 1878 1877 1875 ] final  -11.50 input    1.60 | X-H torsion
[  965  957  956  954 ] final   64.84 input    0.45 | X-H torsion

>  <Gold.Protein.ActiveResidues>  (156) 
 LYS47   THR48   LEU49   GLY50   THR51   GLY52   SER53   PHE54   GLY55   ARG56  
 VAL57   MET58   LEU59   TYR69   ALA70   MET71   LYS72   ILE73   LEU74   GLU91  
 LEU95   VAL104  LYS105  MET118  VAL119  MET120  GLU121  TYR122  VAL123  PRO124 
 GLY125  GLY126  GLU127  MET128  PHE129  TYR164  ASP166  LEU167  LYS168  PRO169 
 GLU170  ASN171  LEU172  LEU173  ILE174  GLN181  VAL182  THR183  ASP184  PHE185 
 GLY186  PHE187  GLY200  THR201  ASN326  PHE327  TYR330  ARG18   ARG19   ASN20  
 ALA21   ILE22   HIS23  

>  <Gold.Protein.RotatedAtoms>  (156) 
    9.7820   19.1174    7.5399 H   0  0  0  0  0  0  0  0  0  0  0  0  # atno 641  bound_to 637 
   15.7620   13.4323    7.3103 H   0  0  0  0  0  0  0  0  0  0  0  0  # atno 681  bound_to 677 
   20.1922   11.7286   -2.0300 H   0  0  0  0  0  0  0  0  0  0  0  0  # atno 702  bound_to 698 
   -7.0946   15.6948   -0.1699 H   0  0  0  0  0  0  0  0  0  0  0  0  # atno 965  bound_to 957 
    2.1901   11.1428   10.3053 H   0  0  0  0  0  0  0  0  0  0  0  0  # atno 1886 bound_to 1878
   11.0672    2.5915   -2.8038 H   0  0  0  0  0  0  0  0  0  0  0  0  # atno 2577 bound_to 2569
    7.4912    6.7825    1.3671 H   0  0  0  0  0  0  0  0  0  0  0  0  # atno 2891 bound_to 2887
   18.6708    2.3869   -1.4061 H   0  0  0  0  0  0  0  0  0  0  0  0  # atno 3175 bound_to 3171
   14.1675   10.1826    9.0043 H   0  0  0  0  0  0  0  0  0  0  0  0  # atno 5278 bound_to 5270
   17.2222   13.7872    6.7832 LP  0  0  0  0  0  0  0  0  0  0  0  0  # atno 5914 bound_to 677 
   16.3620   12.5724    6.1117 LP  0  0  0  0  0  0  0  0  0  0  0  0  # atno 5915 bound_to 677 
   19.4480   11.8165   -0.6244 LP  0  0  0  0  0  0  0  0  0  0  0  0  # atno 5920 bound_to 698 
   21.0542   11.5334   -0.7048 LP  0  0  0  0  0  0  0  0  0  0  0  0  # atno 5921 bound_to 698 
    9.6265    1.9977   -2.4768 LP  0  0  0  0  0  0  0  0  0  0  0  0  # atno 5950 bound_to 2569
    9.7911    3.3379   -3.3952 LP  0  0  0  0  0  0  0  0  0  0  0  0  # atno 5951 bound_to 2569
    8.3843    6.1544    0.2076 LP  0  0  0  0  0  0  0  0  0  0  0  0  # atno 5982 bound_to 2887
    7.4064    5.2123    1.1146 LP  0  0  0  0  0  0  0  0  0  0  0  0  # atno 5983 bound_to 2887
   19.2771    3.0312   -0.0821 LP  0  0  0  0  0  0  0  0  0  0  0  0  # atno 6000 bound_to 3171
   17.9618    2.0655   -0.0170 LP  0  0  0  0  0  0  0  0  0  0  0  0  # atno 6001 bound_to 3171
   12.6212   10.0601    9.3658 LP  0  0  0  0  0  0  0  0  0  0  0  0  # atno 6004 bound_to 5270
   13.7689    9.7933   10.4963 LP  0  0  0  0  0  0  0  0  0  0  0  0  # atno 6005 bound_to 5270
   11.3535   19.1754    7.7891 LP  0  0  0  0  0  0  0  0  0  0  0  0  # atno 6055 bound_to 637 
   10.3089   19.7921    8.8824 LP  0  0  0  0  0  0  0  0  0  0  0  0  # atno 6056 bound_to 637 
    0.7516   10.8104   10.9017 LP  0  0  0  0  0  0  0  0  0  0  0  0  # atno 6063 bound_to 1878
    1.3282   12.3382   10.9081 LP  0  0  0  0  0  0  0  0  0  0  0  0  # atno 6064 bound_to 1878
   -6.4562   15.9445   -1.6069 LP  0  0  0  0  0  0  0  0  0  0  0  0  # atno 6067 bound_to 957 
   -6.8799   17.1978   -0.6497 LP  0  0  0  0  0  0  0  0  0  0  0  0  # atno 6068 bound_to 957 

>  <STRIFE_LigEff_Score>  (156) 
3.0233499999999998

$$$$
unknown|pharmsElabsTestPreDocking|sdf|157|dock5
     RDKit          3D

 16 16  0  0  0  0  0  0  0  0999 V2000
   15.1402    7.9872    2.7736 C   0  0  0  0  0  0  0  0  0  0  0  0
   14.0277    8.0020    1.7117 C   0  0  0  0  0  0  0  0  0  0  0  0
   14.1791    6.8582    0.8073 N   0  0  0  0  0  0  0  0  0  0  0  0
   12.5579    8.1587    2.2437 C   0  0  0  0  0  0  0  0  0  0  0  0
   11.5221    7.3554    1.4582 C   0  0  0  0  0  0  0  0  0  0  0  0
   10.0969    7.4513    1.9814 C   0  0  0  0  0  0  0  0  0  0  0  0
    9.7160    8.8485    2.4101 C   0  0  0  0  0  0  0  0  0  0  0  0
    8.2431    9.0371    2.6402 C   0  0  0  0  0  0  0  0  0  0  0  0
    7.5509    8.8975    1.6071 O   0  0  0  0  0  0  0  0  0  0  0  0
    7.6020    9.3348    3.8999 N   0  0  0  0  0  0  0  0  0  0  0  0
    6.1910    9.6681    4.0261 C   0  0  0  0  0  0  0  0  0  0  0  0
    5.2048    9.4957    2.7275 S   0  0  0  0  0  0  0  0  0  0  0  0
    5.5203    9.9796    5.3444 C   0  0  0  0  0  0  0  0  0  0  0  0
    3.7210   10.1066    5.1177 S   0  0  0  0  0  0  0  0  0  0  0  0
   10.6801    9.5909    3.3060 C   0  0  0  0  0  0  0  0  0  0  0  0
   12.1157    9.5434    2.7577 C   0  0  0  0  0  0  0  0  0  0  0  0
  1  2  1  0
  2  3  1  0
  2  4  1  0
  4  5  1  0
  5  6  1  0
  6  7  1  0
  7  8  1  0
  8  9  2  0
  8 10  1  0
 10 11  1  0
 11 12  2  0
 11 13  1  0
 13 14  1  0
  7 15  1  0
 15 16  1  0
 16  4  1  0
M  CHG  1   3   1
M  END
>  <EmbedRMS>  (157) 
0.2776559693615689

>  <Gold.Version>  (157) 
2020.3.0

>  <Gold.Id.Protein>  (157) 
unknown|1q8t_protein|pdb

>  <Gold.PLP.Fitness>  (157) 
48.2211

>  <Gold.PLP.PLP>  (157) 
-37.6670

>  <Gold.PLP.part.hbond>  (157) 
-3.0000

>  <Gold.PLP.part.metal>  (157) 
0.0000

>  <Gold.PLP.part.buried>  (157) 
-0.5132

>  <Gold.PLP.part.nonpolar>  (157) 
-33.3884

>  <Gold.PLP.part.repulsive>  (157) 
0.0927

>  <Gold.PLP.ligand.clash>  (157) 
0.0000

>  <Gold.PLP.ligand.torsion>  (157) 
1.1552

>  <Gold.PLP.Chemscore.Hbond>  (157) 
4.0000

>  <Gold.PLP.Chemscore.CHOScore>  (157) 
0.0000

>  <Gold.PLP.Chemscore.Metal>  (157) 
0.0000

>  <Gold.Chemscore.Hbonds>  (157) 
donor molecule, donor type, donor heavy atom, donor atom, acceptor molecule, acceptor atom, score
      L1  H     3    21       P1  2902  2.00
      L1  H     3    22       P1  2691  1.00
      P1  H  2887  2891       L1     9  1.00

>  <Gold.PLP.Chemscore.Internal.Correction>  (157) 
0.8645

>  <Gold.PLP.Constraint>  (157) 
-0.0000

>  <Gold.Protein.RotatedTorsions>  (157) 
[  681  677  676  673 ] final  -49.79 input -179.99 | X-H torsion
[  702  698  697  694 ] final   22.88 input  179.99 | X-H torsion
[ 2577 2569 2568 2566 ] final    2.90 input   -0.13 | X-H torsion
[ 2891 2887 2886 2883 ] final  155.61 input  179.98 | X-H torsion
[ 3175 3171 3170 3167 ] final   -1.72 input -179.99 | X-H torsion
[ 5278 5270 5269 5267 ] final   48.34 input    0.55 | X-H torsion
[  641  637  636  633 ] final  -11.55 input  179.99 | X-H torsion
[ 1886 1878 1877 1875 ] final -158.21 input    1.60 | X-H torsion
[  965  957  956  954 ] final -108.80 input    0.45 | X-H torsion

>  <Gold.Protein.ActiveResidues>  (157) 
 LYS47   THR48   LEU49   GLY50   THR51   GLY52   SER53   PHE54   GLY55   ARG56  
 VAL57   MET58   LEU59   TYR69   ALA70   MET71   LYS72   ILE73   LEU74   GLU91  
 LEU95   VAL104  LYS105  MET118  VAL119  MET120  GLU121  TYR122  VAL123  PRO124 
 GLY125  GLY126  GLU127  MET128  PHE129  TYR164  ASP166  LEU167  LYS168  PRO169 
 GLU170  ASN171  LEU172  LEU173  ILE174  GLN181  VAL182  THR183  ASP184  PHE185 
 GLY186  PHE187  GLY200  THR201  ASN326  PHE327  TYR330  ARG18   ARG19   ASN20  
 ALA21   ILE22   HIS23  

>  <Gold.Protein.RotatedAtoms>  (157) 
    9.6334   19.2394    7.7626 H   0  0  0  0  0  0  0  0  0  0  0  0  # atno 641  bound_to 637 
   15.6138   13.0549    7.0279 H   0  0  0  0  0  0  0  0  0  0  0  0  # atno 681  bound_to 677 
   19.3649   11.8548   -0.9694 H   0  0  0  0  0  0  0  0  0  0  0  0  # atno 702  bound_to 698 
   -6.4923   16.7629   -1.4710 H   0  0  0  0  0  0  0  0  0  0  0  0  # atno 965  bound_to 957 
    0.6249   11.2051   11.0059 H   0  0  0  0  0  0  0  0  0  0  0  0  # atno 1886 bound_to 1878
    9.7208    3.2516   -3.3609 H   0  0  0  0  0  0  0  0  0  0  0  0  # atno 2577 bound_to 2569
    7.6456    6.8954    1.2153 H   0  0  0  0  0  0  0  0  0  0  0  0  # atno 2891 bound_to 2887
   19.1476    2.7671   -1.2003 H   0  0  0  0  0  0  0  0  0  0  0  0  # atno 3175 bound_to 3171
   12.7829   10.1366    9.1324 H   0  0  0  0  0  0  0  0  0  0  0  0  # atno 5278 bound_to 5270
   16.9107   13.9700    7.1574 LP  0  0  0  0  0  0  0  0  0  0  0  0  # atno 5914 bound_to 677 
   16.8295   12.7869    6.0347 LP  0  0  0  0  0  0  0  0  0  0  0  0  # atno 5915 bound_to 677 
   20.8322   11.5672   -0.4201 LP  0  0  0  0  0  0  0  0  0  0  0  0  # atno 5920 bound_to 698 
   20.5404   11.6499   -2.0247 LP  0  0  0  0  0  0  0  0  0  0  0  0  # atno 5921 bound_to 698 
   11.1180    2.6873   -2.8463 LP  0  0  0  0  0  0  0  0  0  0  0  0  # atno 5950 bound_to 2569
    9.7173    1.9532   -2.4392 LP  0  0  0  0  0  0  0  0  0  0  0  0  # atno 5951 bound_to 2569
    8.3481    5.9007    0.1888 LP  0  0  0  0  0  0  0  0  0  0  0  0  # atno 5982 bound_to 2887
    7.2801    5.3472    1.2932 LP  0  0  0  0  0  0  0  0  0  0  0  0  # atno 5983 bound_to 2887
   18.8399    2.7656    0.3621 LP  0  0  0  0  0  0  0  0  0  0  0  0  # atno 6000 bound_to 3171
   17.8971    1.9311   -0.6778 LP  0  0  0  0  0  0  0  0  0  0  0  0  # atno 6001 bound_to 3171
   13.4731    9.7834   10.5237 LP  0  0  0  0  0  0  0  0  0  0  0  0  # atno 6004 bound_to 5270
   14.3739   10.1184    9.2035 LP  0  0  0  0  0  0  0  0  0  0  0  0  # atno 6005 bound_to 5270
   11.2005   19.0597    7.5457 LP  0  0  0  0  0  0  0  0  0  0  0  0  # atno 6055 bound_to 637 
   10.6183   19.7792    8.8911 LP  0  0  0  0  0  0  0  0  0  0  0  0  # atno 6056 bound_to 637 
    1.7254   12.3224   10.7303 LP  0  0  0  0  0  0  0  0  0  0  0  0  # atno 6063 bound_to 1878
    2.0021   10.7606   10.3419 LP  0  0  0  0  0  0  0  0  0  0  0  0  # atno 6064 bound_to 1878
   -7.1665   16.6895   -0.0305 LP  0  0  0  0  0  0  0  0  0  0  0  0  # atno 6067 bound_to 957 
   -6.8039   15.3278   -0.8558 LP  0  0  0  0  0  0  0  0  0  0  0  0  # atno 6068 bound_to 957 

>  <STRIFE_LigEff_Score>  (157) 
3.01381875

$$$$
unknown|pharmsElabsTestPreDocking|sdf|158|dock8
     RDKit          3D

 17 17  0  0  0  0  0  0  0  0999 V2000
    3.3003    8.6300    2.1787 C   0  0  0  0  0  0  0  0  0  0  0  0
    4.6113    8.8797    2.1401 C   0  0  0  0  0  0  0  0  0  0  0  0
    5.4808    9.1366    3.3141 C   0  0  0  0  0  0  0  0  0  0  0  0
    4.9648    9.7351    4.4150 C   0  0  0  0  0  0  0  0  0  0  0  0
    5.7680   10.1027    5.6253 C   0  0  0  0  0  0  0  0  0  0  0  0
    6.9065    8.8754    3.2585 N   0  0  0  0  0  0  0  0  0  0  0  0
    7.9523    9.2926    2.3496 C   0  0  0  0  0  0  0  0  0  0  0  0
    7.6268   10.0998    1.4413 O   0  0  0  0  0  0  0  0  0  0  0  0
    9.4218    8.9706    2.3674 C   0  0  0  0  0  0  0  0  0  0  0  0
    9.7414    7.5240    2.7049 C   0  0  0  0  0  0  0  0  0  0  0  0
   11.1885    7.1473    2.4631 C   0  0  0  0  0  0  0  0  0  0  0  0
   12.2544    8.2191    2.7125 C   0  0  0  0  0  0  0  0  0  0  0  0
   13.5889    7.9188    1.9861 C   0  0  0  0  0  0  0  0  0  0  0  0
   14.5481    9.0789    1.7194 C   0  0  0  0  0  0  0  0  0  0  0  0
   13.4096    7.0659    0.8102 N   0  0  0  0  0  0  0  0  0  0  0  0
   11.8353    9.6895    2.4653 C   0  0  0  0  0  0  0  0  0  0  0  0
   10.3881   10.0546    2.7667 C   0  0  0  0  0  0  0  0  0  0  0  0
  1  2  2  0
  2  3  1  0
  3  4  2  0
  4  5  1  0
  3  6  1  0
  6  7  1  0
  7  8  2  0
  7  9  1  0
  9 10  1  0
 10 11  1  0
 11 12  1  0
 12 13  1  0
 13 14  1  0
 13 15  1  0
 12 16  1  0
 16 17  1  0
 17  9  1  0
M  CHG  1  15   1
M  END
>  <EmbedRMS>  (158) 
0.29216731409503444

>  <Gold.Version>  (158) 
2020.3.0

>  <Gold.Id.Protein>  (158) 
unknown|1q8t_protein|pdb

>  <Gold.PLP.Fitness>  (158) 
45.2055

>  <Gold.PLP.PLP>  (158) 
-39.3595

>  <Gold.PLP.part.hbond>  (158) 
-1.7155

>  <Gold.PLP.part.metal>  (158) 
0.0000

>  <Gold.PLP.part.buried>  (158) 
-2.5989

>  <Gold.PLP.part.nonpolar>  (158) 
-35.2226

>  <Gold.PLP.part.repulsive>  (158) 
0.0541

>  <Gold.PLP.ligand.clash>  (158) 
0.0000

>  <Gold.PLP.ligand.torsion>  (158) 
1.9782

>  <Gold.PLP.Chemscore.Hbond>  (158) 
2.9675

>  <Gold.PLP.Chemscore.CHOScore>  (158) 
0.0000

>  <Gold.PLP.Chemscore.Metal>  (158) 
0.0000

>  <Gold.Chemscore.Hbonds>  (158) 
donor molecule, donor type, donor heavy atom, donor atom, acceptor molecule, acceptor atom, score
      L1  H    15    36       P1  2691  0.97
      L1  H    15    38       P1  2902  2.00

>  <Gold.PLP.Chemscore.Internal.Correction>  (158) 
0.9000

>  <Gold.PLP.Constraint>  (158) 
-0.0000

>  <Gold.Protein.RotatedTorsions>  (158) 
[  681  677  676  673 ] final  -55.67 input -179.99 | X-H torsion
[  702  698  697  694 ] final   51.35 input  179.99 | X-H torsion
[ 2577 2569 2568 2566 ] final   59.26 input   -0.13 | X-H torsion
[ 2891 2887 2886 2883 ] final  -11.32 input  179.98 | X-H torsion
[ 3175 3171 3170 3167 ] final -114.79 input -179.99 | X-H torsion
[ 5278 5270 5269 5267 ] final  -58.47 input    0.55 | X-H torsion
[  641  637  636  633 ] final   42.60 input  179.99 | X-H torsion
[ 1886 1878 1877 1875 ] final  160.93 input    1.60 | X-H torsion
[  965  957  956  954 ] final   86.93 input    0.45 | X-H torsion

>  <Gold.Protein.ActiveResidues>  (158) 
 LYS47   THR48   LEU49   GLY50   THR51   GLY52   SER53   PHE54   GLY55   ARG56  
 VAL57   MET58   LEU59   TYR69   ALA70   MET71   LYS72   ILE73   LEU74   GLU91  
 LEU95   VAL104  LYS105  MET118  VAL119  MET120  GLU121  TYR122  VAL123  PRO124 
 GLY125  GLY126  GLU127  MET128  PHE129  TYR164  ASP166  LEU167  LYS168  PRO169 
 GLU170  ASN171  LEU172  LEU173  ILE174  GLN181  VAL182  THR183  ASP184  PHE185 
 GLY186  PHE187  GLY200  THR201  ASN326  PHE327  TYR330  ARG18   ARG19   ASN20  
 ALA21   ILE22   HIS23  

>  <Gold.Protein.RotatedAtoms>  (158) 
    9.7208   19.6041    8.4863 H   0  0  0  0  0  0  0  0  0  0  0  0  # atno 641  bound_to 637 
   15.6227   13.1225    7.0894 H   0  0  0  0  0  0  0  0  0  0  0  0  # atno 681  bound_to 677 
   19.3935   11.8582   -1.4093 H   0  0  0  0  0  0  0  0  0  0  0  0  # atno 702  bound_to 698 
   -7.1608   15.9954   -0.0183 H   0  0  0  0  0  0  0  0  0  0  0  0  # atno 965  bound_to 957 
    0.7223   11.8196   11.0678 H   0  0  0  0  0  0  0  0  0  0  0  0  # atno 1886 bound_to 1878
    9.2853    2.6416   -2.9692 H   0  0  0  0  0  0  0  0  0  0  0  0  # atno 2577 bound_to 2569
    7.9802    5.3228    0.4511 H   0  0  0  0  0  0  0  0  0  0  0  0  # atno 2891 bound_to 2887
   18.9223    2.7936    0.2768 H   0  0  0  0  0  0  0  0  0  0  0  0  # atno 3175 bound_to 3171
   13.2731    9.8175   10.4469 H   0  0  0  0  0  0  0  0  0  0  0  0  # atno 5278 bound_to 5270
   16.9822   13.9517    7.0950 LP  0  0  0  0  0  0  0  0  0  0  0  0  # atno 5914 bound_to 677 
   16.7486   12.7340    6.0324 LP  0  0  0  0  0  0  0  0  0  0  0  0  # atno 5915 bound_to 677 
   20.4226   11.6359   -0.2139 LP  0  0  0  0  0  0  0  0  0  0  0  0  # atno 5920 bound_to 698 
   20.9199   11.5777   -1.7682 LP  0  0  0  0  0  0  0  0  0  0  0  0  # atno 5921 bound_to 698 
   10.6879    3.3127   -3.3120 LP  0  0  0  0  0  0  0  0  0  0  0  0  # atno 5950 bound_to 2569
   10.6060    1.9702   -2.3859 LP  0  0  0  0  0  0  0  0  0  0  0  0  # atno 5951 bound_to 2569
    7.1390    6.0105    1.6156 LP  0  0  0  0  0  0  0  0  0  0  0  0  # atno 5982 bound_to 2887
    8.1371    6.8924    0.6708 LP  0  0  0  0  0  0  0  0  0  0  0  0  # atno 5983 bound_to 2887
   17.8799    1.9331   -0.5650 LP  0  0  0  0  0  0  0  0  0  0  0  0  # atno 6000 bound_to 3171
   19.0943    2.7356   -1.3052 LP  0  0  0  0  0  0  0  0  0  0  0  0  # atno 6001 bound_to 3171
   14.4478   10.0704    9.4015 LP  0  0  0  0  0  0  0  0  0  0  0  0  # atno 6004 bound_to 5270
   12.8836   10.1672    8.9427 LP  0  0  0  0  0  0  0  0  0  0  0  0  # atno 6005 bound_to 5270
   10.4164   18.9367    7.2191 LP  0  0  0  0  0  0  0  0  0  0  0  0  # atno 6055 bound_to 637 
   11.3104   19.5182    8.4557 LP  0  0  0  0  0  0  0  0  0  0  0  0  # atno 6056 bound_to 637 
    2.1893   11.9411   10.4607 LP  0  0  0  0  0  0  0  0  0  0  0  0  # atno 6063 bound_to 1878
    1.4356   10.4950   10.5463 LP  0  0  0  0  0  0  0  0  0  0  0  0  # atno 6064 bound_to 1878
   -6.5361   15.6354   -1.4378 LP  0  0  0  0  0  0  0  0  0  0  0  0  # atno 6067 bound_to 957 
   -6.7303   17.1903   -0.9785 LP  0  0  0  0  0  0  0  0  0  0  0  0  # atno 6068 bound_to 957 

>  <STRIFE_LigEff_Score>  (158) 
2.6591470588235295

$$$$
unknown|pharmsElabsTestPreDocking|sdf|159|dock2
     RDKit          3D

 19 20  0  0  0  0  0  0  0  0999 V2000
   13.8455    7.5481    2.7500 C   0  0  0  0  0  0  0  0  0  0  0  0
   13.5769    8.8987    2.0616 C   0  0  0  0  0  0  0  0  0  0  0  0
   14.1974    8.8937    0.7297 N   0  0  0  0  0  0  0  0  0  0  0  0
   12.0400    9.1887    2.0056 C   0  0  0  0  0  0  0  0  0  0  0  0
   11.3199    7.9681    1.4037 C   0  0  0  0  0  0  0  0  0  0  0  0
    9.8233    8.1778    1.2023 C   0  0  0  0  0  0  0  0  0  0  0  0
    9.2014    9.1876    2.1548 C   0  0  0  0  0  0  0  0  0  0  0  0
    7.7011    9.2008    2.1224 C   0  0  0  0  0  0  0  0  0  0  0  0
    7.1542    8.1755    2.5979 O   0  0  0  0  0  0  0  0  0  0  0  0
    6.8695   10.2553    1.6059 N   0  0  0  0  0  0  0  0  0  0  0  0
    5.4156   10.0330    1.5585 C   0  0  0  0  0  0  0  0  0  0  0  0
    4.8165    9.9258    2.9276 C   0  0  0  0  0  0  0  0  0  0  0  0
    5.6077   10.1214    4.0671 C   0  0  0  0  0  0  0  0  0  0  0  0
    5.0335   10.0337    5.3355 C   0  0  0  0  0  0  0  0  0  0  0  0
    3.6706    9.7527    5.4509 C   0  0  0  0  0  0  0  0  0  0  0  0
    2.9161    9.5645    4.3355 N   0  0  0  0  0  0  0  0  0  0  0  0
    3.4527    9.6442    3.0891 C   0  0  0  0  0  0  0  0  0  0  0  0
    9.8917    9.5821    3.4464 C   0  0  0  0  0  0  0  0  0  0  0  0
   11.4335    9.4961    3.3986 C   0  0  0  0  0  0  0  0  0  0  0  0
  1  2  1  0
  2  3  1  0
  2  4  1  0
  4  5  1  0
  5  6  1  0
  6  7  1  0
  7  8  1  0
  8  9  2  0
  8 10  1  0
 10 11  1  0
 11 12  1  0
 12 13  2  0
 13 14  1  0
 14 15  2  0
 15 16  1  0
 16 17  2  0
  7 18  1  0
 18 19  1  0
 19  4  1  0
 17 12  1  0
M  CHG  1   3   1
M  END
>  <EmbedRMS>  (159) 
0.17084101544492625

>  <Gold.Version>  (159) 
2020.3.0

>  <Gold.Id.Protein>  (159) 
unknown|1q8t_protein|pdb

>  <Gold.PLP.Fitness>  (159) 
62.8213

>  <Gold.PLP.PLP>  (159) 
-45.6513

>  <Gold.PLP.part.hbond>  (159) 
-3.0000

>  <Gold.PLP.part.metal>  (159) 
0.0000

>  <Gold.PLP.part.buried>  (159) 
-1.7227

>  <Gold.PLP.part.nonpolar>  (159) 
-42.1604

>  <Gold.PLP.part.repulsive>  (159) 
0.1553

>  <Gold.PLP.ligand.clash>  (159) 
0.0000

>  <Gold.PLP.ligand.torsion>  (159) 
0.5410

>  <Gold.PLP.Chemscore.Hbond>  (159) 
4.0000

>  <Gold.PLP.Chemscore.CHOScore>  (159) 
1.8447

>  <Gold.PLP.Chemscore.Metal>  (159) 
0.0000

>  <Gold.Chemscore.Hbonds>  (159) 
donor molecule, donor type, donor heavy atom, donor atom, acceptor molecule, acceptor atom, score
      L1  H     3    26       P1  2902  2.00
      P1  H  2887  2891       L1     9  1.00
      P1  H  1888  1903       L1    16  1.00
      L1  C    15    38       P1  1891  0.88
      L1  C    17    39       P1  1855  0.97

>  <Gold.PLP.Chemscore.Internal.Correction>  (159) 
0.7180

>  <Gold.PLP.Constraint>  (159) 
-0.0000

>  <Gold.Protein.RotatedTorsions>  (159) 
[  681  677  676  673 ] final  161.56 input -179.99 | X-H torsion
[  702  698  697  694 ] final   81.08 input  179.99 | X-H torsion
[ 2577 2569 2568 2566 ] final  147.44 input   -0.13 | X-H torsion
[ 2891 2887 2886 2883 ] final -167.42 input  179.98 | X-H torsion
[ 3175 3171 3170 3167 ] final  -74.83 input -179.99 | X-H torsion
[ 5278 5270 5269 5267 ] final    3.45 input    0.55 | X-H torsion
[  641  637  636  633 ] final   30.81 input  179.99 | X-H torsion
[ 1886 1878 1877 1875 ] final  -96.58 input    1.60 | X-H torsion
[  965  957  956  954 ] final -135.31 input    0.45 | X-H torsion

>  <Gold.Protein.ActiveResidues>  (159) 
 LYS47   THR48   LEU49   GLY50   THR51   GLY52   SER53   PHE54   GLY55   ARG56  
 VAL57   MET58   LEU59   TYR69   ALA70   MET71   LYS72   ILE73   LEU74   GLU91  
 LEU95   VAL104  LYS105  MET118  VAL119  MET120  GLU121  TYR122  VAL123  PRO124 
 GLY125  GLY126  GLU127  MET128  PHE129  TYR164  ASP166  LEU167  LYS168  PRO169 
 GLU170  ASN171  LEU172  LEU173  ILE174  GLN181  VAL182  THR183  ASP184  PHE185 
 GLY186  PHE187  GLY200  THR201  ASN326  PHE327  TYR330  ARG18   ARG19   ASN20  
 ALA21   ILE22   HIS23  

>  <Gold.Protein.RotatedAtoms>  (159) 
    9.6364   19.5335    8.3388 H   0  0  0  0  0  0  0  0  0  0  0  0  # atno 641  bound_to 637 
   17.1549   13.7987    6.8106 H   0  0  0  0  0  0  0  0  0  0  0  0  # atno 681  bound_to 677 
   19.6393   11.8221   -1.7962 H   0  0  0  0  0  0  0  0  0  0  0  0  # atno 702  bound_to 698 
   -6.6140   17.0442   -1.1977 H   0  0  0  0  0  0  0  0  0  0  0  0  # atno 965  bound_to 957 
    1.1820   10.5681   10.6517 H   0  0  0  0  0  0  0  0  0  0  0  0  # atno 1886 bound_to 1878
   10.1048    1.8997   -2.3940 H   0  0  0  0  0  0  0  0  0  0  0  0  # atno 2577 bound_to 2569
    7.3139    6.5456    1.5158 H   0  0  0  0  0  0  0  0  0  0  0  0  # atno 2891 bound_to 2887
   19.2851    3.0039   -0.1690 H   0  0  0  0  0  0  0  0  0  0  0  0  # atno 3175 bound_to 3171
   12.6519    9.9745    9.7840 H   0  0  0  0  0  0  0  0  0  0  0  0  # atno 5278 bound_to 5270
   16.4127   12.5858    6.0935 LP  0  0  0  0  0  0  0  0  0  0  0  0  # atno 5914 bound_to 677 
   15.7055   13.3883    7.3273 LP  0  0  0  0  0  0  0  0  0  0  0  0  # atno 5915 bound_to 677 
   19.9469   11.7206   -0.2366 LP  0  0  0  0  0  0  0  0  0  0  0  0  # atno 5920 bound_to 698 
   21.1370   11.5309   -1.3385 LP  0  0  0  0  0  0  0  0  0  0  0  0  # atno 5921 bound_to 698 
    9.4032    3.0590   -3.2300 LP  0  0  0  0  0  0  0  0  0  0  0  0  # atno 5950 bound_to 2569
   11.0278    3.0050   -3.0735 LP  0  0  0  0  0  0  0  0  0  0  0  0  # atno 5951 bound_to 2569
    8.3592    6.4848    0.3158 LP  0  0  0  0  0  0  0  0  0  0  0  0  # atno 5982 bound_to 2887
    7.6182    5.1312    0.8499 LP  0  0  0  0  0  0  0  0  0  0  0  0  # atno 5983 bound_to 2887
   17.9938    2.0976    0.0473 LP  0  0  0  0  0  0  0  0  0  0  0  0  # atno 6000 bound_to 3171
   18.5987    2.3498   -1.4484 LP  0  0  0  0  0  0  0  0  0  0  0  0  # atno 6001 bound_to 3171
   14.1538    9.8461   10.2983 LP  0  0  0  0  0  0  0  0  0  0  0  0  # atno 6004 bound_to 5270
   13.8311   10.2263    8.7434 LP  0  0  0  0  0  0  0  0  0  0  0  0  # atno 6005 bound_to 5270
   10.6097   18.9323    7.2315 LP  0  0  0  0  0  0  0  0  0  0  0  0  # atno 6055 bound_to 637 
   11.2059   19.5971    8.5986 LP  0  0  0  0  0  0  0  0  0  0  0  0  # atno 6056 bound_to 637 
    0.8572   12.0697   11.0699 LP  0  0  0  0  0  0  0  0  0  0  0  0  # atno 6063 bound_to 1878
    2.2838   11.6839   10.3752 LP  0  0  0  0  0  0  0  0  0  0  0  0  # atno 6064 bound_to 1878
   -7.2109   16.2686    0.0581 LP  0  0  0  0  0  0  0  0  0  0  0  0  # atno 6067 bound_to 957 
   -6.6314   15.4525   -1.2322 LP  0  0  0  0  0  0  0  0  0  0  0  0  # atno 6068 bound_to 957 

>  <STRIFE_LigEff_Score>  (159) 
3.306384210526316

$$$$
unknown|pharmsElabsTestPreDocking|sdf|160|dock10
     RDKit          3D

 18 18  0  0  0  0  0  0  0  0999 V2000
    4.6060    9.1720    1.2719 C   0  0  0  0  0  0  0  0  0  0  0  0
    4.1034    9.3336    2.4972 C   0  0  0  0  0  0  0  0  0  0  0  0
    2.6873    9.4986    2.6633 N   0  0  0  0  0  0  0  0  0  0  0  0
    5.0210    9.4290    3.6667 C   0  0  0  0  0  0  0  0  0  0  0  0
    4.6832   10.2091    4.7097 C   0  0  0  0  0  0  0  0  0  0  0  0
    5.5622   10.3962    5.9075 C   0  0  0  0  0  0  0  0  0  0  0  0
    6.3286    8.8257    3.6361 N   0  0  0  0  0  0  0  0  0  0  0  0
    7.4170    9.2492    2.8058 C   0  0  0  0  0  0  0  0  0  0  0  0
    7.2467   10.1257    1.9120 O   0  0  0  0  0  0  0  0  0  0  0  0
    8.7730    8.6330    3.0290 C   0  0  0  0  0  0  0  0  0  0  0  0
    9.0885    7.5769    1.9535 C   0  0  0  0  0  0  0  0  0  0  0  0
   10.5002    6.9977    2.1550 C   0  0  0  0  0  0  0  0  0  0  0  0
   11.5066    8.1606    2.0844 C   0  0  0  0  0  0  0  0  0  0  0  0
   13.0026    7.8348    1.8022 C   0  0  0  0  0  0  0  0  0  0  0  0
   13.7513    7.0728    2.8823 C   0  0  0  0  0  0  0  0  0  0  0  0
   13.7845    8.8438    1.0988 N   0  0  0  0  0  0  0  0  0  0  0  0
   11.2583    9.1305    3.2529 C   0  0  0  0  0  0  0  0  0  0  0  0
    9.8502    9.7302    3.1279 C   0  0  0  0  0  0  0  0  0  0  0  0
  1  2  2  0
  2  3  1  0
  2  4  1  0
  4  5  2  0
  5  6  1  0
  4  7  1  0
  7  8  1  0
  8  9  2  0
  8 10  1  0
 10 11  1  0
 11 12  1  0
 12 13  1  0
 13 14  1  0
 14 15  1  0
 14 16  1  0
 13 17  1  0
 17 18  1  0
 18 10  1  0
M  CHG  1  16   1
M  END
>  <EmbedRMS>  (160) 
0.18324839054966638

>  <Gold.Version>  (160) 
2020.3.0

>  <Gold.Id.Protein>  (160) 
unknown|1q8t_protein|pdb

>  <Gold.PLP.Fitness>  (160) 
43.8246

>  <Gold.PLP.PLP>  (160) 
-38.2099

>  <Gold.PLP.part.hbond>  (160) 
-2.0000

>  <Gold.PLP.part.metal>  (160) 
0.0000

>  <Gold.PLP.part.buried>  (160) 
-0.0086

>  <Gold.PLP.part.nonpolar>  (160) 
-36.9479

>  <Gold.PLP.part.repulsive>  (160) 
0.1284

>  <Gold.PLP.ligand.clash>  (160) 
0.0000

>  <Gold.PLP.ligand.torsion>  (160) 
1.6134

>  <Gold.PLP.Chemscore.Hbond>  (160) 
2.5600

>  <Gold.PLP.Chemscore.CHOScore>  (160) 
0.0000

>  <Gold.PLP.Chemscore.Metal>  (160) 
0.0000

>  <Gold.Chemscore.Hbonds>  (160) 
donor molecule, donor type, donor heavy atom, donor atom, acceptor molecule, acceptor atom, score
      L1  H     3    21       P1  1855  0.56
      L1  H    16    40       P1  2902  2.00

>  <Gold.PLP.Chemscore.Internal.Correction>  (160) 
1.1615

>  <Gold.PLP.Constraint>  (160) 
-0.0000

>  <Gold.Protein.RotatedTorsions>  (160) 
[  681  677  676  673 ] final -179.78 input -179.99 | X-H torsion
[  702  698  697  694 ] final -153.14 input  179.99 | X-H torsion
[ 2577 2569 2568 2566 ] final -104.36 input   -0.13 | X-H torsion
[ 2891 2887 2886 2883 ] final    0.82 input  179.98 | X-H torsion
[ 3175 3171 3170 3167 ] final   52.72 input -179.99 | X-H torsion
[ 5278 5270 5269 5267 ] final  -81.27 input    0.55 | X-H torsion
[  641  637  636  633 ] final   -7.00 input  179.99 | X-H torsion
[ 1886 1878 1877 1875 ] final -104.66 input    1.60 | X-H torsion
[  965  957  956  954 ] final  140.75 input    0.45 | X-H torsion

>  <Gold.Protein.ActiveResidues>  (160) 
 LYS47   THR48   LEU49   GLY50   THR51   GLY52   SER53   PHE54   GLY55   ARG56  
 VAL57   MET58   LEU59   TYR69   ALA70   MET71   LYS72   ILE73   LEU74   GLU91  
 LEU95   VAL104  LYS105  MET118  VAL119  MET120  GLU121  TYR122  VAL123  PRO124 
 GLY125  GLY126  GLU127  MET128  PHE129  TYR164  ASP166  LEU167  LYS168  PRO169 
 GLU170  ASN171  LEU172  LEU173  ILE174  GLN181  VAL182  THR183  ASP184  PHE185 
 GLY186  PHE187  GLY200  THR201  ASN326  PHE327  TYR330  ARG18   ARG19   ASN20  
 ALA21   ILE22   HIS23  

>  <Gold.Protein.RotatedAtoms>  (160) 
    9.6108   19.2710    7.8220 H   0  0  0  0  0  0  0  0  0  0  0  0  # atno 641  bound_to 637 
   16.9927   13.9119    7.0233 H   0  0  0  0  0  0  0  0  0  0  0  0  # atno 681  bound_to 677 
   21.1096   11.5507   -1.2389 H   0  0  0  0  0  0  0  0  0  0  0  0  # atno 702  bound_to 698 
   -7.1012   16.7955   -0.1325 H   0  0  0  0  0  0  0  0  0  0  0  0  # atno 965  bound_to 957 
    1.0745   10.6064   10.7056 H   0  0  0  0  0  0  0  0  0  0  0  0  # atno 1886 bound_to 1878
   11.0471    2.8368   -2.9756 H   0  0  0  0  0  0  0  0  0  0  0  0  # atno 2577 bound_to 2569
    8.0901    5.4411    0.3521 H   0  0  0  0  0  0  0  0  0  0  0  0  # atno 2891 bound_to 2887
   18.5162    2.2761   -1.3780 H   0  0  0  0  0  0  0  0  0  0  0  0  # atno 3175 bound_to 3171
   13.6258    9.8131   10.4794 H   0  0  0  0  0  0  0  0  0  0  0  0  # atno 5278 bound_to 5270
   16.6901   12.7003    6.0352 LP  0  0  0  0  0  0  0  0  0  0  0  0  # atno 5914 bound_to 677 
   15.5987   13.1545    7.1617 LP  0  0  0  0  0  0  0  0  0  0  0  0  # atno 5915 bound_to 677 
   19.6781   11.8002   -1.8915 LP  0  0  0  0  0  0  0  0  0  0  0  0  # atno 5920 bound_to 698 
   19.8592   11.7368   -0.2698 LP  0  0  0  0  0  0  0  0  0  0  0  0  # atno 5921 bound_to 698 
    9.9096    1.8931   -2.3833 LP  0  0  0  0  0  0  0  0  0  0  0  0  # atno 5950 bound_to 2569
    9.5292    3.1843   -3.3078 LP  0  0  0  0  0  0  0  0  0  0  0  0  # atno 5951 bound_to 2569
    7.1368    5.8161    1.5716 LP  0  0  0  0  0  0  0  0  0  0  0  0  # atno 5982 bound_to 2887
    8.0236    6.9623    0.8189 LP  0  0  0  0  0  0  0  0  0  0  0  0  # atno 5983 bound_to 2887
   19.3485    3.0596   -0.2694 LP  0  0  0  0  0  0  0  0  0  0  0  0  # atno 6000 bound_to 3171
   18.0531    2.1538    0.1407 LP  0  0  0  0  0  0  0  0  0  0  0  0  # atno 6001 bound_to 3171
   14.2919   10.1499    9.0724 LP  0  0  0  0  0  0  0  0  0  0  0  0  # atno 6004 bound_to 5270
   12.6683   10.0922    9.2376 LP  0  0  0  0  0  0  0  0  0  0  0  0  # atno 6005 bound_to 5270
   11.1511   19.0364    7.4947 LP  0  0  0  0  0  0  0  0  0  0  0  0  # atno 6055 bound_to 637 
   10.6915   19.7693    8.8797 LP  0  0  0  0  0  0  0  0  0  0  0  0  # atno 6056 bound_to 637 
    0.9529   12.1578   11.0427 LP  0  0  0  0  0  0  0  0  0  0  0  0  # atno 6063 bound_to 1878
    2.3012   11.5555   10.3456 LP  0  0  0  0  0  0  0  0  0  0  0  0  # atno 6064 bound_to 1878
   -6.8688   15.3313   -0.7131 LP  0  0  0  0  0  0  0  0  0  0  0  0  # atno 6067 bound_to 957 
   -6.4604   16.6517   -1.5829 LP  0  0  0  0  0  0  0  0  0  0  0  0  # atno 6068 bound_to 957 

>  <STRIFE_LigEff_Score>  (160) 
2.4347

$$$$
unknown|pharmsElabsTestPreDocking|sdf|161|dock8
     RDKit          3D

 18 19  0  0  0  0  0  0  0  0999 V2000
   14.8351    7.6889    3.4215 C   0  0  0  0  0  0  0  0  0  0  0  0
   13.8980    8.1389    2.2906 C   0  0  0  0  0  0  0  0  0  0  0  0
   14.0155    7.2286    1.1458 N   0  0  0  0  0  0  0  0  0  0  0  0
   12.4039    8.4015    2.6908 C   0  0  0  0  0  0  0  0  0  0  0  0
   11.3839    7.3633    2.1873 C   0  0  0  0  0  0  0  0  0  0  0  0
    9.9805    7.8971    1.9795 C   0  0  0  0  0  0  0  0  0  0  0  0
    9.5576    8.8708    3.0740 C   0  0  0  0  0  0  0  0  0  0  0  0
    8.1204    9.2652    2.8550 C   0  0  0  0  0  0  0  0  0  0  0  0
    7.8112    9.8955    1.8083 O   0  0  0  0  0  0  0  0  0  0  0  0
    7.1392    8.9439    3.8525 N   0  0  0  0  0  0  0  0  0  0  0  0
    5.7254    9.2231    3.8042 C   0  0  0  0  0  0  0  0  0  0  0  0
    5.0825    9.6205    4.9864 C   0  0  0  0  0  0  0  0  0  0  0  0
    3.7187    9.9069    4.9873 C   0  0  0  0  0  0  0  0  0  0  0  0
    2.9968    9.7951    3.8011 C   0  0  0  0  0  0  0  0  0  0  0  0
    3.6214    9.4105    2.6607 N   0  0  0  0  0  0  0  0  0  0  0  0
    4.9470    9.1251    2.6293 C   0  0  0  0  0  0  0  0  0  0  0  0
   10.4427   10.1224    3.0622 C   0  0  0  0  0  0  0  0  0  0  0  0
   11.9557    9.8541    2.9548 C   0  0  0  0  0  0  0  0  0  0  0  0
  1  2  1  0
  2  3  1  0
  2  4  1  0
  4  5  1  0
  5  6  1  0
  6  7  1  0
  7  8  1  0
  8  9  2  0
  8 10  1  0
 10 11  1  0
 11 12  2  0
 12 13  1  0
 13 14  2  0
 14 15  1  0
 15 16  2  0
  7 17  1  0
 17 18  1  0
 18  4  1  0
 16 11  1  0
M  CHG  1   3   1
M  END
>  <EmbedRMS>  (161) 
0.16496192233382964

>  <Gold.Version>  (161) 
2020.3.0

>  <Gold.Id.Protein>  (161) 
unknown|1q8t_protein|pdb

>  <Gold.PLP.Fitness>  (161) 
52.1210

>  <Gold.PLP.PLP>  (161) 
-42.7329

>  <Gold.PLP.part.hbond>  (161) 
-2.0000

>  <Gold.PLP.part.metal>  (161) 
0.0000

>  <Gold.PLP.part.buried>  (161) 
-2.9956

>  <Gold.PLP.part.nonpolar>  (161) 
-37.8809

>  <Gold.PLP.part.repulsive>  (161) 
0.1322

>  <Gold.PLP.ligand.clash>  (161) 
0.0000

>  <Gold.PLP.ligand.torsion>  (161) 
1.5244

>  <Gold.PLP.Chemscore.Hbond>  (161) 
3.0000

>  <Gold.PLP.Chemscore.CHOScore>  (161) 
0.9600

>  <Gold.PLP.Chemscore.Metal>  (161) 
0.0000

>  <Gold.Chemscore.Hbonds>  (161) 
donor molecule, donor type, donor heavy atom, donor atom, acceptor molecule, acceptor atom, score
      L1  H     3    24       P1  2902  2.00
      L1  H     3    25       P1  2691  1.00
      L1  C    14    35       P1  1855  0.96

>  <Gold.PLP.Chemscore.Internal.Correction>  (161) 
0.5568

>  <Gold.PLP.Constraint>  (161) 
-0.0000

>  <Gold.Protein.RotatedTorsions>  (161) 
[  681  677  676  673 ] final  -21.60 input -179.99 | X-H torsion
[  702  698  697  694 ] final  151.90 input  179.99 | X-H torsion
[ 2577 2569 2568 2566 ] final   15.52 input   -0.13 | X-H torsion
[ 2891 2887 2886 2883 ] final  -70.51 input  179.98 | X-H torsion
[ 3175 3171 3170 3167 ] final   -5.23 input -179.99 | X-H torsion
[ 5278 5270 5269 5267 ] final  -65.48 input    0.55 | X-H torsion
[  641  637  636  633 ] final  132.28 input  179.99 | X-H torsion
[ 1886 1878 1877 1875 ] final  164.08 input    1.60 | X-H torsion
[  965  957  956  954 ] final   92.68 input    0.45 | X-H torsion

>  <Gold.Protein.ActiveResidues>  (161) 
 LYS47   THR48   LEU49   GLY50   THR51   GLY52   SER53   PHE54   GLY55   ARG56  
 VAL57   MET58   LEU59   TYR69   ALA70   MET71   LYS72   ILE73   LEU74   GLU91  
 LEU95   VAL104  LYS105  MET118  VAL119  MET120  GLU121  TYR122  VAL123  PRO124 
 GLY125  GLY126  GLU127  MET128  PHE129  TYR164  ASP166  LEU167  LYS168  PRO169 
 GLU170  ASN171  LEU172  LEU173  ILE174  GLN181  VAL182  THR183  ASP184  PHE185 
 GLY186  PHE187  GLY200  THR201  ASN326  PHE327  TYR330  ARG18   ARG19   ASN20  
 ALA21   ILE22   HIS23  

>  <Gold.Protein.RotatedAtoms>  (161) 
   10.9546   19.6680    8.7465 H   0  0  0  0  0  0  0  0  0  0  0  0  # atno 641  bound_to 637 
   15.6899   12.7742    6.7025 H   0  0  0  0  0  0  0  0  0  0  0  0  # atno 681  bound_to 677 
   20.6548   11.6445   -1.9234 H   0  0  0  0  0  0  0  0  0  0  0  0  # atno 702  bound_to 698 
   -7.1697   16.0822    0.0031 H   0  0  0  0  0  0  0  0  0  0  0  0  # atno 965  bound_to 957 
    0.7007   11.7754   11.0698 H   0  0  0  0  0  0  0  0  0  0  0  0  # atno 1886 bound_to 1878
    9.5640    3.1488   -3.3009 H   0  0  0  0  0  0  0  0  0  0  0  0  # atno 2577 bound_to 2569
    7.3966    5.2688    1.1141 H   0  0  0  0  0  0  0  0  0  0  0  0  # atno 2891 bound_to 2887
   19.1784    2.7946   -1.1640 H   0  0  0  0  0  0  0  0  0  0  0  0  # atno 3175 bound_to 3171
   13.3797    9.8125   10.4714 H   0  0  0  0  0  0  0  0  0  0  0  0  # atno 5278 bound_to 5270
   16.5132   13.9531    7.3869 LP  0  0  0  0  0  0  0  0  0  0  0  0  # atno 5914 bound_to 677 
   17.1469   13.0991    6.1477 LP  0  0  0  0  0  0  0  0  0  0  0  0  # atno 5915 bound_to 677 
   19.3018   11.8518   -1.1086 LP  0  0  0  0  0  0  0  0  0  0  0  0  # atno 5920 bound_to 698 
   20.7139   11.5865   -0.3327 LP  0  0  0  0  0  0  0  0  0  0  0  0  # atno 5921 bound_to 698 
   11.0925    2.8554   -2.9649 LP  0  0  0  0  0  0  0  0  0  0  0  0  # atno 5950 bound_to 2569
    9.9078    1.8934   -2.3837 LP  0  0  0  0  0  0  0  0  0  0  0  0  # atno 5951 bound_to 2569
    7.5078    6.8342    1.3857 LP  0  0  0  0  0  0  0  0  0  0  0  0  # atno 5982 bound_to 2887
    8.3825    6.1255    0.2028 LP  0  0  0  0  0  0  0  0  0  0  0  0  # atno 5983 bound_to 2887
   18.7947    2.7345    0.3803 LP  0  0  0  0  0  0  0  0  0  0  0  0  # atno 6000 bound_to 3171
   17.9100    1.9332   -0.7342 LP  0  0  0  0  0  0  0  0  0  0  0  0  # atno 6001 bound_to 3171
   14.4144   10.0965    9.2943 LP  0  0  0  0  0  0  0  0  0  0  0  0  # atno 6004 bound_to 5270
   12.8047   10.1463    9.0241 LP  0  0  0  0  0  0  0  0  0  0  0  0  # atno 6005 bound_to 5270
    9.5291   19.4259    8.0800 LP  0  0  0  0  0  0  0  0  0  0  0  0  # atno 6055 bound_to 637 
   10.8983   18.9617    7.3207 LP  0  0  0  0  0  0  0  0  0  0  0  0  # atno 6056 bound_to 637 
    2.1645   11.9830   10.4787 LP  0  0  0  0  0  0  0  0  0  0  0  0  # atno 6063 bound_to 1878
    1.4832   10.4997   10.5262 LP  0  0  0  0  0  0  0  0  0  0  0  0  # atno 6064 bound_to 1878
   -6.5644   15.5686   -1.3771 LP  0  0  0  0  0  0  0  0  0  0  0  0  # atno 6067 bound_to 957 
   -6.6927   17.1657   -1.0617 LP  0  0  0  0  0  0  0  0  0  0  0  0  # atno 6068 bound_to 957 

>  <STRIFE_LigEff_Score>  (161) 
2.895611111111111

$$$$
unknown|pharmsElabsTestPreDocking|sdf|162|dock10
     RDKit          3D

 18 19  0  0  0  0  0  0  0  0999 V2000
   14.0705    9.3594    1.4827 C   0  0  0  0  0  0  0  0  0  0  0  0
   13.4061    8.1259    2.0941 C   0  0  0  0  0  0  0  0  0  0  0  0
   13.1658    7.0975    1.0726 N   0  0  0  0  0  0  0  0  0  0  0  0
   12.1833    8.3372    3.0081 C   0  0  0  0  0  0  0  0  0  0  0  0
   11.1375    7.2013    3.1667 C   0  0  0  0  0  0  0  0  0  0  0  0
    9.7075    7.5700    2.8009 C   0  0  0  0  0  0  0  0  0  0  0  0
    9.3132    8.9251    3.3835 C   0  0  0  0  0  0  0  0  0  0  0  0
    7.8561    9.1985    3.1336 C   0  0  0  0  0  0  0  0  0  0  0  0
    7.4783    9.5915    1.9960 O   0  0  0  0  0  0  0  0  0  0  0  0
    6.9190    9.0313    4.2053 N   0  0  0  0  0  0  0  0  0  0  0  0
    5.5059    9.2350    4.1007 C   0  0  0  0  0  0  0  0  0  0  0  0
    4.5836    9.4615    5.1094 C   0  0  0  0  0  0  0  0  0  0  0  0
    3.3657    9.5895    4.5505 N   0  0  0  0  0  0  0  0  0  0  0  0
    3.5059    9.4604    3.2396 N   0  0  0  0  0  0  0  0  0  0  0  0
    2.3998    9.5121    2.2969 C   0  0  0  0  0  0  0  0  0  0  0  0
    4.7926    9.2324    2.9257 C   0  0  0  0  0  0  0  0  0  0  0  0
   10.1703   10.0121    2.7446 C   0  0  0  0  0  0  0  0  0  0  0  0
   11.6580    9.8056    3.0202 C   0  0  0  0  0  0  0  0  0  0  0  0
  1  2  1  0
  2  3  1  0
  2  4  1  0
  4  5  1  0
  5  6  1  0
  6  7  1  0
  7  8  1  0
  8  9  2  0
  8 10  1  0
 10 11  1  0
 11 12  1  0
 12 13  2  0
 13 14  1  0
 14 15  1  0
 14 16  1  0
  7 17  1  0
 17 18  1  0
 18  4  1  0
 16 11  2  0
M  CHG  1   3   1
M  END
>  <EmbedRMS>  (162) 
0.202216898800577

>  <Gold.Version>  (162) 
2020.3.0

>  <Gold.Id.Protein>  (162) 
unknown|1q8t_protein|pdb

>  <Gold.PLP.Fitness>  (162) 
44.4666

>  <Gold.PLP.PLP>  (162) 
-37.5154

>  <Gold.PLP.part.hbond>  (162) 
-2.6634

>  <Gold.PLP.part.metal>  (162) 
0.0000

>  <Gold.PLP.part.buried>  (162) 
1.7157

>  <Gold.PLP.part.nonpolar>  (162) 
-37.5029

>  <Gold.PLP.part.repulsive>  (162) 
0.1652

>  <Gold.PLP.ligand.clash>  (162) 
0.0000

>  <Gold.PLP.ligand.torsion>  (162) 
1.6856

>  <Gold.PLP.Chemscore.Hbond>  (162) 
3.3098

>  <Gold.PLP.Chemscore.CHOScore>  (162) 
0.0000

>  <Gold.PLP.Chemscore.Metal>  (162) 
0.0000

>  <Gold.Chemscore.Hbonds>  (162) 
donor molecule, donor type, donor heavy atom, donor atom, acceptor molecule, acceptor atom, score
      L1  H     3    23       P1  2691  0.46
      L1  H     3    25       P1  2902  1.95
      P1  H  1888  1903       L1    13  0.89

>  <Gold.PLP.Chemscore.Internal.Correction>  (162) 
0.3932

>  <Gold.PLP.Constraint>  (162) 
-0.0000

>  <Gold.Protein.RotatedTorsions>  (162) 
[  681  677  676  673 ] final  -32.39 input -179.99 | X-H torsion
[  702  698  697  694 ] final -162.21 input  179.99 | X-H torsion
[ 2577 2569 2568 2566 ] final   55.49 input   -0.13 | X-H torsion
[ 2891 2887 2886 2883 ] final  -20.18 input  179.98 | X-H torsion
[ 3175 3171 3170 3167 ] final  138.18 input -179.99 | X-H torsion
[ 5278 5270 5269 5267 ] final  116.79 input    0.55 | X-H torsion
[  641  637  636  633 ] final  -76.30 input  179.99 | X-H torsion
[ 1886 1878 1877 1875 ] final  178.72 input    1.60 | X-H torsion
[  965  957  956  954 ] final  148.32 input    0.45 | X-H torsion

>  <Gold.Protein.ActiveResidues>  (162) 
 LYS47   THR48   LEU49   GLY50   THR51   GLY52   SER53   PHE54   GLY55   ARG56  
 VAL57   MET58   LEU59   TYR69   ALA70   MET71   LYS72   ILE73   LEU74   GLU91  
 LEU95   VAL104  LYS105  MET118  VAL119  MET120  GLU121  TYR122  VAL123  PRO124 
 GLY125  GLY126  GLU127  MET128  PHE129  TYR164  ASP166  LEU167  LYS168  PRO169 
 GLU170  ASN171  LEU172  LEU173  ILE174  GLN181  VAL182  THR183  ASP184  PHE185 
 GLY186  PHE187  GLY200  THR201  ASN326  PHE327  TYR330  ARG18   ARG19   ASN20  
 ALA21   ILE22   HIS23  

>  <Gold.Protein.RotatedAtoms>  (162) 
   10.4011   18.9448    7.2695 H   0  0  0  0  0  0  0  0  0  0  0  0  # atno 641  bound_to 637 
   15.6380   12.8708    6.8304 H   0  0  0  0  0  0  0  0  0  0  0  0  # atno 681  bound_to 677 
   21.0829   11.5581   -1.3781 H   0  0  0  0  0  0  0  0  0  0  0  0  # atno 702  bound_to 698 
   -7.0691   16.8863   -0.2011 H   0  0  0  0  0  0  0  0  0  0  0  0  # atno 965  bound_to 957 
    0.6300   11.5585   11.0640 H   0  0  0  0  0  0  0  0  0  0  0  0  # atno 1886 bound_to 1878
    9.2902    2.6900   -3.0024 H   0  0  0  0  0  0  0  0  0  0  0  0  # atno 2577 bound_to 2569
    7.8930    5.2571    0.5363 H   0  0  0  0  0  0  0  0  0  0  0  0  # atno 2891 bound_to 2887
   17.9255    1.9719   -0.3602 H   0  0  0  0  0  0  0  0  0  0  0  0  # atno 3175 bound_to 3171
   13.7155   10.2373    8.7635 H   0  0  0  0  0  0  0  0  0  0  0  0  # atno 5278 bound_to 5270
   16.6728   13.9801    7.3147 LP  0  0  0  0  0  0  0  0  0  0  0  0  # atno 5914 bound_to 677 
   17.0419   12.9706    6.0853 LP  0  0  0  0  0  0  0  0  0  0  0  0  # atno 5915 bound_to 677 
   19.5672   11.8180   -1.7932 LP  0  0  0  0  0  0  0  0  0  0  0  0  # atno 5920 bound_to 698 
   19.9981   11.7113   -0.2218 LP  0  0  0  0  0  0  0  0  0  0  0  0  # atno 5921 bound_to 698 
   10.7388    3.2854   -3.2893 LP  0  0  0  0  0  0  0  0  0  0  0  0  # atno 5950 bound_to 2569
   10.5500    1.9466   -2.3736 LP  0  0  0  0  0  0  0  0  0  0  0  0  # atno 5951 bound_to 2569
    7.1582    6.1545    1.6278 LP  0  0  0  0  0  0  0  0  0  0  0  0  # atno 5982 bound_to 2887
    8.2096    6.8176    0.5688 LP  0  0  0  0  0  0  0  0  0  0  0  0  # atno 5983 bound_to 2887
   18.9469    2.6141   -1.3994 LP  0  0  0  0  0  0  0  0  0  0  0  0  # atno 6000 bound_to 3171
   19.0764    2.9194    0.1995 LP  0  0  0  0  0  0  0  0  0  0  0  0  # atno 6001 bound_to 3171
   12.6341    9.9305    9.8918 LP  0  0  0  0  0  0  0  0  0  0  0  0  # atno 6004 bound_to 5270
   14.2317    9.8654   10.2236 LP  0  0  0  0  0  0  0  0  0  0  0  0  # atno 6005 bound_to 5270
   11.3183   19.5106    8.4415 LP  0  0  0  0  0  0  0  0  0  0  0  0  # atno 6055 bound_to 637 
    9.6920   19.6388    8.5147 LP  0  0  0  0  0  0  0  0  0  0  0  0  # atno 6056 bound_to 637 
    2.0222   12.1533   10.5706 LP  0  0  0  0  0  0  0  0  0  0  0  0  # atno 6063 bound_to 1878
    1.7000   10.5577   10.4405 LP  0  0  0  0  0  0  0  0  0  0  0  0  # atno 6064 bound_to 1878
   -6.9194   15.3526   -0.6014 LP  0  0  0  0  0  0  0  0  0  0  0  0  # atno 6067 bound_to 957 
   -6.4435   16.5348   -1.6224 LP  0  0  0  0  0  0  0  0  0  0  0  0  # atno 6068 bound_to 957 

>  <STRIFE_LigEff_Score>  (162) 
2.4703666666666666

$$$$
unknown|pharmsElabsTestPreDocking|sdf|163|dock4
     RDKit          3D

 19 20  0  0  0  0  0  0  0  0999 V2000
    2.7022   10.1108    4.7492 C   0  0  0  0  0  0  0  0  0  0  0  0
    4.1379    9.7386    4.5421 C   0  0  0  0  0  0  0  0  0  0  0  0
    4.5562    9.0593    3.3885 C   0  0  0  0  0  0  0  0  0  0  0  0
    5.9087    8.7305    3.2088 C   0  0  0  0  0  0  0  0  0  0  0  0
    6.8701    9.0743    4.1790 C   0  0  0  0  0  0  0  0  0  0  0  0
    8.2659    8.7022    3.9721 N   0  0  0  0  0  0  0  0  0  0  0  0
    8.9500    8.7704    2.6970 C   0  0  0  0  0  0  0  0  0  0  0  0
    8.3178    9.0353    1.6526 O   0  0  0  0  0  0  0  0  0  0  0  0
   10.4046    8.5192    2.4495 C   0  0  0  0  0  0  0  0  0  0  0  0
   10.6873    7.1369    1.8812 C   0  0  0  0  0  0  0  0  0  0  0  0
   12.1658    6.7766    1.8346 C   0  0  0  0  0  0  0  0  0  0  0  0
   13.0941    7.9988    1.7137 C   0  0  0  0  0  0  0  0  0  0  0  0
   14.5700    7.5032    1.5615 C   0  0  0  0  0  0  0  0  0  0  0  0
   15.0171    6.7461    2.8253 C   0  0  0  0  0  0  0  0  0  0  0  0
   14.7536    6.6371    0.3890 N   0  0  0  0  0  0  0  0  0  0  0  0
   12.8904    8.9149    2.9489 C   0  0  0  0  0  0  0  0  0  0  0  0
   11.4233    9.2605    3.2877 C   0  0  0  0  0  0  0  0  0  0  0  0
    6.4141    9.7579    5.3376 C   0  0  0  0  0  0  0  0  0  0  0  0
    5.0784   10.0970    5.5019 C   0  0  0  0  0  0  0  0  0  0  0  0
  1  2  1  0
  2  3  2  0
  3  4  1  0
  4  5  2  0
  5  6  1  0
  6  7  1  0
  7  8  2  0
  7  9  1  0
  9 10  1  0
 10 11  1  0
 11 12  1  0
 12 13  1  0
 13 14  1  0
 13 15  1  0
 12 16  1  0
 16 17  1  0
  5 18  1  0
 18 19  2  0
 19  2  1  0
 17  9  1  0
M  CHG  1  15   1
M  END
>  <EmbedRMS>  (163) 
0.17010060312639905

>  <Gold.Version>  (163) 
2020.3.0

>  <Gold.Id.Protein>  (163) 
unknown|1q8t_protein|pdb

>  <Gold.PLP.Fitness>  (163) 
47.2805

>  <Gold.PLP.PLP>  (163) 
-38.9705

>  <Gold.PLP.part.hbond>  (163) 
-2.7338

>  <Gold.PLP.part.metal>  (163) 
0.0000

>  <Gold.PLP.part.buried>  (163) 
5.7312

>  <Gold.PLP.part.nonpolar>  (163) 
-42.2573

>  <Gold.PLP.part.repulsive>  (163) 
0.1279

>  <Gold.PLP.ligand.clash>  (163) 
0.0000

>  <Gold.PLP.ligand.torsion>  (163) 
0.6350

>  <Gold.PLP.Chemscore.Hbond>  (163) 
2.9760

>  <Gold.PLP.Chemscore.CHOScore>  (163) 
0.0000

>  <Gold.PLP.Chemscore.Metal>  (163) 
0.0000

>  <Gold.Chemscore.Hbonds>  (163) 
donor molecule, donor type, donor heavy atom, donor atom, acceptor molecule, acceptor atom, score
      L1  H    15    36       P1  2902  1.98
      L1  H    15    38       P1  2691  0.99

>  <Gold.PLP.Chemscore.Internal.Correction>  (163) 
0.6521

>  <Gold.PLP.Constraint>  (163) 
-0.0000

>  <Gold.Protein.RotatedTorsions>  (163) 
[  681  677  676  673 ] final  147.01 input -179.99 | X-H torsion
[  702  698  697  694 ] final  -31.92 input  179.99 | X-H torsion
[ 2577 2569 2568 2566 ] final   -0.64 input   -0.13 | X-H torsion
[ 2891 2887 2886 2883 ] final  -59.26 input  179.98 | X-H torsion
[ 3175 3171 3170 3167 ] final  166.43 input -179.99 | X-H torsion
[ 5278 5270 5269 5267 ] final -158.71 input    0.55 | X-H torsion
[  641  637  636  633 ] final   49.80 input  179.99 | X-H torsion
[ 1886 1878 1877 1875 ] final  -54.90 input    1.60 | X-H torsion
[  965  957  956  954 ] final  -71.51 input    0.45 | X-H torsion

>  <Gold.Protein.ActiveResidues>  (163) 
 LYS47   THR48   LEU49   GLY50   THR51   GLY52   SER53   PHE54   GLY55   ARG56  
 VAL57   MET58   LEU59   TYR69   ALA70   MET71   LYS72   ILE73   LEU74   GLU91  
 LEU95   VAL104  LYS105  MET118  VAL119  MET120  GLU121  TYR122  VAL123  PRO124 
 GLY125  GLY126  GLU127  MET128  PHE129  TYR164  ASP166  LEU167  LYS168  PRO169 
 GLU170  ASN171  LEU172  LEU173  ILE174  GLN181  VAL182  THR183  ASP184  PHE185 
 GLY186  PHE187  GLY200  THR201  ASN326  PHE327  TYR330  ARG18   ARG19   ASN20  
 ALA21   ILE22   HIS23  

>  <Gold.Protein.RotatedAtoms>  (163) 
    9.7882   19.6420    8.5679 H   0  0  0  0  0  0  0  0  0  0  0  0  # atno 641  bound_to 637 
   17.2292   13.6713    6.6383 H   0  0  0  0  0  0  0  0  0  0  0  0  # atno 681  bound_to 677 
   19.8632   11.7539   -0.3200 H   0  0  0  0  0  0  0  0  0  0  0  0  # atno 702  bound_to 698 
   -6.4358   16.2097   -1.6066 H   0  0  0  0  0  0  0  0  0  0  0  0  # atno 965  bound_to 957 
    1.7656   10.6449   10.4075 H   0  0  0  0  0  0  0  0  0  0  0  0  # atno 1886 bound_to 1878
    9.7691    3.2753   -3.3738 H   0  0  0  0  0  0  0  0  0  0  0  0  # atno 2577 bound_to 2569
    7.4969    5.2083    0.9834 H   0  0  0  0  0  0  0  0  0  0  0  0  # atno 2891 bound_to 2887
   18.0447    2.1121    0.0363 H   0  0  0  0  0  0  0  0  0  0  0  0  # atno 3175 bound_to 3171
   14.4205   10.0103    9.7138 H   0  0  0  0  0  0  0  0  0  0  0  0  # atno 5278 bound_to 5270
   16.1969   12.5455    6.1873 LP  0  0  0  0  0  0  0  0  0  0  0  0  # atno 5914 bound_to 677 
   15.8431   13.5626    7.4149 LP  0  0  0  0  0  0  0  0  0  0  0  0  # atno 5915 bound_to 677 
   21.1543   11.5257   -1.2247 LP  0  0  0  0  0  0  0  0  0  0  0  0  # atno 5920 bound_to 698 
   19.6941   11.7976   -1.9033 LP  0  0  0  0  0  0  0  0  0  0  0  0  # atno 5921 bound_to 698 
   11.1170    2.6395   -2.8132 LP  0  0  0  0  0  0  0  0  0  0  0  0  # atno 5950 bound_to 2569
    9.6675    1.9762   -2.4588 LP  0  0  0  0  0  0  0  0  0  0  0  0  # atno 5951 bound_to 2569
    7.4010    6.7179    1.4816 LP  0  0  0  0  0  0  0  0  0  0  0  0  # atno 5982 bound_to 2887
    8.3838    6.3055    0.2444 LP  0  0  0  0  0  0  0  0  0  0  0  0  # atno 5983 bound_to 2887
   18.5819    2.3377   -1.4456 LP  0  0  0  0  0  0  0  0  0  0  0  0  # atno 6000 bound_to 3171
   19.3159    3.0482   -0.1716 LP  0  0  0  0  0  0  0  0  0  0  0  0  # atno 6001 bound_to 3171
   13.1535   10.2126    8.7702 LP  0  0  0  0  0  0  0  0  0  0  0  0  # atno 6004 bound_to 5270
   12.9705    9.8222   10.3453 LP  0  0  0  0  0  0  0  0  0  0  0  0  # atno 6005 bound_to 5270
   10.2990   18.9484    7.2290 LP  0  0  0  0  0  0  0  0  0  0  0  0  # atno 6055 bound_to 637 
   11.3569   19.4667    8.3598 LP  0  0  0  0  0  0  0  0  0  0  0  0  # atno 6056 bound_to 637 
    0.5790   11.4595   11.0885 LP  0  0  0  0  0  0  0  0  0  0  0  0  # atno 6063 bound_to 1878
    1.9477   12.2132   10.6136 LP  0  0  0  0  0  0  0  0  0  0  0  0  # atno 6064 bound_to 1878
   -6.9862   17.1147   -0.4178 LP  0  0  0  0  0  0  0  0  0  0  0  0  # atno 6067 bound_to 957 
   -7.0437   15.4853   -0.3256 LP  0  0  0  0  0  0  0  0  0  0  0  0  # atno 6068 bound_to 957 

>  <STRIFE_LigEff_Score>  (163) 
2.4884473684210526

$$$$
unknown|pharmsElabsTestPreDocking|sdf|164|dock5
     RDKit          3D

 18 18  0  0  0  0  0  0  0  0999 V2000
    5.2886   10.3186    5.8741 C   0  0  0  0  0  0  0  0  0  0  0  0
    4.6813    9.9412    4.5574 C   0  0  0  0  0  0  0  0  0  0  0  0
    5.3982    9.4305    3.5396 C   0  0  0  0  0  0  0  0  0  0  0  0
    6.8015    9.1712    3.7262 N   0  0  0  0  0  0  0  0  0  0  0  0
    7.8157    9.3871    2.7388 C   0  0  0  0  0  0  0  0  0  0  0  0
    7.5704   10.0535    1.6940 O   0  0  0  0  0  0  0  0  0  0  0  0
    9.1934    8.8397    2.9943 C   0  0  0  0  0  0  0  0  0  0  0  0
    9.4944    7.6521    2.0622 C   0  0  0  0  0  0  0  0  0  0  0  0
   10.9244    7.1310    2.2885 C   0  0  0  0  0  0  0  0  0  0  0  0
   11.9015    8.2905    2.0219 C   0  0  0  0  0  0  0  0  0  0  0  0
   13.3935    7.9541    1.7317 C   0  0  0  0  0  0  0  0  0  0  0  0
   14.3773    9.1104    1.7859 C   0  0  0  0  0  0  0  0  0  0  0  0
   13.6654    6.9552    0.7058 N   0  0  0  0  0  0  0  0  0  0  0  0
   11.6719    9.4080    3.0546 C   0  0  0  0  0  0  0  0  0  0  0  0
   10.2470    9.9599    2.9018 C   0  0  0  0  0  0  0  0  0  0  0  0
    4.7025    9.0256    2.2862 C   0  0  0  0  0  0  0  0  0  0  0  0
    3.3028    8.4806    2.3147 C   0  0  0  0  0  0  0  0  0  0  0  0
    5.2842    9.2030    1.1401 N   0  0  0  0  0  0  0  0  0  0  0  0
  1  2  1  0
  2  3  2  0
  3  4  1  0
  4  5  1  0
  5  6  2  0
  5  7  1  0
  7  8  1  0
  8  9  1  0
  9 10  1  0
 10 11  1  0
 11 12  1  0
 11 13  1  0
 10 14  1  0
 14 15  1  0
  3 16  1  0
 16 17  1  0
 16 18  2  0
 15  7  1  0
M  CHG  1  13   1
M  END
>  <EmbedRMS>  (164) 
0.18298173008130458

>  <Gold.Version>  (164) 
2020.3.0

>  <Gold.Id.Protein>  (164) 
unknown|1q8t_protein|pdb

>  <Gold.PLP.Fitness>  (164) 
43.7054

>  <Gold.PLP.PLP>  (164) 
-36.1389

>  <Gold.PLP.part.hbond>  (164) 
-1.7879

>  <Gold.PLP.part.metal>  (164) 
0.0000

>  <Gold.PLP.part.buried>  (164) 
1.3845

>  <Gold.PLP.part.nonpolar>  (164) 
-35.8731

>  <Gold.PLP.part.repulsive>  (164) 
0.0740

>  <Gold.PLP.ligand.clash>  (164) 
0.0081

>  <Gold.PLP.ligand.torsion>  (164) 
1.2563

>  <Gold.PLP.Chemscore.Hbond>  (164) 
2.9600

>  <Gold.PLP.Chemscore.CHOScore>  (164) 
0.0000

>  <Gold.PLP.Chemscore.Metal>  (164) 
0.0000

>  <Gold.Chemscore.Hbonds>  (164) 
donor molecule, donor type, donor heavy atom, donor atom, acceptor molecule, acceptor atom, score
      L1  H    13    35       P1  2691  0.96
      L1  H    13    36       P1  2902  2.00

>  <Gold.PLP.Chemscore.Internal.Correction>  (164) 
1.2073

>  <Gold.PLP.Constraint>  (164) 
-0.0000

>  <Gold.Protein.RotatedTorsions>  (164) 
[  681  677  676  673 ] final  -54.65 input -179.99 | X-H torsion
[  702  698  697  694 ] final  -87.66 input  179.99 | X-H torsion
[ 2577 2569 2568 2566 ] final  101.63 input   -0.13 | X-H torsion
[ 2891 2887 2886 2883 ] final  140.45 input  179.98 | X-H torsion
[ 3175 3171 3170 3167 ] final -104.25 input -179.99 | X-H torsion
[ 5278 5270 5269 5267 ] final  166.63 input    0.55 | X-H torsion
[  641  637  636  633 ] final  -39.53 input  179.99 | X-H torsion
[ 1886 1878 1877 1875 ] final  -47.37 input    1.60 | X-H torsion
[  965  957  956  954 ] final   11.97 input    0.45 | X-H torsion

>  <Gold.Protein.ActiveResidues>  (164) 
 LYS47   THR48   LEU49   GLY50   THR51   GLY52   SER53   PHE54   GLY55   ARG56  
 VAL57   MET58   LEU59   TYR69   ALA70   MET71   LYS72   ILE73   LEU74   GLU91  
 LEU95   VAL104  LYS105  MET118  VAL119  MET120  GLU121  TYR122  VAL123  PRO124 
 GLY125  GLY126  GLU127  MET128  PHE129  TYR164  ASP166  LEU167  LYS168  PRO169 
 GLU170  ASN171  LEU172  LEU173  ILE174  GLN181  VAL182  THR183  ASP184  PHE185 
 GLY186  PHE187  GLY200  THR201  ASN326  PHE327  TYR330  ARG18   ARG19   ASN20  
 ALA21   ILE22   HIS23  

>  <Gold.Protein.RotatedAtoms>  (164) 
    9.8809   19.0670    7.4520 H   0  0  0  0  0  0  0  0  0  0  0  0  # atno 641  bound_to 637 
   15.6205   13.1106    7.0790 H   0  0  0  0  0  0  0  0  0  0  0  0  # atno 681  bound_to 677 
   20.6872   11.6088   -0.3684 H   0  0  0  0  0  0  0  0  0  0  0  0  # atno 702  bound_to 698 
   -6.7948   15.3745   -0.8354 H   0  0  0  0  0  0  0  0  0  0  0  0  # atno 965  bound_to 957 
    1.8610   10.7058   10.3758 H   0  0  0  0  0  0  0  0  0  0  0  0  # atno 1886 bound_to 1878
    9.4881    2.1439   -2.6087 H   0  0  0  0  0  0  0  0  0  0  0  0  # atno 2577 bound_to 2569
    7.8025    6.9459    1.0457 H   0  0  0  0  0  0  0  0  0  0  0  0  # atno 2891 bound_to 2887
   19.0394    2.8689    0.1892 H   0  0  0  0  0  0  0  0  0  0  0  0  # atno 3175 bound_to 3171
   14.3197   10.1348    9.2047 H   0  0  0  0  0  0  0  0  0  0  0  0  # atno 5278 bound_to 5270
   16.9702   13.9554    7.1061 LP  0  0  0  0  0  0  0  0  0  0  0  0  # atno 5914 bound_to 677 
   16.7629   12.7428    6.0322 LP  0  0  0  0  0  0  0  0  0  0  0  0  # atno 5915 bound_to 677 
   20.6800   11.6240   -1.9613 LP  0  0  0  0  0  0  0  0  0  0  0  0  # atno 5920 bound_to 698 
   19.3016   11.8520   -1.1158 LP  0  0  0  0  0  0  0  0  0  0  0  0  # atno 5921 bound_to 698 
   10.0219    3.4033   -3.4238 LP  0  0  0  0  0  0  0  0  0  0  0  0  # atno 5950 bound_to 2569
   11.0584    2.4037   -2.6537 LP  0  0  0  0  0  0  0  0  0  0  0  0  # atno 5951 bound_to 2569
    8.2714    5.6663    0.2215 LP  0  0  0  0  0  0  0  0  0  0  0  0  # atno 5982 bound_to 2887
    7.1918    5.5285    1.4390 LP  0  0  0  0  0  0  0  0  0  0  0  0  # atno 5983 bound_to 2887
   17.8750    1.9520   -0.3930 LP  0  0  0  0  0  0  0  0  0  0  0  0  # atno 6000 bound_to 3171
   18.9760    2.6376   -1.3850 LP  0  0  0  0  0  0  0  0  0  0  0  0  # atno 6001 bound_to 3171
   12.7289   10.1204    9.1262 LP  0  0  0  0  0  0  0  0  0  0  0  0  # atno 6004 bound_to 5270
   13.5012    9.7834   10.5250 LP  0  0  0  0  0  0  0  0  0  0  0  0  # atno 6005 bound_to 5270
   11.3936   19.2390    7.9178 LP  0  0  0  0  0  0  0  0  0  0  0  0  # atno 6055 bound_to 637 
   10.1646   19.7816    8.8462 LP  0  0  0  0  0  0  0  0  0  0  0  0  # atno 6056 bound_to 637 
    0.5745   11.3373   11.0696 LP  0  0  0  0  0  0  0  0  0  0  0  0  # atno 6063 bound_to 1878
    1.8517   12.2713   10.6659 LP  0  0  0  0  0  0  0  0  0  0  0  0  # atno 6064 bound_to 1878
   -6.4878   16.7788   -1.5200 LP  0  0  0  0  0  0  0  0  0  0  0  0  # atno 6067 bound_to 957 
   -7.1641   16.7008   -0.0357 LP  0  0  0  0  0  0  0  0  0  0  0  0  # atno 6068 bound_to 957 

>  <STRIFE_LigEff_Score>  (164) 
2.428077777777778

$$$$
unknown|pharmsElabsTestPreDocking|sdf|165|dock5
     RDKit          3D

 15 15  0  0  0  0  0  0  0  0999 V2000
    4.5135    9.7922    5.3092 C   0  0  0  0  0  0  0  0  0  0  0  0
    5.2128    9.4256    4.0325 C   0  0  0  0  0  0  0  0  0  0  0  0
    4.5030    8.8892    2.8205 C   0  0  0  0  0  0  0  0  0  0  0  0
    6.5793    8.9010    4.2212 N   0  0  0  0  0  0  0  0  0  0  0  0
    7.5012    9.2542    3.1747 C   0  0  0  0  0  0  0  0  0  0  0  0
    7.0650    9.8570    2.1634 O   0  0  0  0  0  0  0  0  0  0  0  0
    8.9589    8.9904    3.0962 C   0  0  0  0  0  0  0  0  0  0  0  0
    9.2899    7.5418    2.8558 C   0  0  0  0  0  0  0  0  0  0  0  0
   10.7155    7.3458    2.3774 C   0  0  0  0  0  0  0  0  0  0  0  0
   11.7557    8.2186    3.0792 C   0  0  0  0  0  0  0  0  0  0  0  0
   13.2267    7.9589    2.6011 C   0  0  0  0  0  0  0  0  0  0  0  0
   14.1958    7.3929    3.6528 C   0  0  0  0  0  0  0  0  0  0  0  0
   13.2842    7.1549    1.3772 N   0  0  0  0  0  0  0  0  0  0  0  0
   11.3477    9.6690    3.4206 C   0  0  0  0  0  0  0  0  0  0  0  0
    9.9028    9.8220    3.9218 C   0  0  0  0  0  0  0  0  0  0  0  0
  1  2  1  0
  2  3  1  0
  2  4  1  0
  4  5  1  0
  5  6  2  0
  5  7  1  0
  7  8  1  0
  8  9  1  0
  9 10  1  0
 10 11  1  0
 11 12  1  0
 11 13  1  0
 10 14  1  0
 14 15  1  0
 15  7  1  0
M  CHG  1  13   1
M  END
>  <EmbedRMS>  (165) 
0.35838126622633487

>  <Gold.Version>  (165) 
2020.3.0

>  <Gold.Id.Protein>  (165) 
unknown|1q8t_protein|pdb

>  <Gold.PLP.Fitness>  (165) 
42.1953

>  <Gold.PLP.PLP>  (165) 
-36.3251

>  <Gold.PLP.part.hbond>  (165) 
-2.0000

>  <Gold.PLP.part.metal>  (165) 
0.0000

>  <Gold.PLP.part.buried>  (165) 
-4.1565

>  <Gold.PLP.part.nonpolar>  (165) 
-30.1069

>  <Gold.PLP.part.repulsive>  (165) 
0.0321

>  <Gold.PLP.ligand.clash>  (165) 
0.0000

>  <Gold.PLP.ligand.torsion>  (165) 
1.8531

>  <Gold.PLP.Chemscore.Hbond>  (165) 
2.7520

>  <Gold.PLP.Chemscore.CHOScore>  (165) 
0.0000

>  <Gold.PLP.Chemscore.Metal>  (165) 
0.0000

>  <Gold.Chemscore.Hbonds>  (165) 
donor molecule, donor type, donor heavy atom, donor atom, acceptor molecule, acceptor atom, score
      L1  H    13    34       P1  2691  0.75
      L1  H    13    36       P1  2902  2.00

>  <Gold.PLP.Chemscore.Internal.Correction>  (165) 
1.3205

>  <Gold.PLP.Constraint>  (165) 
-0.0000

>  <Gold.Protein.RotatedTorsions>  (165) 
[  681  677  676  673 ] final   96.02 input -179.99 | X-H torsion
[  702  698  697  694 ] final  104.54 input  179.99 | X-H torsion
[ 2577 2569 2568 2566 ] final  -62.10 input   -0.13 | X-H torsion
[ 2891 2887 2886 2883 ] final  -70.63 input  179.98 | X-H torsion
[ 3175 3171 3170 3167 ] final -102.63 input -179.99 | X-H torsion
[ 5278 5270 5269 5267 ] final -153.53 input    0.55 | X-H torsion
[  641  637  636  633 ] final   49.38 input  179.99 | X-H torsion
[ 1886 1878 1877 1875 ] final  144.05 input    1.60 | X-H torsion
[  965  957  956  954 ] final -123.04 input    0.45 | X-H torsion

>  <Gold.Protein.ActiveResidues>  (165) 
 LYS47   THR48   LEU49   GLY50   THR51   GLY52   SER53   PHE54   GLY55   ARG56  
 VAL57   MET58   LEU59   TYR69   ALA70   MET71   LYS72   ILE73   LEU74   GLU91  
 LEU95   VAL104  LYS105  MET118  VAL119  MET120  GLU121  TYR122  VAL123  PRO124 
 GLY125  GLY126  GLU127  MET128  PHE129  TYR164  ASP166  LEU167  LYS168  PRO169 
 GLU170  ASN171  LEU172  LEU173  ILE174  GLN181  VAL182  THR183  ASP184  PHE185 
 GLY186  PHE187  GLY200  THR201  ASN326  PHE327  TYR330  ARG18   ARG19   ASN20  
 ALA21   ILE22   HIS23  

>  <Gold.Protein.RotatedAtoms>  (165) 
    9.7839   19.6399    8.5634 H   0  0  0  0  0  0  0  0  0  0  0  0  # atno 641  bound_to 637 
   17.0848   13.0904    6.1519 H   0  0  0  0  0  0  0  0  0  0  0  0  # atno 681  bound_to 677 
   19.9485   11.7709   -1.9824 H   0  0  0  0  0  0  0  0  0  0  0  0  # atno 702  bound_to 698 
   -6.5508   16.9314   -1.3388 H   0  0  0  0  0  0  0  0  0  0  0  0  # atno 965  bound_to 957 
    0.8729   12.0330   11.0378 H   0  0  0  0  0  0  0  0  0  0  0  0  # atno 1886 bound_to 1878
   10.6809    3.2606   -3.2967 H   0  0  0  0  0  0  0  0  0  0  0  0  # atno 2577 bound_to 2569
    7.3955    5.2697    1.1155 H   0  0  0  0  0  0  0  0  0  0  0  0  # atno 2891 bound_to 2887
   19.0563    2.8793    0.1736 H   0  0  0  0  0  0  0  0  0  0  0  0  # atno 3175 bound_to 3171
   14.4078    9.9910    9.7915 H   0  0  0  0  0  0  0  0  0  0  0  0  # atno 5278 bound_to 5270
   15.6431   12.7582    6.7413 LP  0  0  0  0  0  0  0  0  0  0  0  0  # atno 5914 bound_to 677 
   16.5489   13.9612    7.3728 LP  0  0  0  0  0  0  0  0  0  0  0  0  # atno 5915 bound_to 677 
   19.6182   11.7825   -0.4241 LP  0  0  0  0  0  0  0  0  0  0  0  0  # atno 5920 bound_to 698 
   21.1404   11.5229   -0.9551 LP  0  0  0  0  0  0  0  0  0  0  0  0  # atno 5921 bound_to 698 
   10.5859    1.9613   -2.3812 LP  0  0  0  0  0  0  0  0  0  0  0  0  # atno 5950 bound_to 2569
    9.2384    2.6698   -2.9719 LP  0  0  0  0  0  0  0  0  0  0  0  0  # atno 5951 bound_to 2569
    7.5090    6.8353    1.3846 LP  0  0  0  0  0  0  0  0  0  0  0  0  # atno 5982 bound_to 2887
    8.3824    6.1235    0.2025 LP  0  0  0  0  0  0  0  0  0  0  0  0  # atno 5983 bound_to 2887
   17.8765    1.9565   -0.3668 LP  0  0  0  0  0  0  0  0  0  0  0  0  # atno 6000 bound_to 3171
   18.9568    2.6220   -1.3947 LP  0  0  0  0  0  0  0  0  0  0  0  0  # atno 6001 bound_to 3171
   13.2331   10.2207    8.7408 LP  0  0  0  0  0  0  0  0  0  0  0  0  # atno 6004 bound_to 5270
   12.9042    9.8344   10.2929 LP  0  0  0  0  0  0  0  0  0  0  0  0  # atno 6005 bound_to 5270
   10.3058   18.9475    7.2280 LP  0  0  0  0  0  0  0  0  0  0  0  0  # atno 6055 bound_to 637 
   11.3546   19.4697    8.3655 LP  0  0  0  0  0  0  0  0  0  0  0  0  # atno 6056 bound_to 637 
    2.2817   11.6938   10.3778 LP  0  0  0  0  0  0  0  0  0  0  0  0  # atno 6063 bound_to 1878
    1.1847   10.5177   10.6608 LP  0  0  0  0  0  0  0  0  0  0  0  0  # atno 6064 bound_to 1878
   -7.2004   16.4689    0.0393 LP  0  0  0  0  0  0  0  0  0  0  0  0  # atno 6067 bound_to 957 
   -6.7084   15.3709   -1.0648 LP  0  0  0  0  0  0  0  0  0  0  0  0  # atno 6068 bound_to 957 

>  <STRIFE_LigEff_Score>  (165) 
2.8130200000000003

$$$$
unknown|pharmsElabsTestPreDocking|sdf|166|dock5
     RDKit          3D

 18 20  0  0  0  0  0  0  0  0999 V2000
   14.5143    9.1856    1.0975 C   0  0  0  0  0  0  0  0  0  0  0  0
   13.8036    8.1368    1.9359 C   0  0  0  0  0  0  0  0  0  0  0  0
   14.2045    6.7596    1.6776 N   0  0  0  0  0  0  0  0  0  0  0  0
   12.3016    8.3944    2.2532 C   0  0  0  0  0  0  0  0  0  0  0  0
   11.5244    7.3283    3.0461 C   0  0  0  0  0  0  0  0  0  0  0  0
   10.0223    7.5637    2.8137 C   0  0  0  0  0  0  0  0  0  0  0  0
    9.6138    8.9789    3.2651 C   0  0  0  0  0  0  0  0  0  0  0  0
    8.1603    9.2329    2.9767 C   0  0  0  0  0  0  0  0  0  0  0  0
    7.7993    9.6456    1.8396 O   0  0  0  0  0  0  0  0  0  0  0  0
    7.2030    9.0238    4.0202 N   0  0  0  0  0  0  0  0  0  0  0  0
    5.7945    9.2063    3.8716 C   0  0  0  0  0  0  0  0  0  0  0  0
    4.9002    9.0016    2.7360 C   0  0  0  0  0  0  0  0  0  0  0  0
    3.5010    9.3242    3.0166 C   0  0  0  0  0  0  0  0  0  0  0  0
    3.6403    9.7029    4.3025 C   0  0  0  0  0  0  0  0  0  0  0  0
    3.9049   10.0636    5.5984 C   0  0  0  0  0  0  0  0  0  0  0  0
    4.9173    9.6373    4.7783 C   0  0  0  0  0  0  0  0  0  0  0  0
   10.4861   10.0834    2.6375 C   0  0  0  0  0  0  0  0  0  0  0  0
   11.9828    9.7908    2.8154 C   0  0  0  0  0  0  0  0  0  0  0  0
  1  2  1  0
  2  3  1  0
  2  4  1  0
  4  5  1  0
  5  6  1  0
  6  7  1  0
  7  8  1  0
  8  9  2  0
  8 10  1  0
 10 11  1  0
 11 12  2  0
 12 13  1  0
 13 14  2  0
 14 15  1  0
 15 16  2  0
  7 17  1  0
 17 18  1  0
 18  4  1  0
 16 11  1  0
 16 14  1  0
M  CHG  1   3   1
M  END
>  <EmbedRMS>  (166) 
0.18242760821357734

>  <Gold.Version>  (166) 
2020.3.0

>  <Gold.Id.Protein>  (166) 
unknown|1q8t_protein|pdb

>  <Gold.PLP.Fitness>  (166) 
49.8742

>  <Gold.PLP.PLP>  (166) 
-48.5837

>  <Gold.PLP.part.hbond>  (166) 
-1.0000

>  <Gold.PLP.part.metal>  (166) 
0.0000

>  <Gold.PLP.part.buried>  (166) 
-4.6703

>  <Gold.PLP.part.nonpolar>  (166) 
-43.6165

>  <Gold.PLP.part.repulsive>  (166) 
0.0710

>  <Gold.PLP.ligand.clash>  (166) 
0.0000

>  <Gold.PLP.ligand.torsion>  (166) 
1.0433

>  <Gold.PLP.Chemscore.Hbond>  (166) 
1.0000

>  <Gold.PLP.Chemscore.CHOScore>  (166) 
0.0000

>  <Gold.PLP.Chemscore.Metal>  (166) 
0.0000

>  <Gold.Chemscore.Hbonds>  (166) 
donor molecule, donor type, donor heavy atom, donor atom, acceptor molecule, acceptor atom, score
      L1  H     3    25       P1  2691  1.00

>  <Gold.PLP.Chemscore.Internal.Correction>  (166) 
0.3770

>  <Gold.PLP.Constraint>  (166) 
-0.0000

>  <Gold.Protein.RotatedTorsions>  (166) 
[  681  677  676  673 ] final  -19.02 input -179.99 | X-H torsion
[  702  698  697  694 ] final  141.97 input  179.99 | X-H torsion
[ 2577 2569 2568 2566 ] final   70.78 input   -0.13 | X-H torsion
[ 2891 2887 2886 2883 ] final  174.56 input  179.98 | X-H torsion
[ 3175 3171 3170 3167 ] final   -2.69 input -179.99 | X-H torsion
[ 5278 5270 5269 5267 ] final -179.88 input    0.55 | X-H torsion
[  641  637  636  633 ] final  -50.09 input  179.99 | X-H torsion
[ 1886 1878 1877 1875 ] final   49.55 input    1.60 | X-H torsion
[  965  957  956  954 ] final  140.12 input    0.45 | X-H torsion

>  <Gold.Protein.ActiveResidues>  (166) 
 LYS47   THR48   LEU49   GLY50   THR51   GLY52   SER53   PHE54   GLY55   ARG56  
 VAL57   MET58   LEU59   TYR69   ALA70   MET71   LYS72   ILE73   LEU74   GLU91  
 LEU95   VAL104  LYS105  MET118  VAL119  MET120  GLU121  TYR122  VAL123  PRO124 
 GLY125  GLY126  GLU127  MET128  PHE129  TYR164  ASP166  LEU167  LYS168  PRO169 
 GLU170  ASN171  LEU172  LEU173  ILE174  GLN181  VAL182  THR183  ASP184  PHE185 
 GLY186  PHE187  GLY200  THR201  ASN326  PHE327  TYR330  ARG18   ARG19   ASN20  
 ALA21   ILE22   HIS23  

>  <Gold.Protein.RotatedAtoms>  (166) 
   10.0143   19.0172    7.3691 H   0  0  0  0  0  0  0  0  0  0  0  0  # atno 641  bound_to 637 
   15.7063   12.7537    6.6720 H   0  0  0  0  0  0  0  0  0  0  0  0  # atno 681  bound_to 677 
   20.5148   11.6705   -1.9851 H   0  0  0  0  0  0  0  0  0  0  0  0  # atno 702  bound_to 698 
   -7.1036   16.7876   -0.1273 H   0  0  0  0  0  0  0  0  0  0  0  0  # atno 965  bound_to 957 
    2.0756   12.0227   10.5058 H   0  0  0  0  0  0  0  0  0  0  0  0  # atno 1886 bound_to 1878
    9.2943    2.4945   -2.8664 H   0  0  0  0  0  0  0  0  0  0  0  0  # atno 2577 bound_to 2569
    7.4609    6.7517    1.3949 H   0  0  0  0  0  0  0  0  0  0  0  0  # atno 2891 bound_to 2887
   19.1564    2.7748   -1.1905 H   0  0  0  0  0  0  0  0  0  0  0  0  # atno 3175 bound_to 3171
   14.3967   10.0887    9.3950 H   0  0  0  0  0  0  0  0  0  0  0  0  # atno 5278 bound_to 5270
   16.4745   13.9431    7.4009 LP  0  0  0  0  0  0  0  0  0  0  0  0  # atno 5914 bound_to 677 
   17.1684   13.1309    6.1658 LP  0  0  0  0  0  0  0  0  0  0  0  0  # atno 5915 bound_to 677 
   19.3197   11.8455   -0.9466 LP  0  0  0  0  0  0  0  0  0  0  0  0  # atno 5920 bound_to 698 
   20.8433   11.5655   -0.4299 LP  0  0  0  0  0  0  0  0  0  0  0  0  # atno 5921 bound_to 698 
   10.5198    3.3778   -3.3695 LP  0  0  0  0  0  0  0  0  0  0  0  0  # atno 5950 bound_to 2569
   10.7646    2.0600   -2.4366 LP  0  0  0  0  0  0  0  0  0  0  0  0  # atno 5951 bound_to 2569
    8.3861    6.2074    0.2183 LP  0  0  0  0  0  0  0  0  0  0  0  0  # atno 5982 bound_to 2887
    7.4366    5.1917    1.0747 LP  0  0  0  0  0  0  0  0  0  0  0  0  # atno 5983 bound_to 2887
   18.8275    2.7571    0.3674 LP  0  0  0  0  0  0  0  0  0  0  0  0  # atno 6000 bound_to 3171
   17.9004    1.9315   -0.6935 LP  0  0  0  0  0  0  0  0  0  0  0  0  # atno 6001 bound_to 3171
   12.8668   10.1632    8.9583 LP  0  0  0  0  0  0  0  0  0  0  0  0  # atno 6004 bound_to 5270
   13.2822    9.7891   10.4926 LP  0  0  0  0  0  0  0  0  0  0  0  0  # atno 6005 bound_to 5270
   11.4112   19.3167    8.0720 LP  0  0  0  0  0  0  0  0  0  0  0  0  # atno 6055 bound_to 637 
   10.0065   19.7563    8.7793 LP  0  0  0  0  0  0  0  0  0  0  0  0  # atno 6056 bound_to 637 
    1.5654   10.5145   10.4924 LP  0  0  0  0  0  0  0  0  0  0  0  0  # atno 6063 bound_to 1878
    0.6349   11.7079   11.1062 LP  0  0  0  0  0  0  0  0  0  0  0  0  # atno 6064 bound_to 1878
   -6.8646   15.3303   -0.7224 LP  0  0  0  0  0  0  0  0  0  0  0  0  # atno 6067 bound_to 957 
   -6.4620   16.6610   -1.5790 LP  0  0  0  0  0  0  0  0  0  0  0  0  # atno 6068 bound_to 957 

>  <STRIFE_LigEff_Score>  (166) 
2.770788888888889

$$$$
unknown|pharmsElabsTestPreDocking|sdf|167|dock2
     RDKit          3D

 15 15  0  0  0  0  0  0  0  0999 V2000
    5.2934    9.8327    5.2212 C   0  0  0  0  0  0  0  0  0  0  0  0
    5.8050    9.3281    4.1000 C   0  0  0  0  0  0  0  0  0  0  0  0
    4.6771    9.0951    2.7101 S   0  0  0  0  0  0  0  0  0  0  0  0
    7.2250    9.0280    4.0145 N   0  0  0  0  0  0  0  0  0  0  0  0
    7.9389    8.9103    2.7648 C   0  0  0  0  0  0  0  0  0  0  0  0
    7.3081    8.9043    1.6825 O   0  0  0  0  0  0  0  0  0  0  0  0
    9.4274    8.7830    2.6081 C   0  0  0  0  0  0  0  0  0  0  0  0
    9.9930    7.4907    3.1425 C   0  0  0  0  0  0  0  0  0  0  0  0
   11.4198    7.2390    2.6829 C   0  0  0  0  0  0  0  0  0  0  0  0
   12.3575    8.4549    2.6661 C   0  0  0  0  0  0  0  0  0  0  0  0
   13.6075    8.2643    1.7716 C   0  0  0  0  0  0  0  0  0  0  0  0
   14.2153    9.4941    1.0989 C   0  0  0  0  0  0  0  0  0  0  0  0
   13.4669    7.1397    0.8443 N   0  0  0  0  0  0  0  0  0  0  0  0
   11.7026    9.8338    2.3871 C   0  0  0  0  0  0  0  0  0  0  0  0
   10.2530   10.0188    2.8316 C   0  0  0  0  0  0  0  0  0  0  0  0
  1  2  2  0
  2  3  1  0
  2  4  1  0
  4  5  1  0
  5  6  2  0
  5  7  1  0
  7  8  1  0
  8  9  1  0
  9 10  1  0
 10 11  1  0
 11 12  1  0
 11 13  1  0
 10 14  1  0
 14 15  1  0
 15  7  1  0
M  CHG  1  13   1
M  END
>  <EmbedRMS>  (167) 
0.32055312693297616

>  <Gold.Version>  (167) 
2020.3.0

>  <Gold.Id.Protein>  (167) 
unknown|1q8t_protein|pdb

>  <Gold.PLP.Fitness>  (167) 
41.0121

>  <Gold.PLP.PLP>  (167) 
-32.8437

>  <Gold.PLP.part.hbond>  (167) 
-2.9706

>  <Gold.PLP.part.metal>  (167) 
0.0000

>  <Gold.PLP.part.buried>  (167) 
-3.0391

>  <Gold.PLP.part.nonpolar>  (167) 
-26.4575

>  <Gold.PLP.part.repulsive>  (167) 
0.0489

>  <Gold.PLP.ligand.clash>  (167) 
0.0000

>  <Gold.PLP.ligand.torsion>  (167) 
1.5008

>  <Gold.PLP.Chemscore.Hbond>  (167) 
3.5240

>  <Gold.PLP.Chemscore.CHOScore>  (167) 
0.0000

>  <Gold.PLP.Chemscore.Metal>  (167) 
0.0000

>  <Gold.Chemscore.Hbonds>  (167) 
donor molecule, donor type, donor heavy atom, donor atom, acceptor molecule, acceptor atom, score
      L1  H    13    30       P1  2691  0.74
      L1  H    13    32       P1  2902  1.89
      P1  H  2887  2891       L1     6  0.90

>  <Gold.PLP.Chemscore.Internal.Correction>  (167) 
0.5980

>  <Gold.PLP.Constraint>  (167) 
-0.0000

>  <Gold.Protein.RotatedTorsions>  (167) 
[  681  677  676  673 ] final    7.97 input -179.99 | X-H torsion
[  702  698  697  694 ] final -107.04 input  179.99 | X-H torsion
[ 2577 2569 2568 2566 ] final  -51.62 input   -0.13 | X-H torsion
[ 2891 2887 2886 2883 ] final  146.83 input  179.98 | X-H torsion
[ 3175 3171 3170 3167 ] final  115.82 input -179.99 | X-H torsion
[ 5278 5270 5269 5267 ] final -131.13 input    0.55 | X-H torsion
[  641  637  636  633 ] final    7.19 input  179.99 | X-H torsion
[ 1886 1878 1877 1875 ] final  125.79 input    1.60 | X-H torsion
[  965  957  956  954 ] final   48.30 input    0.45 | X-H torsion

>  <Gold.Protein.ActiveResidues>  (167) 
 LYS47   THR48   LEU49   GLY50   THR51   GLY52   SER53   PHE54   GLY55   ARG56  
 VAL57   MET58   LEU59   TYR69   ALA70   MET71   LYS72   ILE73   LEU74   GLU91  
 LEU95   VAL104  LYS105  MET118  VAL119  MET120  GLU121  TYR122  VAL123  PRO124 
 GLY125  GLY126  GLU127  MET128  PHE129  TYR164  ASP166  LEU167  LYS168  PRO169 
 GLU170  ASN171  LEU172  LEU173  ILE174  GLN181  VAL182  THR183  ASP184  PHE185 
 GLY186  PHE187  GLY200  THR201  ASN326  PHE327  TYR330  ARG18   ARG19   ASN20  
 ALA21   ILE22   HIS23  

>  <Gold.Protein.RotatedAtoms>  (167) 
    9.5752   19.3719    8.0157 H   0  0  0  0  0  0  0  0  0  0  0  0  # atno 641  bound_to 637 
   15.9581   12.6081    6.3716 H   0  0  0  0  0  0  0  0  0  0  0  0  # atno 681  bound_to 677 
   20.9124   11.5727   -0.5658 H   0  0  0  0  0  0  0  0  0  0  0  0  # atno 702  bound_to 698 
   -7.0166   15.5230   -0.3450 H   0  0  0  0  0  0  0  0  0  0  0  0  # atno 965  bound_to 957 
    1.0895   12.2045   10.9715 H   0  0  0  0  0  0  0  0  0  0  0  0  # atno 1886 bound_to 1878
   10.5381    3.3208   -3.3490 H   0  0  0  0  0  0  0  0  0  0  0  0  # atno 2577 bound_to 2569
    7.7363    6.9320    1.1191 H   0  0  0  0  0  0  0  0  0  0  0  0  # atno 2891 bound_to 2887
   17.9525    1.9466   -0.7055 H   0  0  0  0  0  0  0  0  0  0  0  0  # atno 3175 bound_to 3171
   14.2729    9.9128   10.1026 H   0  0  0  0  0  0  0  0  0  0  0  0  # atno 5278 bound_to 5270
   16.0793   13.7602    7.4644 LP  0  0  0  0  0  0  0  0  0  0  0  0  # atno 5914 bound_to 677 
   17.2985   13.4669    6.4184 LP  0  0  0  0  0  0  0  0  0  0  0  0  # atno 5915 bound_to 677 
   20.3851   11.6782   -2.0652 LP  0  0  0  0  0  0  0  0  0  0  0  0  # atno 5920 bound_to 698 
   19.3595   11.8357   -0.8043 LP  0  0  0  0  0  0  0  0  0  0  0  0  # atno 5921 bound_to 698 
   10.7333    2.0393   -2.4245 LP  0  0  0  0  0  0  0  0  0  0  0  0  # atno 5950 bound_to 2569
    9.2414    2.5285   -2.8735 LP  0  0  0  0  0  0  0  0  0  0  0  0  # atno 5951 bound_to 2569
    8.3084    5.7625    0.2017 LP  0  0  0  0  0  0  0  0  0  0  0  0  # atno 5982 bound_to 2887
    7.2244    5.4469    1.3816 LP  0  0  0  0  0  0  0  0  0  0  0  0  # atno 5983 bound_to 2887
   19.1866    2.8163   -1.2117 LP  0  0  0  0  0  0  0  0  0  0  0  0  # atno 6000 bound_to 3171
   18.8082    2.7438    0.3752 LP  0  0  0  0  0  0  0  0  0  0  0  0  # atno 6001 bound_to 3171
   13.5964   10.2352    8.6972 LP  0  0  0  0  0  0  0  0  0  0  0  0  # atno 6004 bound_to 5270
   12.6829    9.9021   10.0092 LP  0  0  0  0  0  0  0  0  0  0  0  0  # atno 6005 bound_to 5270
   10.9710   18.9773    7.3592 LP  0  0  0  0  0  0  0  0  0  0  0  0  # atno 6055 bound_to 637 
   10.9091   19.7222    8.8112 LP  0  0  0  0  0  0  0  0  0  0  0  0  # atno 6056 bound_to 637 
    2.2998   11.4009   10.3198 LP  0  0  0  0  0  0  0  0  0  0  0  0  # atno 6063 bound_to 1878
    0.9386   10.6300   10.7885 LP  0  0  0  0  0  0  0  0  0  0  0  0  # atno 6064 bound_to 1878
   -6.4310   16.2098   -1.6567 LP  0  0  0  0  0  0  0  0  0  0  0  0  # atno 6067 bound_to 957 
   -6.9873   17.1134   -0.4155 LP  0  0  0  0  0  0  0  0  0  0  0  0  # atno 6068 bound_to 957 

>  <STRIFE_LigEff_Score>  (167) 
2.7341399999999996

$$$$
unknown|pharmsElabsTestPreDocking|sdf|168|dock6
     RDKit          3D

 19 20  0  0  0  0  0  0  0  0999 V2000
    3.5209    9.2647    1.2877 C   0  0  0  0  0  0  0  0  0  0  0  0
    4.7858    8.8982    2.0570 C   0  0  0  0  0  0  0  0  0  0  0  0
    4.6453    9.2513    3.4716 N   0  0  0  0  0  0  0  0  0  0  0  0
    3.5724    9.8836    3.9884 C   0  0  0  0  0  0  0  0  0  0  0  0
    3.8153   10.2443    5.2983 C   0  0  0  0  0  0  0  0  0  0  0  0
    5.0940    9.8228    5.5974 C   0  0  0  0  0  0  0  0  0  0  0  0
    5.5674    9.2003    4.4611 C   0  0  0  0  0  0  0  0  0  0  0  0
    6.9134    8.7357    4.3233 N   0  0  0  0  0  0  0  0  0  0  0  0
    7.8164    9.1589    3.2970 C   0  0  0  0  0  0  0  0  0  0  0  0
    7.3947    9.7888    2.2870 O   0  0  0  0  0  0  0  0  0  0  0  0
    9.2732    8.8219    3.4280 C   0  0  0  0  0  0  0  0  0  0  0  0
    9.6749    7.7842    2.3758 C   0  0  0  0  0  0  0  0  0  0  0  0
   11.1465    7.4263    2.5267 C   0  0  0  0  0  0  0  0  0  0  0  0
   12.0224    8.6827    2.3418 C   0  0  0  0  0  0  0  0  0  0  0  0
   13.5279    8.2840    2.3345 C   0  0  0  0  0  0  0  0  0  0  0  0
   13.8956    7.5773    3.6543 C   0  0  0  0  0  0  0  0  0  0  0  0
   13.8630    7.4038    1.2078 N   0  0  0  0  0  0  0  0  0  0  0  0
   11.6426    9.7271    3.4212 C   0  0  0  0  0  0  0  0  0  0  0  0
   10.1484   10.0839    3.3362 C   0  0  0  0  0  0  0  0  0  0  0  0
  1  2  1  0
  2  3  1  0
  3  4  1  0
  4  5  2  0
  5  6  1  0
  6  7  2  0
  7  8  1  0
  8  9  1  0
  9 10  2  0
  9 11  1  0
 11 12  1  0
 12 13  1  0
 13 14  1  0
 14 15  1  0
 15 16  1  0
 15 17  1  0
 14 18  1  0
 18 19  1  0
  7  3  1  0
 19 11  1  0
M  CHG  1  17   1
M  END
>  <EmbedRMS>  (168) 
0.03324769706297822

>  <Gold.Version>  (168) 
2020.3.0

>  <Gold.Id.Protein>  (168) 
unknown|1q8t_protein|pdb

>  <Gold.PLP.Fitness>  (168) 
59.2693

>  <Gold.PLP.PLP>  (168) 
-50.3184

>  <Gold.PLP.part.hbond>  (168) 
-2.0000

>  <Gold.PLP.part.metal>  (168) 
0.0000

>  <Gold.PLP.part.buried>  (168) 
-4.4030

>  <Gold.PLP.part.nonpolar>  (168) 
-44.3632

>  <Gold.PLP.part.repulsive>  (168) 
0.0275

>  <Gold.PLP.ligand.clash>  (168) 
0.0000

>  <Gold.PLP.ligand.torsion>  (168) 
0.6243

>  <Gold.PLP.Chemscore.Hbond>  (168) 
3.0000

>  <Gold.PLP.Chemscore.CHOScore>  (168) 
0.3314

>  <Gold.PLP.Chemscore.Metal>  (168) 
0.0000

>  <Gold.Chemscore.Hbonds>  (168) 
donor molecule, donor type, donor heavy atom, donor atom, acceptor molecule, acceptor atom, score
      L1  H    17    39       P1  2691  1.00
      L1  H    17    40       P1  2902  2.00
      L1  C     4    25       P1  1855  0.33

>  <Gold.PLP.Chemscore.Internal.Correction>  (168) 
0.2053

>  <Gold.PLP.Constraint>  (168) 
-0.0000

>  <Gold.Protein.RotatedTorsions>  (168) 
[  681  677  676  673 ] final  -75.30 input -179.99 | X-H torsion
[  702  698  697  694 ] final  -56.09 input  179.99 | X-H torsion
[ 2577 2569 2568 2566 ] final  -45.85 input   -0.13 | X-H torsion
[ 2891 2887 2886 2883 ] final  -94.62 input  179.98 | X-H torsion
[ 3175 3171 3170 3167 ] final -174.19 input -179.99 | X-H torsion
[ 5278 5270 5269 5267 ] final -109.08 input    0.55 | X-H torsion
[  641  637  636  633 ] final -158.61 input  179.99 | X-H torsion
[ 1886 1878 1877 1875 ] final   83.07 input    1.60 | X-H torsion
[  965  957  956  954 ] final  -47.29 input    0.45 | X-H torsion

>  <Gold.Protein.ActiveResidues>  (168) 
 LYS47   THR48   LEU49   GLY50   THR51   GLY52   SER53   PHE54   GLY55   ARG56  
 VAL57   MET58   LEU59   TYR69   ALA70   MET71   LYS72   ILE73   LEU74   GLU91  
 LEU95   VAL104  LYS105  MET118  VAL119  MET120  GLU121  TYR122  VAL123  PRO124 
 GLY125  GLY126  GLU127  MET128  PHE129  TYR164  ASP166  LEU167  LYS168  PRO169 
 GLU170  ASN171  LEU172  LEU173  ILE174  GLN181  VAL182  THR183  ASP184  PHE185 
 GLY186  PHE187  GLY200  THR201  ASN326  PHE327  TYR330  ARG18   ARG19   ASN20  
 ALA21   ILE22   HIS23  

>  <Gold.Protein.RotatedAtoms>  (168) 
   11.3433   19.2242    7.9198 H   0  0  0  0  0  0  0  0  0  0  0  0  # atno 641  bound_to 637 
   15.7127   13.3556    7.2648 H   0  0  0  0  0  0  0  0  0  0  0  0  # atno 681  bound_to 677 
   20.2238   11.6884   -0.2389 H   0  0  0  0  0  0  0  0  0  0  0  0  # atno 702  bound_to 698 
   -6.4813   15.8483   -1.5143 H   0  0  0  0  0  0  0  0  0  0  0  0  # atno 965  bound_to 957 
    1.6869   12.2851   10.7219 H   0  0  0  0  0  0  0  0  0  0  0  0  # atno 1886 bound_to 1878
   10.4540    3.3443   -3.3715 H   0  0  0  0  0  0  0  0  0  0  0  0  # atno 2577 bound_to 2569
    7.2312    5.4970    1.3603 H   0  0  0  0  0  0  0  0  0  0  0  0  # atno 2891 bound_to 2887
   18.2122    2.2625    0.2369 H   0  0  0  0  0  0  0  0  0  0  0  0  # atno 3175 bound_to 3171
   14.0303    9.8524   10.3372 H   0  0  0  0  0  0  0  0  0  0  0  0  # atno 5278 bound_to 5270
   17.1760   13.8400    6.8642 LP  0  0  0  0  0  0  0  0  0  0  0  0  # atno 5914 bound_to 677 
   16.4601   12.6003    6.0786 LP  0  0  0  0  0  0  0  0  0  0  0  0  # atno 5915 bound_to 677 
   21.0385   11.5535   -1.6011 LP  0  0  0  0  0  0  0  0  0  0  0  0  # atno 5920 bound_to 698 
   19.4306   11.8387   -1.6122 LP  0  0  0  0  0  0  0  0  0  0  0  0  # atno 5921 bound_to 698 
   10.8068    2.0910   -2.4550 LP  0  0  0  0  0  0  0  0  0  0  0  0  # atno 5950 bound_to 2569
    9.2565    2.4520   -2.8193 LP  0  0  0  0  0  0  0  0  0  0  0  0  # atno 5951 bound_to 2569
    7.7638    6.9792    1.1239 LP  0  0  0  0  0  0  0  0  0  0  0  0  # atno 5982 bound_to 2887
    8.3006    5.7403    0.2054 LP  0  0  0  0  0  0  0  0  0  0  0  0  # atno 5983 bound_to 2887
   18.3333    2.1664   -1.3479 LP  0  0  0  0  0  0  0  0  0  0  0  0  # atno 6000 bound_to 3171
   19.3882    3.0614   -0.4803 LP  0  0  0  0  0  0  0  0  0  0  0  0  # atno 6001 bound_to 3171
   13.9447   10.2162    8.7889 LP  0  0  0  0  0  0  0  0  0  0  0  0  # atno 6004 bound_to 5270
   12.5898    9.9846    9.6706 LP  0  0  0  0  0  0  0  0  0  0  0  0  # atno 6005 bound_to 5270
   10.1789   19.7832    8.8507 LP  0  0  0  0  0  0  0  0  0  0  0  0  # atno 6055 bound_to 637 
    9.8392   19.0719    7.4206 LP  0  0  0  0  0  0  0  0  0  0  0  0  # atno 6056 bound_to 637 
    2.0167   10.7754   10.3380 LP  0  0  0  0  0  0  0  0  0  0  0  0  # atno 6063 bound_to 1878
    0.5929   11.1708   11.0331 LP  0  0  0  0  0  0  0  0  0  0  0  0  # atno 6064 bound_to 1878
   -6.8265   17.2111   -0.7668 LP  0  0  0  0  0  0  0  0  0  0  0  0  # atno 6067 bound_to 957 
   -7.1555   15.7695   -0.0740 LP  0  0  0  0  0  0  0  0  0  0  0  0  # atno 6068 bound_to 957 

>  <STRIFE_LigEff_Score>  (168) 
3.119436842105263

$$$$
unknown|pharmsElabsTestPreDocking|sdf|169|dock8
     RDKit          3D

 17 18  0  0  0  0  0  0  0  0999 V2000
   14.7683    8.1050    2.8298 C   0  0  0  0  0  0  0  0  0  0  0  0
   13.4288    7.9288    2.1162 C   0  0  0  0  0  0  0  0  0  0  0  0
   13.3229    8.7716    0.9234 N   0  0  0  0  0  0  0  0  0  0  0  0
   12.1341    7.9389    2.9655 C   0  0  0  0  0  0  0  0  0  0  0  0
   10.9980    7.0968    2.3669 C   0  0  0  0  0  0  0  0  0  0  0  0
    9.5957    7.4030    2.8648 C   0  0  0  0  0  0  0  0  0  0  0  0
    9.3449    8.8813    3.0233 C   0  0  0  0  0  0  0  0  0  0  0  0
    7.8971    9.2399    3.1799 C   0  0  0  0  0  0  0  0  0  0  0  0
    7.6850   10.1065    4.0578 O   0  0  0  0  0  0  0  0  0  0  0  0
    6.7903    8.6882    2.4344 N   0  0  0  0  0  0  0  0  0  0  0  0
    5.4095    9.0122    2.7389 C   0  0  0  0  0  0  0  0  0  0  0  0
    4.8315    9.2053    3.9927 C   0  0  0  0  0  0  0  0  0  0  0  0
    3.5014    9.4749    3.7653 C   0  0  0  0  0  0  0  0  0  0  0  0
    3.2427    9.4520    2.4458 N   0  0  0  0  0  0  0  0  0  0  0  0
    4.3975    9.1703    1.8115 C   0  0  0  0  0  0  0  0  0  0  0  0
   10.3434    9.6520    3.8383 C   0  0  0  0  0  0  0  0  0  0  0  0
   11.7787    9.3900    3.3864 C   0  0  0  0  0  0  0  0  0  0  0  0
  1  2  1  0
  2  3  1  0
  2  4  1  0
  4  5  1  0
  5  6  1  0
  6  7  1  0
  7  8  1  0
  8  9  2  0
  8 10  1  0
 10 11  1  0
 11 12  1  0
 12 13  2  0
 13 14  1  0
 14 15  1  0
  7 16  1  0
 16 17  1  0
 17  4  1  0
 15 11  2  0
M  CHG  1   3   1
M  END
>  <EmbedRMS>  (169) 
0.3005329260886256

>  <Gold.Version>  (169) 
2020.3.0

>  <Gold.Id.Protein>  (169) 
unknown|1q8t_protein|pdb

>  <Gold.PLP.Fitness>  (169) 
48.9340

>  <Gold.PLP.PLP>  (169) 
-39.9450

>  <Gold.PLP.part.hbond>  (169) 
-2.6962

>  <Gold.PLP.part.metal>  (169) 
0.0000

>  <Gold.PLP.part.buried>  (169) 
-4.6388

>  <Gold.PLP.part.nonpolar>  (169) 
-32.8919

>  <Gold.PLP.part.repulsive>  (169) 
0.0715

>  <Gold.PLP.ligand.clash>  (169) 
0.0000

>  <Gold.PLP.ligand.torsion>  (169) 
0.8313

>  <Gold.PLP.Chemscore.Hbond>  (169) 
3.3437

>  <Gold.PLP.Chemscore.CHOScore>  (169) 
0.0000

>  <Gold.PLP.Chemscore.Metal>  (169) 
0.0000

>  <Gold.Chemscore.Hbonds>  (169) 
donor molecule, donor type, donor heavy atom, donor atom, acceptor molecule, acceptor atom, score
      L1  H     3    24       P1  2902  2.00
      L1  H    10    31       P1  2887  0.34
      L1  H    14    34       P1  1855  1.00

>  <Gold.PLP.Chemscore.Internal.Correction>  (169) 
0.6205

>  <Gold.PLP.Constraint>  (169) 
-0.0000

>  <Gold.Protein.RotatedTorsions>  (169) 
[  681  677  676  673 ] final  -59.86 input -179.99 | X-H torsion
[  702  698  697  694 ] final  127.81 input  179.99 | X-H torsion
[ 2577 2569 2568 2566 ] final  178.98 input   -0.13 | X-H torsion
[ 2891 2887 2886 2883 ] final   -7.15 input  179.98 | X-H torsion
[ 3175 3171 3170 3167 ] final  -36.16 input -179.99 | X-H torsion
[ 5278 5270 5269 5267 ] final  131.70 input    0.55 | X-H torsion
[  641  637  636  633 ] final   45.40 input  179.99 | X-H torsion
[ 1886 1878 1877 1875 ] final  131.07 input    1.60 | X-H torsion
[  965  957  956  954 ] final -131.89 input    0.45 | X-H torsion

>  <Gold.Protein.ActiveResidues>  (169) 
 LYS47   THR48   LEU49   GLY50   THR51   GLY52   SER53   PHE54   GLY55   ARG56  
 VAL57   MET58   LEU59   TYR69   ALA70   MET71   LYS72   ILE73   LEU74   GLU91  
 LEU95   VAL104  LYS105  MET118  VAL119  MET120  GLU121  TYR122  VAL123  PRO124 
 GLY125  GLY126  GLU127  MET128  PHE129  TYR164  ASP166  LEU167  LYS168  PRO169 
 GLU170  ASN171  LEU172  LEU173  ILE174  GLN181  VAL182  THR183  ASP184  PHE185 
 GLY186  PHE187  GLY200  THR201  ASN326  PHE327  TYR330  ARG18   ARG19   ASN20  
 ALA21   ILE22   HIS23  

>  <Gold.Protein.RotatedAtoms>  (169) 
    9.7456   19.6193    8.5189 H   0  0  0  0  0  0  0  0  0  0  0  0  # atno 641  bound_to 637 
   15.6342   13.1717    7.1311 H   0  0  0  0  0  0  0  0  0  0  0  0  # atno 681  bound_to 677 
   20.3016   11.7092   -2.0286 H   0  0  0  0  0  0  0  0  0  0  0  0  # atno 702  bound_to 698 
   -6.5953   17.0161   -1.2393 H   0  0  0  0  0  0  0  0  0  0  0  0  # atno 965  bound_to 957 
    1.0223   12.1624   10.9940 H   0  0  0  0  0  0  0  0  0  0  0  0  # atno 1886 bound_to 1878
   10.5816    1.9929   -2.4237 H   0  0  0  0  0  0  0  0  0  0  0  0  # atno 2577 bound_to 2569
    8.0194    5.3600    0.4146 H   0  0  0  0  0  0  0  0  0  0  0  0  # atno 2891 bound_to 2887
   19.3518    2.9762   -0.7578 H   0  0  0  0  0  0  0  0  0  0  0  0  # atno 3175 bound_to 3171
   13.9348   10.2210    8.8390 H   0  0  0  0  0  0  0  0  0  0  0  0  # atno 5278 bound_to 5270
   17.0298   13.9343    7.0482 LP  0  0  0  0  0  0  0  0  0  0  0  0  # atno 5914 bound_to 677 
   16.6889   12.6996    6.0353 LP  0  0  0  0  0  0  0  0  0  0  0  0  # atno 5915 bound_to 677 
   19.3921   11.8284   -0.7263 LP  0  0  0  0  0  0  0  0  0  0  0  0  # atno 5920 bound_to 698 
   20.9951   11.5419   -0.6044 LP  0  0  0  0  0  0  0  0  0  0  0  0  # atno 5921 bound_to 698 
    9.2373    2.6552   -2.9618 LP  0  0  0  0  0  0  0  0  0  0  0  0  # atno 5950 bound_to 2569
   10.6917    3.3108   -3.3104 LP  0  0  0  0  0  0  0  0  0  0  0  0  # atno 5951 bound_to 2569
    7.1351    5.9430    1.6039 LP  0  0  0  0  0  0  0  0  0  0  0  0  # atno 5982 bound_to 2887
    8.0998    6.9208    0.7208 LP  0  0  0  0  0  0  0  0  0  0  0  0  # atno 5983 bound_to 2887
   18.3902    2.4362    0.3908 LP  0  0  0  0  0  0  0  0  0  0  0  0  # atno 6000 bound_to 3171
   18.1320    2.0403   -1.1723 LP  0  0  0  0  0  0  0  0  0  0  0  0  # atno 6001 bound_to 3171
   12.5891    9.9877    9.6582 LP  0  0  0  0  0  0  0  0  0  0  0  0  # atno 6004 bound_to 5270
   14.0460    9.8254   10.3778 LP  0  0  0  0  0  0  0  0  0  0  0  0  # atno 6005 bound_to 5270
   10.3706   18.9405    7.2213 LP  0  0  0  0  0  0  0  0  0  0  0  0  # atno 6055 bound_to 637 
   11.3301   19.4985    8.4191 LP  0  0  0  0  0  0  0  0  0  0  0  0  # atno 6056 bound_to 637 
    2.3035   11.4866   10.3328 LP  0  0  0  0  0  0  0  0  0  0  0  0  # atno 6063 bound_to 1878
    1.0056   10.5887   10.7519 LP  0  0  0  0  0  0  0  0  0  0  0  0  # atno 6064 bound_to 1878
   -7.2097   16.3249    0.0568 LP  0  0  0  0  0  0  0  0  0  0  0  0  # atno 6067 bound_to 957 
   -6.6522   15.4258   -1.1871 LP  0  0  0  0  0  0  0  0  0  0  0  0  # atno 6068 bound_to 957 

>  <STRIFE_LigEff_Score>  (169) 
2.878470588235294

$$$$
unknown|pharmsElabsTestPreDocking|sdf|170|dock3
     RDKit          3D

 16 16  0  0  0  0  0  0  0  0999 V2000
   13.4811    6.9391    3.5257 C   0  0  0  0  0  0  0  0  0  0  0  0
   13.3440    7.8414    2.2834 C   0  0  0  0  0  0  0  0  0  0  0  0
   13.7305    7.0783    1.0895 N   0  0  0  0  0  0  0  0  0  0  0  0
   11.8922    8.3971    2.1820 C   0  0  0  0  0  0  0  0  0  0  0  0
   10.8866    7.2303    2.0962 C   0  0  0  0  0  0  0  0  0  0  0  0
    9.4834    7.7624    1.8383 C   0  0  0  0  0  0  0  0  0  0  0  0
    9.0540    8.6982    2.9734 C   0  0  0  0  0  0  0  0  0  0  0  0
    7.6617    9.2072    2.7291 C   0  0  0  0  0  0  0  0  0  0  0  0
    7.4421   10.0539    1.8175 O   0  0  0  0  0  0  0  0  0  0  0  0
    6.5853    8.7154    3.5360 N   0  0  0  0  0  0  0  0  0  0  0  0
    5.2138    9.1800    3.3800 C   0  0  0  0  0  0  0  0  0  0  0  0
    4.6500    9.5479    4.7263 C   0  0  0  0  0  0  0  0  0  0  0  0
    5.4029   10.0991    5.6154 N   0  0  0  0  0  0  0  0  0  0  0  0
    3.2945    9.1985    5.0545 N   0  0  0  0  0  0  0  0  0  0  0  0
   10.0498    9.8573    3.1515 C   0  0  0  0  0  0  0  0  0  0  0  0
   11.4826    9.3317    3.3475 C   0  0  0  0  0  0  0  0  0  0  0  0
  1  2  1  0
  2  3  1  0
  2  4  1  0
  4  5  1  0
  5  6  1  0
  6  7  1  0
  7  8  1  0
  8  9  2  0
  8 10  1  0
 10 11  1  0
 11 12  1  0
 12 13  2  0
 12 14  1  0
  7 15  1  0
 15 16  1  0
 16  4  1  0
M  CHG  3   3   1  13   1  14   1
M  END
>  <EmbedRMS>  (170) 
0.03078882717110932

>  <Gold.Version>  (170) 
2020.3.0

>  <Gold.Id.Protein>  (170) 
unknown|1q8t_protein|pdb

>  <Gold.PLP.Fitness>  (170) 
40.9335

>  <Gold.PLP.PLP>  (170) 
-30.8663

>  <Gold.PLP.part.hbond>  (170) 
-3.0000

>  <Gold.PLP.part.metal>  (170) 
0.0000

>  <Gold.PLP.part.buried>  (170) 
-3.4396

>  <Gold.PLP.part.nonpolar>  (170) 
-25.6942

>  <Gold.PLP.part.repulsive>  (170) 
1.6784

>  <Gold.PLP.ligand.clash>  (170) 
0.0000

>  <Gold.PLP.ligand.torsion>  (170) 
0.5683

>  <Gold.PLP.Chemscore.Hbond>  (170) 
3.7030

>  <Gold.PLP.Chemscore.CHOScore>  (170) 
0.0000

>  <Gold.PLP.Chemscore.Metal>  (170) 
0.0000

>  <Gold.Chemscore.Hbonds>  (170) 
donor molecule, donor type, donor heavy atom, donor atom, acceptor molecule, acceptor atom, score
      L1  H     3    21       P1  2902  2.00
      L1  H     3    22       P1  2691  1.00
      L1  H    14    36       P1  1891  0.70

>  <Gold.PLP.Chemscore.Internal.Correction>  (170) 
0.0947

>  <Gold.PLP.Constraint>  (170) 
-0.0000

>  <Gold.Protein.RotatedTorsions>  (170) 
[  681  677  676  673 ] final   33.14 input -179.99 | X-H torsion
[  702  698  697  694 ] final  110.34 input  179.99 | X-H torsion
[ 2577 2569 2568 2566 ] final   66.92 input   -0.13 | X-H torsion
[ 2891 2887 2886 2883 ] final  119.72 input  179.98 | X-H torsion
[ 3175 3171 3170 3167 ] final   35.24 input -179.99 | X-H torsion
[ 5278 5270 5269 5267 ] final -120.55 input    0.55 | X-H torsion
[  641  637  636  633 ] final  144.50 input  179.99 | X-H torsion
[ 1886 1878 1877 1875 ] final   17.16 input    1.60 | X-H torsion
[  965  957  956  954 ] final   11.54 input    0.45 | X-H torsion

>  <Gold.Protein.ActiveResidues>  (170) 
 LYS47   THR48   LEU49   GLY50   THR51   GLY52   SER53   PHE54   GLY55   ARG56  
 VAL57   MET58   LEU59   TYR69   ALA70   MET71   LYS72   ILE73   LEU74   GLU91  
 LEU95   VAL104  LYS105  MET118  VAL119  MET120  GLU121  TYR122  VAL123  PRO124 
 GLY125  GLY126  GLU127  MET128  PHE129  TYR164  ASP166  LEU167  LYS168  PRO169 
 GLU170  ASN171  LEU172  LEU173  ILE174  GLN181  VAL182  THR183  ASP184  PHE185 
 GLY186  PHE187  GLY200  THR201  ASN326  PHE327  TYR330  ARG18   ARG19   ASN20  
 ALA21   ILE22   HIS23  

>  <Gold.Protein.RotatedAtoms>  (170) 
   11.1025   19.6069    8.6430 H   0  0  0  0  0  0  0  0  0  0  0  0  # atno 641  bound_to 637 
   16.2876   12.6029    6.1624 H   0  0  0  0  0  0  0  0  0  0  0  0  # atno 681  bound_to 677 
   20.0343   11.7562   -2.0075 H   0  0  0  0  0  0  0  0  0  0  0  0  # atno 702  bound_to 698 
   -6.7920   15.3748   -0.8415 H   0  0  0  0  0  0  0  0  0  0  0  0  # atno 965  bound_to 957 
    2.2488   11.5795   10.3538 H   0  0  0  0  0  0  0  0  0  0  0  0  # atno 1886 bound_to 1878
    9.2873    2.5433   -2.9008 H   0  0  0  0  0  0  0  0  0  0  0  0  # atno 2577 bound_to 2569
    8.0086    6.9155    0.7998 H   0  0  0  0  0  0  0  0  0  0  0  0  # atno 2891 bound_to 2887
   18.7355    2.4349   -1.4057 H   0  0  0  0  0  0  0  0  0  0  0  0  # atno 3175 bound_to 3171
   14.1683    9.8812   10.2265 H   0  0  0  0  0  0  0  0  0  0  0  0  # atno 5278 bound_to 5270
   15.7799   13.4909    7.3829 LP  0  0  0  0  0  0  0  0  0  0  0  0  # atno 5914 bound_to 677 
   17.2511   13.7417    6.7201 LP  0  0  0  0  0  0  0  0  0  0  0  0  # atno 5915 bound_to 677 
   19.5508   11.7957   -0.4902 LP  0  0  0  0  0  0  0  0  0  0  0  0  # atno 5920 bound_to 698 
   21.1176   11.5252   -0.8627 LP  0  0  0  0  0  0  0  0  0  0  0  0  # atno 5921 bound_to 698 
   10.5779    3.3592   -3.3524 LP  0  0  0  0  0  0  0  0  0  0  0  0  # atno 5950 bound_to 2569
   10.7139    2.0272   -2.4175 LP  0  0  0  0  0  0  0  0  0  0  0  0  # atno 5951 bound_to 2569
    8.1104    5.3933    0.3426 LP  0  0  0  0  0  0  0  0  0  0  0  0  # atno 5982 bound_to 2887
    7.1359    5.8333    1.5768 LP  0  0  0  0  0  0  0  0  0  0  0  0  # atno 5983 bound_to 2887
   19.2382    3.0119   -0.0093 LP  0  0  0  0  0  0  0  0  0  0  0  0  # atno 6000 bound_to 3171
   17.9326    2.0343   -0.0902 LP  0  0  0  0  0  0  0  0  0  0  0  0  # atno 6001 bound_to 3171
   13.7679   10.2302    8.7249 LP  0  0  0  0  0  0  0  0  0  0  0  0  # atno 6004 bound_to 5270
   12.6215    9.9404    9.8512 LP  0  0  0  0  0  0  0  0  0  0  0  0  # atno 6005 bound_to 5270
    9.5605   19.5147    8.2572 LP  0  0  0  0  0  0  0  0  0  0  0  0  # atno 6055 bound_to 637 
   10.7111   18.9373    7.2525 LP  0  0  0  0  0  0  0  0  0  0  0  0  # atno 6056 bound_to 637 
    1.0875   10.5498   10.7091 LP  0  0  0  0  0  0  0  0  0  0  0  0  # atno 6063 bound_to 1878
    0.9305   12.1392   11.0495 LP  0  0  0  0  0  0  0  0  0  0  0  0  # atno 6064 bound_to 1878
   -6.4893   16.7847   -1.5165 LP  0  0  0  0  0  0  0  0  0  0  0  0  # atno 6067 bound_to 957 
   -7.1654   16.6945   -0.0328 LP  0  0  0  0  0  0  0  0  0  0  0  0  # atno 6068 bound_to 957 

>  <STRIFE_LigEff_Score>  (170) 
2.55834375

$$$$
unknown|pharmsElabsTestPreDocking|sdf|171|dock6
     RDKit          3D

 18 19  0  0  0  0  0  0  0  0999 V2000
   14.4198    9.5003    1.1003 C   0  0  0  0  0  0  0  0  0  0  0  0
   13.6632    8.2593    1.5434 C   0  0  0  0  0  0  0  0  0  0  0  0
   13.9955    7.0445    0.8073 N   0  0  0  0  0  0  0  0  0  0  0  0
   12.1763    8.4532    1.9710 C   0  0  0  0  0  0  0  0  0  0  0  0
   11.5167    7.3352    2.7936 C   0  0  0  0  0  0  0  0  0  0  0  0
    9.9831    7.4859    2.8047 C   0  0  0  0  0  0  0  0  0  0  0  0
    9.4909    8.9200    2.5940 C   0  0  0  0  0  0  0  0  0  0  0  0
    8.0126    9.0990    2.7474 C   0  0  0  0  0  0  0  0  0  0  0  0
    7.4413    9.4299    1.6857 O   0  0  0  0  0  0  0  0  0  0  0  0
    7.2502    8.9214    3.9640 N   0  0  0  0  0  0  0  0  0  0  0  0
    5.8308    9.2288    4.1011 C   0  0  0  0  0  0  0  0  0  0  0  0
    4.9547    8.9268    3.0407 C   0  0  0  0  0  0  0  0  0  0  0  0
    3.5825    9.1973    3.1437 C   0  0  0  0  0  0  0  0  0  0  0  0
    3.0632    9.7811    4.2998 C   0  0  0  0  0  0  0  0  0  0  0  0
    3.9075   10.0861    5.3593 C   0  0  0  0  0  0  0  0  0  0  0  0
    5.2671    9.8042    5.2733 C   0  0  0  0  0  0  0  0  0  0  0  0
   10.3955   10.1045    2.8769 C   0  0  0  0  0  0  0  0  0  0  0  0
   11.8929    9.8201    2.6307 C   0  0  0  0  0  0  0  0  0  0  0  0
  1  2  1  0
  2  3  1  0
  2  4  1  0
  4  5  1  0
  5  6  1  0
  6  7  1  0
  7  8  1  0
  8  9  2  0
  8 10  1  0
 10 11  1  0
 11 12  2  0
 12 13  1  0
 13 14  2  0
 14 15  1  0
 15 16  2  0
  7 17  1  0
 17 18  1  0
 18  4  1  0
 16 11  1  0
M  CHG  1   3   1
M  END
>  <EmbedRMS>  (171) 
0.24964892458419108

>  <Gold.Version>  (171) 
2020.3.0

>  <Gold.Id.Protein>  (171) 
unknown|1q8t_protein|pdb

>  <Gold.PLP.Fitness>  (171) 
56.0407

>  <Gold.PLP.PLP>  (171) 
-48.0598

>  <Gold.PLP.part.hbond>  (171) 
-2.0000

>  <Gold.PLP.part.metal>  (171) 
0.0000

>  <Gold.PLP.part.buried>  (171) 
-1.3110

>  <Gold.PLP.part.nonpolar>  (171) 
-44.8719

>  <Gold.PLP.part.repulsive>  (171) 
0.0728

>  <Gold.PLP.ligand.clash>  (171) 
0.0000

>  <Gold.PLP.ligand.torsion>  (171) 
0.9405

>  <Gold.PLP.Chemscore.Hbond>  (171) 
2.9760

>  <Gold.PLP.Chemscore.CHOScore>  (171) 
0.0000

>  <Gold.PLP.Chemscore.Metal>  (171) 
0.0000

>  <Gold.Chemscore.Hbonds>  (171) 
donor molecule, donor type, donor heavy atom, donor atom, acceptor molecule, acceptor atom, score
      L1  H     3    23       P1  2691  0.98
      L1  H     3    25       P1  2902  2.00

>  <Gold.PLP.Chemscore.Internal.Correction>  (171) 
0.9339

>  <Gold.PLP.Constraint>  (171) 
-0.0000

>  <Gold.Protein.RotatedTorsions>  (171) 
[  681  677  676  673 ] final   81.77 input -179.99 | X-H torsion
[  702  698  697  694 ] final  -56.01 input  179.99 | X-H torsion
[ 2577 2569 2568 2566 ] final -146.18 input   -0.13 | X-H torsion
[ 2891 2887 2886 2883 ] final -166.16 input  179.98 | X-H torsion
[ 3175 3171 3170 3167 ] final   21.08 input -179.99 | X-H torsion
[ 5278 5270 5269 5267 ] final  177.45 input    0.55 | X-H torsion
[  641  637  636  633 ] final  179.53 input  179.99 | X-H torsion
[ 1886 1878 1877 1875 ] final   26.90 input    1.60 | X-H torsion
[  965  957  956  954 ] final   70.16 input    0.45 | X-H torsion

>  <Gold.Protein.ActiveResidues>  (171) 
 LYS47   THR48   LEU49   GLY50   THR51   GLY52   SER53   PHE54   GLY55   ARG56  
 VAL57   MET58   LEU59   TYR69   ALA70   MET71   LYS72   ILE73   LEU74   GLU91  
 LEU95   VAL104  LYS105  MET118  VAL119  MET120  GLU121  TYR122  VAL123  PRO124 
 GLY125  GLY126  GLU127  MET128  PHE129  TYR164  ASP166  LEU167  LYS168  PRO169 
 GLU170  ASN171  LEU172  LEU173  ILE174  GLN181  VAL182  THR183  ASP184  PHE185 
 GLY186  PHE187  GLY200  THR201  ASN326  PHE327  TYR330  ARG18   ARG19   ASN20  
 ALA21   ILE22   HIS23  

>  <Gold.Protein.RotatedAtoms>  (171) 
   11.3498   19.3783    8.2223 H   0  0  0  0  0  0  0  0  0  0  0  0  # atno 641  bound_to 637 
   16.9423   12.9336    6.0846 H   0  0  0  0  0  0  0  0  0  0  0  0  # atno 681  bound_to 677 
   20.2226   11.6887   -0.2390 H   0  0  0  0  0  0  0  0  0  0  0  0  # atno 702  bound_to 698 
   -7.1149   15.7611   -0.1239 H   0  0  0  0  0  0  0  0  0  0  0  0  # atno 965  bound_to 957 
    2.2225   11.7246   10.3902 H   0  0  0  0  0  0  0  0  0  0  0  0  # atno 1886 bound_to 1878
   10.9648    2.3134   -2.6182 H   0  0  0  0  0  0  0  0  0  0  0  0  # atno 2577 bound_to 2569
    7.3051    6.5292    1.5221 H   0  0  0  0  0  0  0  0  0  0  0  0  # atno 2891 bound_to 2887
   18.9080    2.5676   -1.3678 H   0  0  0  0  0  0  0  0  0  0  0  0  # atno 3175 bound_to 3171
   14.3852   10.0981    9.3560 H   0  0  0  0  0  0  0  0  0  0  0  0  # atno 5278 bound_to 5270
   15.5856   12.9004    6.9179 LP  0  0  0  0  0  0  0  0  0  0  0  0  # atno 5914 bound_to 677 
   16.7563   13.9841    7.2670 LP  0  0  0  0  0  0  0  0  0  0  0  0  # atno 5915 bound_to 677 
   21.0391   11.5533   -1.6000 LP  0  0  0  0  0  0  0  0  0  0  0  0  # atno 5920 bound_to 698 
   19.4313   11.8386   -1.6133 LP  0  0  0  0  0  0  0  0  0  0  0  0  # atno 5921 bound_to 698 
    9.3761    2.2106   -2.6429 LP  0  0  0  0  0  0  0  0  0  0  0  0  # atno 5950 bound_to 2569
   10.1493    3.4179   -3.4246 LP  0  0  0  0  0  0  0  0  0  0  0  0  # atno 5951 bound_to 2569
    8.3551    6.5029    0.3249 LP  0  0  0  0  0  0  0  0  0  0  0  0  # atno 5982 bound_to 2887
    7.6315    5.1304    0.8342 LP  0  0  0  0  0  0  0  0  0  0  0  0  # atno 5983 bound_to 2887
   19.1071    2.9381    0.1680 LP  0  0  0  0  0  0  0  0  0  0  0  0  # atno 6000 bound_to 3171
   17.8822    1.9685   -0.3074 LP  0  0  0  0  0  0  0  0  0  0  0  0  # atno 6001 bound_to 3171
   12.8364   10.1553    8.9890 LP  0  0  0  0  0  0  0  0  0  0  0  0  # atno 6004 bound_to 5270
   13.3248    9.7870   10.5030 LP  0  0  0  0  0  0  0  0  0  0  0  0  # atno 6005 bound_to 5270
    9.8663   19.7184    8.6897 LP  0  0  0  0  0  0  0  0  0  0  0  0  # atno 6055 bound_to 637 
   10.1449   18.9744    7.2631 LP  0  0  0  0  0  0  0  0  0  0  0  0  # atno 6056 bound_to 637 
    1.2261   10.5083   10.6410 LP  0  0  0  0  0  0  0  0  0  0  0  0  # atno 6063 bound_to 1878
    0.8195   12.0278   11.0794 LP  0  0  0  0  0  0  0  0  0  0  0  0  # atno 6064 bound_to 1878
   -6.4708   15.8637   -1.5764 LP  0  0  0  0  0  0  0  0  0  0  0  0  # atno 6067 bound_to 957 
   -6.8438   17.2087   -0.7287 LP  0  0  0  0  0  0  0  0  0  0  0  0  # atno 6068 bound_to 957 

>  <STRIFE_LigEff_Score>  (171) 
3.1133722222222224

$$$$
unknown|pharmsElabsTestPreDocking|sdf|172|dock1
     RDKit          3D

 18 18  0  0  0  0  0  0  0  0999 V2000
    3.5868    9.5034    1.4123 C   0  0  0  0  0  0  0  0  0  0  0  0
    4.7399   10.0943    1.7173 C   0  0  0  0  0  0  0  0  0  0  0  0
    5.7734    9.4622    2.5879 C   0  0  0  0  0  0  0  0  0  0  0  0
    5.4248    8.9195    3.7709 C   0  0  0  0  0  0  0  0  0  0  0  0
    4.0208    8.9005    4.3218 C   0  0  0  0  0  0  0  0  0  0  0  0
    3.8330   10.1047    5.6264 Cl  0  0  0  0  0  0  0  0  0  0  0  0
    7.1675    9.4293    2.1772 N   0  0  0  0  0  0  0  0  0  0  0  0
    8.2334    9.4683    3.1488 C   0  0  0  0  0  0  0  0  0  0  0  0
    7.9746    9.8311    4.3223 O   0  0  0  0  0  0  0  0  0  0  0  0
    9.6720    9.1008    2.9105 C   0  0  0  0  0  0  0  0  0  0  0  0
    9.8885    7.6357    2.6162 C   0  0  0  0  0  0  0  0  0  0  0  0
   11.2845    7.3289    2.0957 C   0  0  0  0  0  0  0  0  0  0  0  0
   12.4182    8.0761    2.7959 C   0  0  0  0  0  0  0  0  0  0  0  0
   13.8515    7.6999    2.2733 C   0  0  0  0  0  0  0  0  0  0  0  0
   14.7994    7.0443    3.2920 C   0  0  0  0  0  0  0  0  0  0  0  0
   13.8106    6.9073    1.0408 N   0  0  0  0  0  0  0  0  0  0  0  0
   12.1455    9.5448    3.1754 C   0  0  0  0  0  0  0  0  0  0  0  0
   10.7332    9.8097    3.7235 C   0  0  0  0  0  0  0  0  0  0  0  0
  1  2  2  0
  2  3  1  0
  3  4  2  0
  4  5  1  0
  5  6  1  0
  3  7  1  0
  7  8  1  0
  8  9  2  0
  8 10  1  0
 10 11  1  0
 11 12  1  0
 12 13  1  0
 13 14  1  0
 14 15  1  0
 14 16  1  0
 13 17  1  0
 17 18  1  0
 18 10  1  0
M  CHG  1  16   1
M  END
>  <EmbedRMS>  (172) 
0.26173100746407224

>  <Gold.Version>  (172) 
2020.3.0

>  <Gold.Id.Protein>  (172) 
unknown|1q8t_protein|pdb

>  <Gold.PLP.Fitness>  (172) 
52.1648

>  <Gold.PLP.PLP>  (172) 
-46.5872

>  <Gold.PLP.part.hbond>  (172) 
-1.9296

>  <Gold.PLP.part.metal>  (172) 
0.0000

>  <Gold.PLP.part.buried>  (172) 
-4.6871

>  <Gold.PLP.part.nonpolar>  (172) 
-39.5776

>  <Gold.PLP.part.repulsive>  (172) 
0.1164

>  <Gold.PLP.ligand.clash>  (172) 
0.0000

>  <Gold.PLP.ligand.torsion>  (172) 
2.4804

>  <Gold.PLP.Chemscore.Hbond>  (172) 
3.0000

>  <Gold.PLP.Chemscore.CHOScore>  (172) 
0.0000

>  <Gold.PLP.Chemscore.Metal>  (172) 
0.0000

>  <Gold.Chemscore.Hbonds>  (172) 
donor molecule, donor type, donor heavy atom, donor atom, acceptor molecule, acceptor atom, score
      L1  H    16    36       P1  2691  1.00
      L1  H    16    37       P1  2902  2.00

>  <Gold.PLP.Chemscore.Internal.Correction>  (172) 
1.5384

>  <Gold.PLP.Constraint>  (172) 
-0.0000

>  <Gold.Protein.RotatedTorsions>  (172) 
[  681  677  676  673 ] final  101.67 input -179.99 | X-H torsion
[  702  698  697  694 ] final -165.58 input  179.99 | X-H torsion
[ 2577 2569 2568 2566 ] final  163.61 input   -0.13 | X-H torsion
[ 2891 2887 2886 2883 ] final   53.69 input  179.98 | X-H torsion
[ 3175 3171 3170 3167 ] final    3.73 input -179.99 | X-H torsion
[ 5278 5270 5269 5267 ] final -162.36 input    0.55 | X-H torsion
[  641  637  636  633 ] final -132.47 input  179.99 | X-H torsion
[ 1886 1878 1877 1875 ] final -131.19 input    1.60 | X-H torsion
[  965  957  956  954 ] final -153.66 input    0.45 | X-H torsion

>  <Gold.Protein.ActiveResidues>  (172) 
 LYS47   THR48   LEU49   GLY50   THR51   GLY52   SER53   PHE54   GLY55   ARG56  
 VAL57   MET58   LEU59   TYR69   ALA70   MET71   LYS72   ILE73   LEU74   GLU91  
 LEU95   VAL104  LYS105  MET118  VAL119  MET120  GLU121  TYR122  VAL123  PRO124 
 GLY125  GLY126  GLU127  MET128  PHE129  TYR164  ASP166  LEU167  LYS168  PRO169 
 GLU170  ASN171  LEU172  LEU173  ILE174  GLN181  VAL182  THR183  ASP184  PHE185 
 GLY186  PHE187  GLY200  THR201  ASN326  PHE327  TYR330  ARG18   ARG19   ASN20  
 ALA21   ILE22   HIS23  

>  <Gold.Protein.RotatedAtoms>  (172) 
   11.1718   19.0650    7.5893 H   0  0  0  0  0  0  0  0  0  0  0  0  # atno 641  bound_to 637 
   17.1305   13.1564    6.1889 H   0  0  0  0  0  0  0  0  0  0  0  0  # atno 681  bound_to 677 
   21.0676   11.5618   -1.4283 H   0  0  0  0  0  0  0  0  0  0  0  0  # atno 702  bound_to 698 
   -6.7238   17.1457   -0.9544 H   0  0  0  0  0  0  0  0  0  0  0  0  # atno 965  bound_to 957 
    0.7819   10.8403   10.8745 H   0  0  0  0  0  0  0  0  0  0  0  0  # atno 1886 bound_to 1878
   10.3557    1.9205   -2.3901 H   0  0  0  0  0  0  0  0  0  0  0  0  # atno 2577 bound_to 2569
    8.3424    6.1894    0.2391 H   0  0  0  0  0  0  0  0  0  0  0  0  # atno 2891 bound_to 2887
   19.0963    2.7223   -1.2513 H   0  0  0  0  0  0  0  0  0  0  0  0  # atno 3175 bound_to 3171
   14.4251   10.0239    9.6586 H   0  0  0  0  0  0  0  0  0  0  0  0  # atno 5278 bound_to 5270
   15.6798   12.7100    6.6707 LP  0  0  0  0  0  0  0  0  0  0  0  0  # atno 5914 bound_to 677 
   16.4640   13.9401    7.4045 LP  0  0  0  0  0  0  0  0  0  0  0  0  # atno 5915 bound_to 677 
   19.5302   11.8238   -1.7525 LP  0  0  0  0  0  0  0  0  0  0  0  0  # atno 5920 bound_to 698 
   20.0513   11.7016   -0.2097 LP  0  0  0  0  0  0  0  0  0  0  0  0  # atno 5921 bound_to 698 
    9.2847    2.8603   -3.1007 LP  0  0  0  0  0  0  0  0  0  0  0  0  # atno 5950 bound_to 2569
   10.8821    3.1818   -3.2070 LP  0  0  0  0  0  0  0  0  0  0  0  0  # atno 5951 bound_to 2569
    7.4284    5.1969    1.0854 LP  0  0  0  0  0  0  0  0  0  0  0  0  # atno 5982 bound_to 2887
    7.4665    6.7940    1.4239 LP  0  0  0  0  0  0  0  0  0  0  0  0  # atno 5983 bound_to 2887
   18.9084    2.8118    0.3274 LP  0  0  0  0  0  0  0  0  0  0  0  0  # atno 6000 bound_to 3171
   17.8827    1.9320   -0.5894 LP  0  0  0  0  0  0  0  0  0  0  0  0  # atno 6001 bound_to 3171
   13.0992   10.2059    8.7951 LP  0  0  0  0  0  0  0  0  0  0  0  0  # atno 6004 bound_to 5270
   13.0199    9.8145   10.3785 LP  0  0  0  0  0  0  0  0  0  0  0  0  # atno 6005 bound_to 5270
   10.6033   19.7810    8.8928 LP  0  0  0  0  0  0  0  0  0  0  0  0  # atno 6055 bound_to 637 
    9.5954   19.2417    7.7266 LP  0  0  0  0  0  0  0  0  0  0  0  0  # atno 6056 bound_to 637 
    1.3235   12.3372   10.9099 LP  0  0  0  0  0  0  0  0  0  0  0  0  # atno 6063 bound_to 1878
    2.2387   11.1298   10.3006 LP  0  0  0  0  0  0  0  0  0  0  0  0  # atno 6064 bound_to 1878
   -7.1933   15.9717    0.0133 LP  0  0  0  0  0  0  0  0  0  0  0  0  # atno 6067 bound_to 957 
   -6.5333   15.6425   -1.4437 LP  0  0  0  0  0  0  0  0  0  0  0  0  # atno 6068 bound_to 957 

>  <STRIFE_LigEff_Score>  (172) 
2.8980444444444444

$$$$
unknown|pharmsElabsTestPreDocking|sdf|173|dock10
     RDKit          3D

 16 16  0  0  0  0  0  0  0  0999 V2000
    4.0311    9.6365    5.0231 C   0  0  0  0  0  0  0  0  0  0  0  0
    5.2607    9.4439    4.2570 N   0  0  0  0  0  0  0  0  0  0  0  0
    4.9426    8.8865    2.9354 C   0  0  0  0  0  0  0  0  0  0  0  0
    5.9525    9.3511    1.8885 C   0  0  0  0  0  0  0  0  0  0  0  0
    7.2669    8.7774    2.1544 N   0  0  0  0  0  0  0  0  0  0  0  0
    8.0922    9.2599    3.2139 C   0  0  0  0  0  0  0  0  0  0  0  0
    7.6866   10.1938    3.9609 O   0  0  0  0  0  0  0  0  0  0  0  0
    9.4409    8.6348    3.4391 C   0  0  0  0  0  0  0  0  0  0  0  0
    9.7497    7.6263    2.3365 C   0  0  0  0  0  0  0  0  0  0  0  0
   11.0381    6.8689    2.6212 C   0  0  0  0  0  0  0  0  0  0  0  0
   12.2330    7.7364    3.0996 C   0  0  0  0  0  0  0  0  0  0  0  0
   13.5535    7.7197    2.3051 C   0  0  0  0  0  0  0  0  0  0  0  0
   14.8598    7.9154    3.0744 C   0  0  0  0  0  0  0  0  0  0  0  0
   13.5030    8.5924    1.1241 N   0  0  0  0  0  0  0  0  0  0  0  0
   11.9060    9.1202    3.7406 C   0  0  0  0  0  0  0  0  0  0  0  0
   10.5247    9.7066    3.4567 C   0  0  0  0  0  0  0  0  0  0  0  0
  1  2  1  0
  2  3  1  0
  3  4  1  0
  4  5  1  0
  5  6  1  0
  6  7  2  0
  6  8  1  0
  8  9  1  0
  9 10  1  0
 10 11  1  0
 11 12  1  0
 12 13  1  0
 12 14  1  0
 11 15  1  0
 15 16  1  0
 16  8  1  0
M  CHG  2   2   1  14   1
M  END
>  <EmbedRMS>  (173) 
0.2153162907233524

>  <Gold.Version>  (173) 
2020.3.0

>  <Gold.Id.Protein>  (173) 
unknown|1q8t_protein|pdb

>  <Gold.PLP.Fitness>  (173) 
39.9240

>  <Gold.PLP.PLP>  (173) 
-32.1311

>  <Gold.PLP.part.hbond>  (173) 
-2.0000

>  <Gold.PLP.part.metal>  (173) 
0.0000

>  <Gold.PLP.part.buried>  (173) 
-0.9791

>  <Gold.PLP.part.nonpolar>  (173) 
-29.1353

>  <Gold.PLP.part.repulsive>  (173) 
0.0002

>  <Gold.PLP.ligand.clash>  (173) 
0.2660

>  <Gold.PLP.ligand.torsion>  (173) 
0.6908

>  <Gold.PLP.Chemscore.Hbond>  (173) 
2.9840

>  <Gold.PLP.Chemscore.CHOScore>  (173) 
0.0000

>  <Gold.PLP.Chemscore.Metal>  (173) 
0.0000

>  <Gold.Chemscore.Hbonds>  (173) 
donor molecule, donor type, donor heavy atom, donor atom, acceptor molecule, acceptor atom, score
      L1  H     5    26       P1  2887  1.00
      L1  H    14    38       P1  2902  1.98

>  <Gold.PLP.Chemscore.Internal.Correction>  (173) 
0.4885

>  <Gold.PLP.Constraint>  (173) 
-0.0000

>  <Gold.Protein.RotatedTorsions>  (173) 
[  681  677  676  673 ] final -146.02 input -179.99 | X-H torsion
[  702  698  697  694 ] final -126.85 input  179.99 | X-H torsion
[ 2577 2569 2568 2566 ] final  -64.44 input   -0.13 | X-H torsion
[ 2891 2887 2886 2883 ] final   17.84 input  179.98 | X-H torsion
[ 3175 3171 3170 3167 ] final  -16.02 input -179.99 | X-H torsion
[ 5278 5270 5269 5267 ] final   78.74 input    0.55 | X-H torsion
[  641  637  636  633 ] final -169.28 input  179.99 | X-H torsion
[ 1886 1878 1877 1875 ] final -169.66 input    1.60 | X-H torsion
[  965  957  956  954 ] final   82.93 input    0.45 | X-H torsion

>  <Gold.Protein.ActiveResidues>  (173) 
 LYS47   THR48   LEU49   GLY50   THR51   GLY52   SER53   PHE54   GLY55   ARG56  
 VAL57   MET58   LEU59   TYR69   ALA70   MET71   LYS72   ILE73   LEU74   GLU91  
 LEU95   VAL104  LYS105  MET118  VAL119  MET120  GLU121  TYR122  VAL123  PRO124 
 GLY125  GLY126  GLU127  MET128  PHE129  TYR164  ASP166  LEU167  LYS168  PRO169 
 GLU170  ASN171  LEU172  LEU173  ILE174  GLN181  VAL182  THR183  ASP184  PHE185 
 GLY186  PHE187  GLY200  THR201  ASN326  PHE327  TYR330  ARG18   ARG19   ASN20  
 ALA21   ILE22   HIS23  

>  <Gold.Protein.RotatedAtoms>  (173) 
   11.3627   19.2985    8.0676 H   0  0  0  0  0  0  0  0  0  0  0  0  # atno 641  bound_to 637 
   16.5655   13.9428    7.3186 H   0  0  0  0  0  0  0  0  0  0  0  0  # atno 681  bound_to 677 
   21.0629   11.5512   -0.8340 H   0  0  0  0  0  0  0  0  0  0  0  0  # atno 702  bound_to 698 
   -7.1525   15.9366   -0.0377 H   0  0  0  0  0  0  0  0  0  0  0  0  # atno 965  bound_to 957 
    0.6108   11.3796   11.0419 H   0  0  0  0  0  0  0  0  0  0  0  0  # atno 1886 bound_to 1878
   10.7107    3.2442   -3.2832 H   0  0  0  0  0  0  0  0  0  0  0  0  # atno 2577 bound_to 2569
    8.2175    5.6524    0.2551 H   0  0  0  0  0  0  0  0  0  0  0  0  # atno 2891 bound_to 2887
   19.2598    2.8714   -1.0382 H   0  0  0  0  0  0  0  0  0  0  0  0  # atno 3175 bound_to 3171
   13.1358   10.2143    8.8321 H   0  0  0  0  0  0  0  0  0  0  0  0  # atno 5278 bound_to 5270
   17.1067   13.0455    6.1194 LP  0  0  0  0  0  0  0  0  0  0  0  0  # atno 5914 bound_to 677 
   15.6318   12.7768    6.7667 LP  0  0  0  0  0  0  0  0  0  0  0  0  # atno 5915 bound_to 677 
   20.0658   11.7348   -2.0626 LP  0  0  0  0  0  0  0  0  0  0  0  0  # atno 5920 bound_to 698 
   19.5205   11.8018   -0.5248 LP  0  0  0  0  0  0  0  0  0  0  0  0  # atno 5921 bound_to 698 
   10.5510    1.9470   -2.3738 LP  0  0  0  0  0  0  0  0  0  0  0  0  # atno 5950 bound_to 2569
    9.2421    2.7014   -2.9936 LP  0  0  0  0  0  0  0  0  0  0  0  0  # atno 5951 bound_to 2569
    7.1804    5.5638    1.4606 LP  0  0  0  0  0  0  0  0  0  0  0  0  # atno 5982 bound_to 2887
    7.8459    6.9922    1.0320 LP  0  0  0  0  0  0  0  0  0  0  0  0  # atno 5983 bound_to 2887
   18.6529    2.6339    0.4147 LP  0  0  0  0  0  0  0  0  0  0  0  0  # atno 6000 bound_to 3171
   17.9662    1.9530   -0.9011 LP  0  0  0  0  0  0  0  0  0  0  0  0  # atno 6001 bound_to 3171
   13.0048    9.8168   10.3688 LP  0  0  0  0  0  0  0  0  0  0  0  0  # atno 6004 bound_to 5270
   14.4710   10.0033    9.6745 LP  0  0  0  0  0  0  0  0  0  0  0  0  # atno 6005 bound_to 5270
   10.0181   19.7587    8.7853 LP  0  0  0  0  0  0  0  0  0  0  0  0  # atno 6055 bound_to 637 
    9.9796   19.0180    7.3305 LP  0  0  0  0  0  0  0  0  0  0  0  0  # atno 6056 bound_to 637 
    1.8817   12.2552   10.6499 LP  0  0  0  0  0  0  0  0  0  0  0  0  # atno 6063 bound_to 1878
    1.8606   10.6441   10.3844 LP  0  0  0  0  0  0  0  0  0  0  0  0  # atno 6064 bound_to 1878
   -6.5181   15.6856   -1.4763 LP  0  0  0  0  0  0  0  0  0  0  0  0  # atno 6067 bound_to 957 
   -6.7570   17.2020   -0.9195 LP  0  0  0  0  0  0  0  0  0  0  0  0  # atno 6068 bound_to 957 

>  <STRIFE_LigEff_Score>  (173) 
2.49525

$$$$
unknown|pharmsElabsTestPreDocking|sdf|174|dock2
     RDKit          3D

 14 14  0  0  0  0  0  0  0  0999 V2000
    3.9030    9.8018    5.5985 C   0  0  0  0  0  0  0  0  0  0  0  0
    4.7414   10.0781    4.3565 C   0  0  0  0  0  0  0  0  0  0  0  0
    6.0790    9.5153    4.5080 N   0  0  0  0  0  0  0  0  0  0  0  0
    7.0431    9.5259    3.4483 C   0  0  0  0  0  0  0  0  0  0  0  0
    6.7798   10.1009    2.3549 O   0  0  0  0  0  0  0  0  0  0  0  0
    8.3831    8.8726    3.6557 C   0  0  0  0  0  0  0  0  0  0  0  0
    8.6660    7.8701    2.5384 C   0  0  0  0  0  0  0  0  0  0  0  0
    9.9460    7.0883    2.7985 C   0  0  0  0  0  0  0  0  0  0  0  0
   11.1600    7.9288    3.2772 C   0  0  0  0  0  0  0  0  0  0  0  0
   12.4749    7.8972    2.4731 C   0  0  0  0  0  0  0  0  0  0  0  0
   13.7930    7.9718    3.2436 C   0  0  0  0  0  0  0  0  0  0  0  0
   12.4656    8.8489    1.3536 N   0  0  0  0  0  0  0  0  0  0  0  0
   10.8622    9.3107    3.9356 C   0  0  0  0  0  0  0  0  0  0  0  0
    9.4879    9.9237    3.6723 C   0  0  0  0  0  0  0  0  0  0  0  0
  1  2  1  0
  2  3  1  0
  3  4  1  0
  4  5  2  0
  4  6  1  0
  6  7  1  0
  7  8  1  0
  8  9  1  0
  9 10  1  0
 10 11  1  0
 10 12  1  0
  9 13  1  0
 13 14  1  0
 14  6  1  0
M  CHG  1  12   1
M  END
>  <EmbedRMS>  (174) 
0.22880006867790334

>  <Gold.Version>  (174) 
2020.3.0

>  <Gold.Id.Protein>  (174) 
unknown|1q8t_protein|pdb

>  <Gold.PLP.Fitness>  (174) 
34.9549

>  <Gold.PLP.PLP>  (174) 
-29.5549

>  <Gold.PLP.part.hbond>  (174) 
-1.0000

>  <Gold.PLP.part.metal>  (174) 
0.0000

>  <Gold.PLP.part.buried>  (174) 
-0.3468

>  <Gold.PLP.part.nonpolar>  (174) 
-27.7982

>  <Gold.PLP.part.repulsive>  (174) 
0.0000

>  <Gold.PLP.ligand.clash>  (174) 
0.0000

>  <Gold.PLP.ligand.torsion>  (174) 
0.4986

>  <Gold.PLP.Chemscore.Hbond>  (174) 
2.0000

>  <Gold.PLP.Chemscore.CHOScore>  (174) 
0.0000

>  <Gold.PLP.Chemscore.Metal>  (174) 
0.0000

>  <Gold.Chemscore.Hbonds>  (174) 
donor molecule, donor type, donor heavy atom, donor atom, acceptor molecule, acceptor atom, score
      L1  H    12    32       P1  2902  2.00

>  <Gold.PLP.Chemscore.Internal.Correction>  (174) 
0.3973

>  <Gold.PLP.Constraint>  (174) 
-0.0000

>  <Gold.Protein.RotatedTorsions>  (174) 
[  681  677  676  673 ] final  169.77 input -179.99 | X-H torsion
[  702  698  697  694 ] final   55.16 input  179.99 | X-H torsion
[ 2577 2569 2568 2566 ] final    2.88 input   -0.13 | X-H torsion
[ 2891 2887 2886 2883 ] final  -61.30 input  179.98 | X-H torsion
[ 3175 3171 3170 3167 ] final   59.33 input -179.99 | X-H torsion
[ 5278 5270 5269 5267 ] final  104.54 input    0.55 | X-H torsion
[  641  637  636  633 ] final   55.87 input  179.99 | X-H torsion
[ 1886 1878 1877 1875 ] final   33.49 input    1.60 | X-H torsion
[  965  957  956  954 ] final  -66.37 input    0.45 | X-H torsion

>  <Gold.Protein.ActiveResidues>  (174) 
 LYS47   THR48   LEU49   GLY50   THR51   GLY52   SER53   PHE54   GLY55   ARG56  
 VAL57   MET58   LEU59   TYR69   ALA70   MET71   LYS72   ILE73   LEU74   GLU91  
 LEU95   VAL104  LYS105  MET118  VAL119  MET120  GLU121  TYR122  VAL123  PRO124 
 GLY125  GLY126  GLU127  MET128  PHE129  TYR164  ASP166  LEU167  LYS168  PRO169 
 GLU170  ASN171  LEU172  LEU173  ILE174  GLN181  VAL182  THR183  ASP184  PHE185 
 GLY186  PHE187  GLY200  THR201  ASN326  PHE327  TYR330  ARG18   ARG19   ASN20  
 ALA21   ILE22   HIS23  

>  <Gold.Protein.RotatedAtoms>  (174) 
    9.8533   19.6704    8.6306 H   0  0  0  0  0  0  0  0  0  0  0  0  # atno 641  bound_to 637 
   17.0921   13.8561    6.9065 H   0  0  0  0  0  0  0  0  0  0  0  0  # atno 681  bound_to 677 
   19.4135   11.8557   -1.4655 H   0  0  0  0  0  0  0  0  0  0  0  0  # atno 702  bound_to 698 
   -6.4402   16.1299   -1.5988 H   0  0  0  0  0  0  0  0  0  0  0  0  # atno 965  bound_to 957 
    2.1917   11.8184   10.4198 H   0  0  0  0  0  0  0  0  0  0  0  0  # atno 1886 bound_to 1878
    9.7210    3.2517   -3.3609 H   0  0  0  0  0  0  0  0  0  0  0  0  # atno 2577 bound_to 2569
    7.4779    5.2169    1.0075 H   0  0  0  0  0  0  0  0  0  0  0  0  # atno 2891 bound_to 2887
   18.4353    2.2203   -1.3464 H   0  0  0  0  0  0  0  0  0  0  0  0  # atno 3175 bound_to 3171
   13.5253   10.2401    8.7442 H   0  0  0  0  0  0  0  0  0  0  0  0  # atno 5278 bound_to 5270
   16.5362   12.6279    6.0588 LP  0  0  0  0  0  0  0  0  0  0  0  0  # atno 5914 bound_to 677 
   15.6481   13.2856    7.2611 LP  0  0  0  0  0  0  0  0  0  0  0  0  # atno 5915 bound_to 677 
   20.3617   11.6464   -0.2027 LP  0  0  0  0  0  0  0  0  0  0  0  0  # atno 5920 bound_to 698 
   20.9597   11.5697   -1.7203 LP  0  0  0  0  0  0  0  0  0  0  0  0  # atno 5921 bound_to 698 
   11.1180    2.6871   -2.8462 LP  0  0  0  0  0  0  0  0  0  0  0  0  # atno 5950 bound_to 2569
    9.7171    1.9533   -2.4393 LP  0  0  0  0  0  0  0  0  0  0  0  0  # atno 5951 bound_to 2569
    7.4194    6.7411    1.4658 LP  0  0  0  0  0  0  0  0  0  0  0  0  # atno 5982 bound_to 2887
    8.3853    6.2734    0.2349 LP  0  0  0  0  0  0  0  0  0  0  0  0  # atno 5983 bound_to 2887
   19.3734    3.0642   -0.3751 LP  0  0  0  0  0  0  0  0  0  0  0  0  # atno 6000 bound_to 3171
   18.1134    2.2079    0.2131 LP  0  0  0  0  0  0  0  0  0  0  0  0  # atno 6001 bound_to 3171
   12.7165    9.8874   10.0702 LP  0  0  0  0  0  0  0  0  0  0  0  0  # atno 6004 bound_to 5270
   14.3494    9.9056   10.0655 LP  0  0  0  0  0  0  0  0  0  0  0  0  # atno 6005 bound_to 5270
   10.2021   18.9632    7.2475 LP  0  0  0  0  0  0  0  0  0  0  0  0  # atno 6055 bound_to 637 
   11.3852   19.4219    8.2753 LP  0  0  0  0  0  0  0  0  0  0  0  0  # atno 6056 bound_to 637 
    1.3238   10.4951   10.5956 LP  0  0  0  0  0  0  0  0  0  0  0  0  # atno 6063 bound_to 1878
    0.7543   11.9423   11.0935 LP  0  0  0  0  0  0  0  0  0  0  0  0  # atno 6064 bound_to 1878
   -6.9538   17.1486   -0.4882 LP  0  0  0  0  0  0  0  0  0  0  0  0  # atno 6067 bound_to 957 
   -7.0715   15.5354   -0.2635 LP  0  0  0  0  0  0  0  0  0  0  0  0  # atno 6068 bound_to 957 

>  <STRIFE_LigEff_Score>  (174) 
2.4967785714285715

$$$$
unknown|pharmsElabsTestPreDocking|sdf|175|dock7
     RDKit          3D

 16 16  0  0  0  0  0  0  0  0999 V2000
   14.0842    7.1133    3.6844 C   0  0  0  0  0  0  0  0  0  0  0  0
   13.2182    7.7372    2.5770 C   0  0  0  0  0  0  0  0  0  0  0  0
   13.4197    7.0189    1.3151 N   0  0  0  0  0  0  0  0  0  0  0  0
   11.6984    7.9461    2.9152 C   0  0  0  0  0  0  0  0  0  0  0  0
   10.7487    7.5385    1.7898 C   0  0  0  0  0  0  0  0  0  0  0  0
    9.2686    7.6873    2.1066 C   0  0  0  0  0  0  0  0  0  0  0  0
    8.9490    8.9577    2.8568 C   0  0  0  0  0  0  0  0  0  0  0  0
    7.4819    9.2656    2.9316 C   0  0  0  0  0  0  0  0  0  0  0  0
    6.8023    8.8322    1.9700 O   0  0  0  0  0  0  0  0  0  0  0  0
    6.8206    9.9929    3.9801 N   0  0  0  0  0  0  0  0  0  0  0  0
    5.4022   10.3549    3.8448 C   0  0  0  0  0  0  0  0  0  0  0  0
    4.5425    9.1154    3.8946 C   0  0  0  0  0  0  0  0  0  0  0  0
    4.5429    8.2929    2.9041 N   0  0  0  0  0  0  0  0  0  0  0  0
    3.6498    8.9059    5.0000 N   0  0  0  0  0  0  0  0  0  0  0  0
    9.8027    9.2848    4.0617 C   0  0  0  0  0  0  0  0  0  0  0  0
   11.3023    9.1873    3.7390 C   0  0  0  0  0  0  0  0  0  0  0  0
  1  2  1  0
  2  3  1  0
  2  4  1  0
  4  5  1  0
  5  6  1  0
  6  7  1  0
  7  8  1  0
  8  9  2  0
  8 10  1  0
 10 11  1  0
 11 12  1  0
 12 13  2  0
 12 14  1  0
  7 15  1  0
 15 16  1  0
 16  4  1  0
M  CHG  2   3   1  14   1
M  END
>  <EmbedRMS>  (175) 
0.2785311156398337

>  <Gold.Version>  (175) 
2020.3.0

>  <Gold.Id.Protein>  (175) 
unknown|1q8t_protein|pdb

>  <Gold.PLP.Fitness>  (175) 
39.0638

>  <Gold.PLP.PLP>  (175) 
-30.4704

>  <Gold.PLP.part.hbond>  (175) 
-3.7000

>  <Gold.PLP.part.metal>  (175) 
0.0000

>  <Gold.PLP.part.buried>  (175) 
-1.5609

>  <Gold.PLP.part.nonpolar>  (175) 
-25.3899

>  <Gold.PLP.part.repulsive>  (175) 
0.1369

>  <Gold.PLP.ligand.clash>  (175) 
0.0000

>  <Gold.PLP.ligand.torsion>  (175) 
1.5069

>  <Gold.PLP.Chemscore.Hbond>  (175) 
3.5943

>  <Gold.PLP.Chemscore.CHOScore>  (175) 
0.0000

>  <Gold.PLP.Chemscore.Metal>  (175) 
0.0000

>  <Gold.Chemscore.Hbonds>  (175) 
donor molecule, donor type, donor heavy atom, donor atom, acceptor molecule, acceptor atom, score
      L1  H     3    22       P1  2902  2.00
      L1  H     3    23       P1  2691  0.94
      P1  H  2887  2891       L1     9  0.65

>  <Gold.PLP.Chemscore.Internal.Correction>  (175) 
0.8245

>  <Gold.PLP.Constraint>  (175) 
-0.0000

>  <Gold.Protein.RotatedTorsions>  (175) 
[  681  677  676  673 ] final   -6.18 input -179.99 | X-H torsion
[  702  698  697  694 ] final -118.24 input  179.99 | X-H torsion
[ 2577 2569 2568 2566 ] final  -80.29 input   -0.13 | X-H torsion
[ 2891 2887 2886 2883 ] final  158.48 input  179.98 | X-H torsion
[ 3175 3171 3170 3167 ] final   -4.54 input -179.99 | X-H torsion
[ 5278 5270 5269 5267 ] final  -92.78 input    0.55 | X-H torsion
[  641  637  636  633 ] final  -81.06 input  179.99 | X-H torsion
[ 1886 1878 1877 1875 ] final   -1.04 input    1.60 | X-H torsion
[  965  957  956  954 ] final   78.39 input    0.45 | X-H torsion

>  <Gold.Protein.ActiveResidues>  (175) 
 LYS47   THR48   LEU49   GLY50   THR51   GLY52   SER53   PHE54   GLY55   ARG56  
 VAL57   MET58   LEU59   TYR69   ALA70   MET71   LYS72   ILE73   LEU74   GLU91  
 LEU95   VAL104  LYS105  MET118  VAL119  MET120  GLU121  TYR122  VAL123  PRO124 
 GLY125  GLY126  GLU127  MET128  PHE129  TYR164  ASP166  LEU167  LYS168  PRO169 
 GLU170  ASN171  LEU172  LEU173  ILE174  GLN181  VAL182  THR183  ASP184  PHE185 
 GLY186  PHE187  GLY200  THR201  ASN326  PHE327  TYR330  ARG18   ARG19   ASN20  
 ALA21   ILE22   HIS23  

>  <Gold.Protein.RotatedAtoms>  (175) 
   10.4753   18.9403    7.2689 H   0  0  0  0  0  0  0  0  0  0  0  0  # atno 641  bound_to 637 
   15.8090   12.6677    6.5230 H   0  0  0  0  0  0  0  0  0  0  0  0  # atno 681  bound_to 677 
   21.0088   11.5584   -0.7111 H   0  0  0  0  0  0  0  0  0  0  0  0  # atno 702  bound_to 698 
   -7.1410   15.8719   -0.0642 H   0  0  0  0  0  0  0  0  0  0  0  0  # atno 965  bound_to 957 
    2.2349   11.2995   10.3122 H   0  0  0  0  0  0  0  0  0  0  0  0  # atno 1886 bound_to 1878
   10.8865    3.1080   -3.1757 H   0  0  0  0  0  0  0  0  0  0  0  0  # atno 2577 bound_to 2569
    7.6165    6.8792    1.2452 H   0  0  0  0  0  0  0  0  0  0  0  0  # atno 2891 bound_to 2887
   19.1725    2.7893   -1.1714 H   0  0  0  0  0  0  0  0  0  0  0  0  # atno 3175 bound_to 3171
   13.8017    9.8237   10.4439 H   0  0  0  0  0  0  0  0  0  0  0  0  # atno 5278 bound_to 5270
   16.2820   13.8728    7.4505 LP  0  0  0  0  0  0  0  0  0  0  0  0  # atno 5914 bound_to 677 
   17.2527   13.2917    6.2730 LP  0  0  0  0  0  0  0  0  0  0  0  0  # atno 5915 bound_to 677 
   20.2044   11.7105   -2.0775 LP  0  0  0  0  0  0  0  0  0  0  0  0  # atno 5920 bound_to 698 
   19.4389   11.8184   -0.6391 LP  0  0  0  0  0  0  0  0  0  0  0  0  # atno 5921 bound_to 698 
   10.3009    1.8813   -2.3465 LP  0  0  0  0  0  0  0  0  0  0  0  0  # atno 5950 bound_to 2569
    9.3071    2.9104   -3.1339 LP  0  0  0  0  0  0  0  0  0  0  0  0  # atno 5951 bound_to 2569
    8.3581    5.9468    0.1882 LP  0  0  0  0  0  0  0  0  0  0  0  0  # atno 5982 bound_to 2887
    7.3008    5.3182    1.2623 LP  0  0  0  0  0  0  0  0  0  0  0  0  # atno 5983 bound_to 2887
   18.8037    2.7407    0.3769 LP  0  0  0  0  0  0  0  0  0  0  0  0  # atno 6000 bound_to 3171
   17.9072    1.9326   -0.7231 LP  0  0  0  0  0  0  0  0  0  0  0  0  # atno 6001 bound_to 3171
   14.1656   10.1824    8.9354 LP  0  0  0  0  0  0  0  0  0  0  0  0  # atno 6004 bound_to 5270
   12.6095   10.0486    9.4120 LP  0  0  0  0  0  0  0  0  0  0  0  0  # atno 6005 bound_to 5270
   11.2815   19.5436    8.5022 LP  0  0  0  0  0  0  0  0  0  0  0  0  # atno 6055 bound_to 637 
    9.6506   19.6104    8.4546 LP  0  0  0  0  0  0  0  0  0  0  0  0  # atno 6056 bound_to 637 
    0.8583   10.6935   10.8347 LP  0  0  0  0  0  0  0  0  0  0  0  0  # atno 6063 bound_to 1878
    1.1744   12.2901   10.9676 LP  0  0  0  0  0  0  0  0  0  0  0  0  # atno 6064 bound_to 1878
   -6.4994   15.7460   -1.5160 LP  0  0  0  0  0  0  0  0  0  0  0  0  # atno 6067 bound_to 957 
   -6.7877   17.2097   -0.8519 LP  0  0  0  0  0  0  0  0  0  0  0  0  # atno 6068 bound_to 957 

>  <STRIFE_LigEff_Score>  (175) 
2.4414875

$$$$
unknown|pharmsElabsTestPreDocking|sdf|176|dock4
     RDKit          3D

 18 18  0  0  0  0  0  0  0  0999 V2000
    5.1951    9.1955    1.3542 C   0  0  0  0  0  0  0  0  0  0  0  0
    4.7684    9.0494    2.6114 C   0  0  0  0  0  0  0  0  0  0  0  0
    3.3060    8.7897    2.8721 C   0  0  0  0  0  0  0  0  0  0  0  0
    5.7171    9.2903    3.7387 C   0  0  0  0  0  0  0  0  0  0  0  0
    5.3342   10.0530    4.7801 C   0  0  0  0  0  0  0  0  0  0  0  0
    6.2339   10.3690    5.9344 C   0  0  0  0  0  0  0  0  0  0  0  0
    7.0782    8.8175    3.6746 N   0  0  0  0  0  0  0  0  0  0  0  0
    8.0696    9.3001    2.7599 C   0  0  0  0  0  0  0  0  0  0  0  0
    7.7545   10.1003    1.8337 O   0  0  0  0  0  0  0  0  0  0  0  0
    9.5029    8.8512    2.9219 C   0  0  0  0  0  0  0  0  0  0  0  0
    9.9183    8.0138    1.7185 C   0  0  0  0  0  0  0  0  0  0  0  0
   11.3117    7.4298    1.8681 C   0  0  0  0  0  0  0  0  0  0  0  0
   12.3468    8.3711    2.5129 C   0  0  0  0  0  0  0  0  0  0  0  0
   13.8420    8.1303    2.0996 C   0  0  0  0  0  0  0  0  0  0  0  0
   14.8362    7.9037    3.2486 C   0  0  0  0  0  0  0  0  0  0  0  0
   13.9789    7.0669    1.0977 N   0  0  0  0  0  0  0  0  0  0  0  0
   11.9239    9.7861    2.9605 C   0  0  0  0  0  0  0  0  0  0  0  0
   10.4143   10.0738    3.0752 C   0  0  0  0  0  0  0  0  0  0  0  0
  1  2  2  0
  2  3  1  0
  2  4  1  0
  4  5  2  0
  5  6  1  0
  4  7  1  0
  7  8  1  0
  8  9  2  0
  8 10  1  0
 10 11  1  0
 11 12  1  0
 12 13  1  0
 13 14  1  0
 14 15  1  0
 14 16  1  0
 13 17  1  0
 17 18  1  0
 18 10  1  0
M  CHG  1  16   1
M  END
>  <EmbedRMS>  (176) 
0.16480955270904202

>  <Gold.Version>  (176) 
2020.3.0

>  <Gold.Id.Protein>  (176) 
unknown|1q8t_protein|pdb

>  <Gold.PLP.Fitness>  (176) 
47.1464

>  <Gold.PLP.PLP>  (176) 
-41.4223

>  <Gold.PLP.part.hbond>  (176) 
-2.0000

>  <Gold.PLP.part.metal>  (176) 
0.0000

>  <Gold.PLP.part.buried>  (176) 
-3.1850

>  <Gold.PLP.part.nonpolar>  (176) 
-36.6923

>  <Gold.PLP.part.repulsive>  (176) 
0.0626

>  <Gold.PLP.ligand.clash>  (176) 
0.0000

>  <Gold.PLP.ligand.torsion>  (176) 
2.3784

>  <Gold.PLP.Chemscore.Hbond>  (176) 
3.0000

>  <Gold.PLP.Chemscore.CHOScore>  (176) 
0.0000

>  <Gold.PLP.Chemscore.Metal>  (176) 
0.0000

>  <Gold.Chemscore.Hbonds>  (176) 
donor molecule, donor type, donor heavy atom, donor atom, acceptor molecule, acceptor atom, score
      L1  H    16    39       P1  2691  1.00
      L1  H    16    40       P1  2902  2.00

>  <Gold.PLP.Chemscore.Internal.Correction>  (176) 
1.4809

>  <Gold.PLP.Constraint>  (176) 
-0.0000

>  <Gold.Protein.RotatedTorsions>  (176) 
[  681  677  676  673 ] final  -88.01 input -179.99 | X-H torsion
[  702  698  697  694 ] final -109.16 input  179.99 | X-H torsion
[ 2577 2569 2568 2566 ] final   58.39 input   -0.13 | X-H torsion
[ 2891 2887 2886 2883 ] final   -6.74 input  179.98 | X-H torsion
[ 3175 3171 3170 3167 ] final -145.81 input -179.99 | X-H torsion
[ 5278 5270 5269 5267 ] final -149.03 input    0.55 | X-H torsion
[  641  637  636  633 ] final   77.35 input  179.99 | X-H torsion
[ 1886 1878 1877 1875 ] final   73.16 input    1.60 | X-H torsion
[  965  957  956  954 ] final  157.47 input    0.45 | X-H torsion

>  <Gold.Protein.ActiveResidues>  (176) 
 LYS47   THR48   LEU49   GLY50   THR51   GLY52   SER53   PHE54   GLY55   ARG56  
 VAL57   MET58   LEU59   TYR69   ALA70   MET71   LYS72   ILE73   LEU74   GLU91  
 LEU95   VAL104  LYS105  MET118  VAL119  MET120  GLU121  TYR122  VAL123  PRO124 
 GLY125  GLY126  GLU127  MET128  PHE129  TYR164  ASP166  LEU167  LYS168  PRO169 
 GLU170  ASN171  LEU172  LEU173  ILE174  GLN181  VAL182  THR183  ASP184  PHE185 
 GLY186  PHE187  GLY200  THR201  ASN326  PHE327  TYR330  ARG18   ARG19   ASN20  
 ALA21   ILE22   HIS23  

>  <Gold.Protein.RotatedAtoms>  (176) 
   10.1336   19.7401    8.7978 H   0  0  0  0  0  0  0  0  0  0  0  0  # atno 641  bound_to 637 
   15.8168   13.5034    7.3467 H   0  0  0  0  0  0  0  0  0  0  0  0  # atno 681  bound_to 677 
   20.9328   11.5696   -0.5918 H   0  0  0  0  0  0  0  0  0  0  0  0  # atno 702  bound_to 698 
   -7.0242   16.9816   -0.2976 H   0  0  0  0  0  0  0  0  0  0  0  0  # atno 965  bound_to 957 
    1.8175   12.2349   10.6558 H   0  0  0  0  0  0  0  0  0  0  0  0  # atno 1886 bound_to 1878
    9.2861    2.6527   -2.9769 H   0  0  0  0  0  0  0  0  0  0  0  0  # atno 2577 bound_to 2569
    8.0231    5.3638    0.4111 H   0  0  0  0  0  0  0  0  0  0  0  0  # atno 2891 bound_to 2887
   18.5392    2.5224    0.3726 H   0  0  0  0  0  0  0  0  0  0  0  0  # atno 3175 bound_to 3171
   14.3910    9.9745    9.8577 H   0  0  0  0  0  0  0  0  0  0  0  0  # atno 5278 bound_to 5270
   17.2568   13.7307    6.7057 LP  0  0  0  0  0  0  0  0  0  0  0  0  # atno 5914 bound_to 677 
   16.2696   12.5542    6.1508 LP  0  0  0  0  0  0  0  0  0  0  0  0  # atno 5915 bound_to 677 
   20.3512   11.6844   -2.0703 LP  0  0  0  0  0  0  0  0  0  0  0  0  # atno 5920 bound_to 698 
   19.3721   11.8328   -0.7718 LP  0  0  0  0  0  0  0  0  0  0  0  0  # atno 5921 bound_to 698 
   10.6998    3.3067   -3.3070 LP  0  0  0  0  0  0  0  0  0  0  0  0  # atno 5950 bound_to 2569
   10.5933    1.9645   -2.3829 LP  0  0  0  0  0  0  0  0  0  0  0  0  # atno 5951 bound_to 2569
    7.1349    5.9365    1.6026 LP  0  0  0  0  0  0  0  0  0  0  0  0  # atno 5982 bound_to 2887
    8.0960    6.9233    0.7257 LP  0  0  0  0  0  0  0  0  0  0  0  0  # atno 5983 bound_to 2887
   18.0375    1.9875   -1.0408 LP  0  0  0  0  0  0  0  0  0  0  0  0  # atno 6000 bound_to 3171
   19.3398    2.9666   -0.9302 LP  0  0  0  0  0  0  0  0  0  0  0  0  # atno 6001 bound_to 3171
   13.3041   10.2263    8.7210 LP  0  0  0  0  0  0  0  0  0  0  0  0  # atno 6004 bound_to 5270
   12.8509    9.8462   10.2431 LP  0  0  0  0  0  0  0  0  0  0  0  0  # atno 6005 bound_to 5270
    9.8900   19.0502    7.3837 LP  0  0  0  0  0  0  0  0  0  0  0  0  # atno 6055 bound_to 637 
   11.4021   19.2615    7.9630 LP  0  0  0  0  0  0  0  0  0  0  0  0  # atno 6056 bound_to 637 
    1.8973   10.6701   10.3727 LP  0  0  0  0  0  0  0  0  0  0  0  0  # atno 6063 bound_to 1878
    0.5748   11.3289   11.0681 LP  0  0  0  0  0  0  0  0  0  0  0  0  # atno 6064 bound_to 1878
   -6.9783   15.3995   -0.4711 LP  0  0  0  0  0  0  0  0  0  0  0  0  # atno 6067 bound_to 957 
   -6.4319   16.3875   -1.6509 LP  0  0  0  0  0  0  0  0  0  0  0  0  # atno 6068 bound_to 957 

>  <STRIFE_LigEff_Score>  (176) 
2.6192444444444445

$$$$
unknown|pharmsElabsTestPreDocking|sdf|177|dock2
     RDKit          3D

 18 19  0  0  0  0  0  0  0  0999 V2000
   14.6829    9.1272    1.4111 C   0  0  0  0  0  0  0  0  0  0  0  0
   13.7180    8.0303    1.8613 C   0  0  0  0  0  0  0  0  0  0  0  0
   13.5029    7.0474    0.7905 N   0  0  0  0  0  0  0  0  0  0  0  0
   12.3994    8.4550    2.5367 C   0  0  0  0  0  0  0  0  0  0  0  0
   11.3493    7.3770    2.9172 C   0  0  0  0  0  0  0  0  0  0  0  0
    9.9679    7.5627    2.3076 C   0  0  0  0  0  0  0  0  0  0  0  0
    9.5012    9.0124    2.4126 C   0  0  0  0  0  0  0  0  0  0  0  0
    8.0792    9.1408    1.9392 C   0  0  0  0  0  0  0  0  0  0  0  0
    7.8294    9.1619    0.7034 O   0  0  0  0  0  0  0  0  0  0  0  0
    7.0298    9.2638    2.9069 N   0  0  0  0  0  0  0  0  0  0  0  0
    5.6305    9.3701    2.6058 C   0  0  0  0  0  0  0  0  0  0  0  0
    5.0109    9.3136    1.3663 C   0  0  0  0  0  0  0  0  0  0  0  0
    3.6811    9.4654    1.5232 N   0  0  0  0  0  0  0  0  0  0  0  0
    3.4374    9.6177    2.8390 C   0  0  0  0  0  0  0  0  0  0  0  0
    4.6260    9.5627    3.5315 C   0  0  0  0  0  0  0  0  0  0  0  0
    4.7711    9.6834    4.9471 N   0  0  0  0  0  0  0  0  0  0  0  0
   10.4182    9.8952    1.5734 C   0  0  0  0  0  0  0  0  0  0  0  0
   11.8667    9.8390    2.0542 C   0  0  0  0  0  0  0  0  0  0  0  0
  1  2  1  0
  2  3  1  0
  2  4  1  0
  4  5  1  0
  5  6  1  0
  6  7  1  0
  7  8  1  0
  8  9  2  0
  8 10  1  0
 10 11  1  0
 11 12  2  0
 12 13  1  0
 13 14  1  0
 14 15  2  0
 15 16  1  0
  7 17  1  0
 17 18  1  0
 18  4  1  0
 15 11  1  0
M  CHG  1   3   1
M  END
>  <EmbedRMS>  (177) 
0.20222811455084339

>  <Gold.Version>  (177) 
2020.3.0

>  <Gold.Id.Protein>  (177) 
unknown|1q8t_protein|pdb

>  <Gold.PLP.Fitness>  (177) 
45.9013

>  <Gold.PLP.PLP>  (177) 
-36.4543

>  <Gold.PLP.part.hbond>  (177) 
-2.8108

>  <Gold.PLP.part.metal>  (177) 
0.0000

>  <Gold.PLP.part.buried>  (177) 
-4.9664

>  <Gold.PLP.part.nonpolar>  (177) 
-29.4744

>  <Gold.PLP.part.repulsive>  (177) 
0.0952

>  <Gold.PLP.ligand.clash>  (177) 
0.0000

>  <Gold.PLP.ligand.torsion>  (177) 
1.0177

>  <Gold.PLP.Chemscore.Hbond>  (177) 
2.9600

>  <Gold.PLP.Chemscore.CHOScore>  (177) 
0.7343

>  <Gold.PLP.Chemscore.Metal>  (177) 
0.0000

>  <Gold.Chemscore.Hbonds>  (177) 
donor molecule, donor type, donor heavy atom, donor atom, acceptor molecule, acceptor atom, score
      L1  H     3    23       P1  2902  2.00
      L1  H     3    24       P1  2691  0.96
      L1  C    14    35       P1  1855  0.73

>  <Gold.PLP.Chemscore.Internal.Correction>  (177) 
0.3994

>  <Gold.PLP.Constraint>  (177) 
-0.0000

>  <Gold.Protein.RotatedTorsions>  (177) 
[  681  677  676  673 ] final   95.05 input -179.99 | X-H torsion
[  702  698  697  694 ] final   33.21 input  179.99 | X-H torsion
[ 2577 2569 2568 2566 ] final  -18.65 input   -0.13 | X-H torsion
[ 2891 2887 2886 2883 ] final   33.71 input  179.98 | X-H torsion
[ 3175 3171 3170 3167 ] final   30.58 input -179.99 | X-H torsion
[ 5278 5270 5269 5267 ] final   63.30 input    0.55 | X-H torsion
[  641  637  636  633 ] final   82.48 input  179.99 | X-H torsion
[ 1886 1878 1877 1875 ] final  -53.28 input    1.60 | X-H torsion
[  965  957  956  954 ] final  -18.99 input    0.45 | X-H torsion

>  <Gold.Protein.ActiveResidues>  (177) 
 LYS47   THR48   LEU49   GLY50   THR51   GLY52   SER53   PHE54   GLY55   ARG56  
 VAL57   MET58   LEU59   TYR69   ALA70   MET71   LYS72   ILE73   LEU74   GLU91  
 LEU95   VAL104  LYS105  MET118  VAL119  MET120  GLU121  TYR122  VAL123  PRO124 
 GLY125  GLY126  GLU127  MET128  PHE129  TYR164  ASP166  LEU167  LYS168  PRO169 
 GLU170  ASN171  LEU172  LEU173  ILE174  GLN181  VAL182  THR183  ASP184  PHE185 
 GLY186  PHE187  GLY200  THR201  ASN326  PHE327  TYR330  ARG18   ARG19   ASN20  
 ALA21   ILE22   HIS23  

>  <Gold.Protein.RotatedAtoms>  (177) 
   10.2091   19.7489    8.8233 H   0  0  0  0  0  0  0  0  0  0  0  0  # atno 641  bound_to 637 
   17.0763   13.0794    6.1461 H   0  0  0  0  0  0  0  0  0  0  0  0  # atno 681  bound_to 677 
   19.3502   11.8605   -1.1301 H   0  0  0  0  0  0  0  0  0  0  0  0  # atno 702  bound_to 698 
   -6.6056   15.5239   -1.2481 H   0  0  0  0  0  0  0  0  0  0  0  0  # atno 965  bound_to 957 
    1.7866   10.6569   10.4002 H   0  0  0  0  0  0  0  0  0  0  0  0  # atno 1886 bound_to 1878
   10.0349    3.3564   -3.4106 H   0  0  0  0  0  0  0  0  0  0  0  0  # atno 2577 bound_to 2569
    8.2995    5.8825    0.2153 H   0  0  0  0  0  0  0  0  0  0  0  0  # atno 2891 bound_to 2887
   18.7934    2.4786   -1.3992 H   0  0  0  0  0  0  0  0  0  0  0  0  # atno 3175 bound_to 3171
   12.9359   10.1803    8.9617 H   0  0  0  0  0  0  0  0  0  0  0  0  # atno 5278 bound_to 5270
   15.6376   12.7669    6.7533 LP  0  0  0  0  0  0  0  0  0  0  0  0  # atno 5914 bound_to 677 
   16.5633   13.9642    7.3668 LP  0  0  0  0  0  0  0  0  0  0  0  0  # atno 5915 bound_to 677 
   20.6956   11.5895   -0.3216 LP  0  0  0  0  0  0  0  0  0  0  0  0  # atno 5920 bound_to 698 
   20.6923   11.6216   -1.9542 LP  0  0  0  0  0  0  0  0  0  0  0  0  # atno 5921 bound_to 698 
   11.0568    2.4001   -2.6513 LP  0  0  0  0  0  0  0  0  0  0  0  0  # atno 5950 bound_to 2569
    9.4478    2.1302   -2.5818 LP  0  0  0  0  0  0  0  0  0  0  0  0  # atno 5951 bound_to 2569
    7.2671    5.3674    1.3132 LP  0  0  0  0  0  0  0  0  0  0  0  0  # atno 5982 bound_to 2887
    7.6730    6.9465    1.2213 LP  0  0  0  0  0  0  0  0  0  0  0  0  # atno 5983 bound_to 2887
   19.1988    2.9909    0.0530 LP  0  0  0  0  0  0  0  0  0  0  0  0  # atno 6000 bound_to 3171
   17.9111    2.0093   -0.1594 LP  0  0  0  0  0  0  0  0  0  0  0  0  # atno 6001 bound_to 3171
   13.2321    9.7922   10.4778 LP  0  0  0  0  0  0  0  0  0  0  0  0  # atno 6004 bound_to 5270
   14.4540   10.0637    9.4290 LP  0  0  0  0  0  0  0  0  0  0  0  0  # atno 6005 bound_to 5270
    9.8259   19.0780    7.4311 LP  0  0  0  0  0  0  0  0  0  0  0  0  # atno 6055 bound_to 637 
   11.3866   19.2245    7.8887 LP  0  0  0  0  0  0  0  0  0  0  0  0  # atno 6056 bound_to 637 
    0.5768   11.4332   11.0850 LP  0  0  0  0  0  0  0  0  0  0  0  0  # atno 6063 bound_to 1878
    1.9277   12.2269   10.6248 LP  0  0  0  0  0  0  0  0  0  0  0  0  # atno 6064 bound_to 1878
   -6.6406   17.1141   -1.1772 LP  0  0  0  0  0  0  0  0  0  0  0  0  # atno 6067 bound_to 957 
   -7.2105   16.2081    0.0561 LP  0  0  0  0  0  0  0  0  0  0  0  0  # atno 6068 bound_to 957 

>  <STRIFE_LigEff_Score>  (177) 
2.550072222222222

$$$$
unknown|pharmsElabsTestPreDocking|sdf|178|dock3
     RDKit          3D

 16 16  0  0  0  0  0  0  0  0999 V2000
   14.6430    9.2385    1.3167 C   0  0  0  0  0  0  0  0  0  0  0  0
   13.7599    8.0414    1.6257 C   0  0  0  0  0  0  0  0  0  0  0  0
   14.0460    6.8493    0.8345 N   0  0  0  0  0  0  0  0  0  0  0  0
   12.2662    8.3341    1.9668 C   0  0  0  0  0  0  0  0  0  0  0  0
   11.4359    7.1979    2.5843 C   0  0  0  0  0  0  0  0  0  0  0  0
    9.9264    7.5051    2.5055 C   0  0  0  0  0  0  0  0  0  0  0  0
    9.5873    8.9960    2.4326 C   0  0  0  0  0  0  0  0  0  0  0  0
    8.1248    9.3115    2.5365 C   0  0  0  0  0  0  0  0  0  0  0  0
    7.5125    9.3769    1.4421 O   0  0  0  0  0  0  0  0  0  0  0  0
    7.4123    9.5795    3.7552 N   0  0  0  0  0  0  0  0  0  0  0  0
    6.0062   10.0090    3.7250 C   0  0  0  0  0  0  0  0  0  0  0  0
    5.4800   10.3493    5.1262 C   0  0  0  0  0  0  0  0  0  0  0  0
    3.9718   10.0966    5.3005 C   0  0  0  0  0  0  0  0  0  0  0  0
    3.5968    8.7068    5.0034 N   0  0  0  0  0  0  0  0  0  0  0  0
   10.5772   10.0364    2.9349 C   0  0  0  0  0  0  0  0  0  0  0  0
   12.0569    9.6275    2.7799 C   0  0  0  0  0  0  0  0  0  0  0  0
  1  2  1  0
  2  3  1  0
  2  4  1  0
  4  5  1  0
  5  6  1  0
  6  7  1  0
  7  8  1  0
  8  9  2  0
  8 10  1  0
 10 11  1  0
 11 12  1  0
 12 13  1  0
 13 14  1  0
  7 15  1  0
 15 16  1  0
 16  4  1  0
M  CHG  2   3   1  14   1
M  END
>  <EmbedRMS>  (178) 
0.26685653268904913

>  <Gold.Version>  (178) 
2020.3.0

>  <Gold.Id.Protein>  (178) 
unknown|1q8t_protein|pdb

>  <Gold.PLP.Fitness>  (178) 
46.7362

>  <Gold.PLP.PLP>  (178) 
-35.2446

>  <Gold.PLP.part.hbond>  (178) 
-3.1708

>  <Gold.PLP.part.metal>  (178) 
0.0000

>  <Gold.PLP.part.buried>  (178) 
-2.9209

>  <Gold.PLP.part.nonpolar>  (178) 
-29.6963

>  <Gold.PLP.part.repulsive>  (178) 
0.1860

>  <Gold.PLP.ligand.clash>  (178) 
0.0000

>  <Gold.PLP.ligand.torsion>  (178) 
0.7685

>  <Gold.PLP.Chemscore.Hbond>  (178) 
3.9920

>  <Gold.PLP.Chemscore.CHOScore>  (178) 
0.0000

>  <Gold.PLP.Chemscore.Metal>  (178) 
0.0000

>  <Gold.Chemscore.Hbonds>  (178) 
donor molecule, donor type, donor heavy atom, donor atom, acceptor molecule, acceptor atom, score
      L1  H     3    21       P1  2902  2.00
      L1  H     3    23       P1  2691  0.99
      L1  H    14    39       P1  1891  1.00

>  <Gold.PLP.Chemscore.Internal.Correction>  (178) 
1.0525

>  <Gold.PLP.Constraint>  (178) 
-0.0000

>  <Gold.Protein.RotatedTorsions>  (178) 
[  681  677  676  673 ] final  -96.76 input -179.99 | X-H torsion
[  702  698  697  694 ] final   86.21 input  179.99 | X-H torsion
[ 2577 2569 2568 2566 ] final  -16.36 input   -0.13 | X-H torsion
[ 2891 2887 2886 2883 ] final   43.92 input  179.98 | X-H torsion
[ 3175 3171 3170 3167 ] final  -58.00 input -179.99 | X-H torsion
[ 5278 5270 5269 5267 ] final -161.94 input    0.55 | X-H torsion
[  641  637  636  633 ] final -164.62 input  179.99 | X-H torsion
[ 1886 1878 1877 1875 ] final   -5.00 input    1.60 | X-H torsion
[  965  957  956  954 ] final -172.75 input    0.45 | X-H torsion

>  <Gold.Protein.ActiveResidues>  (178) 
 LYS47   THR48   LEU49   GLY50   THR51   GLY52   SER53   PHE54   GLY55   ARG56  
 VAL57   MET58   LEU59   TYR69   ALA70   MET71   LYS72   ILE73   LEU74   GLU91  
 LEU95   VAL104  LYS105  MET118  VAL119  MET120  GLU121  TYR122  VAL123  PRO124 
 GLY125  GLY126  GLU127  MET128  PHE129  TYR164  ASP166  LEU167  LYS168  PRO169 
 GLU170  ASN171  LEU172  LEU173  ILE174  GLN181  VAL182  THR183  ASP184  PHE185 
 GLY186  PHE187  GLY200  THR201  ASN326  PHE327  TYR330  ARG18   ARG19   ASN20  
 ALA21   ILE22   HIS23  

>  <Gold.Protein.RotatedAtoms>  (178) 
   11.3580   19.2657    8.0027 H   0  0  0  0  0  0  0  0  0  0  0  0  # atno 641  bound_to 637 
   15.9064   13.5988    7.3859 H   0  0  0  0  0  0  0  0  0  0  0  0  # atno 681  bound_to 677 
   19.7001   11.8123   -1.8477 H   0  0  0  0  0  0  0  0  0  0  0  0  # atno 702  bound_to 698 
   -6.8465   17.1565   -0.6844 H   0  0  0  0  0  0  0  0  0  0  0  0  # atno 965  bound_to 957 
    2.2210   11.2394   10.3081 H   0  0  0  0  0  0  0  0  0  0  0  0  # atno 1886 bound_to 1878
    9.9998    3.3499   -3.4087 H   0  0  0  0  0  0  0  0  0  0  0  0  # atno 2577 bound_to 2569
    8.3302    6.0388    0.2172 H   0  0  0  0  0  0  0  0  0  0  0  0  # atno 2891 bound_to 2887
   19.3537    3.0217   -0.4214 H   0  0  0  0  0  0  0  0  0  0  0  0  # atno 3175 bound_to 3171
   14.4248   10.0223    9.6650 H   0  0  0  0  0  0  0  0  0  0  0  0  # atno 5278 bound_to 5270
   17.2893   13.6418    6.5974 LP  0  0  0  0  0  0  0  0  0  0  0  0  # atno 5914 bound_to 677 
   16.1429   12.5426    6.2178 LP  0  0  0  0  0  0  0  0  0  0  0  0  # atno 5915 bound_to 677 
   19.8689   11.7350   -0.2656 LP  0  0  0  0  0  0  0  0  0  0  0  0  # atno 5920 bound_to 698 
   21.1510   11.5268   -1.2554 LP  0  0  0  0  0  0  0  0  0  0  0  0  # atno 5921 bound_to 698 
   11.0694    2.4296   -2.6709 LP  0  0  0  0  0  0  0  0  0  0  0  0  # atno 5950 bound_to 2569
    9.4721    2.1075   -2.5643 LP  0  0  0  0  0  0  0  0  0  0  0  0  # atno 5951 bound_to 2569
    7.3431    5.2684    1.2014 LP  0  0  0  0  0  0  0  0  0  0  0  0  # atno 5982 bound_to 2887
    7.5646    6.8810    1.3311 LP  0  0  0  0  0  0  0  0  0  0  0  0  # atno 5983 bound_to 2887
   18.1398    2.2310    0.2397 LP  0  0  0  0  0  0  0  0  0  0  0  0  # atno 6000 bound_to 3171
   18.3804    2.1977   -1.3751 LP  0  0  0  0  0  0  0  0  0  0  0  0  # atno 6001 bound_to 3171
   13.1054   10.2067    8.7920 LP  0  0  0  0  0  0  0  0  0  0  0  0  # atno 6004 bound_to 5270
   13.0141    9.8154   10.3748 LP  0  0  0  0  0  0  0  0  0  0  0  0  # atno 6005 bound_to 5270
   10.0868   19.7712    8.8171 LP  0  0  0  0  0  0  0  0  0  0  0  0  # atno 6055 bound_to 637 
    9.9158   19.0402    7.3669 LP  0  0  0  0  0  0  0  0  0  0  0  0  # atno 6056 bound_to 637 
    0.8154   10.7351   10.8607 LP  0  0  0  0  0  0  0  0  0  0  0  0  # atno 6063 bound_to 1878
    1.2319   12.3118   10.9460 LP  0  0  0  0  0  0  0  0  0  0  0  0  # atno 6064 bound_to 1878
   -7.1349   15.6955   -0.1209 LP  0  0  0  0  0  0  0  0  0  0  0  0  # atno 6067 bound_to 957 
   -6.4625   15.9073   -1.5939 LP  0  0  0  0  0  0  0  0  0  0  0  0  # atno 6068 bound_to 957 

>  <STRIFE_LigEff_Score>  (178) 
2.9210125

$$$$
unknown|pharmsElabsTestPreDocking|sdf|179|dock2
     RDKit          3D

 18 19  0  0  0  0  0  0  0  0999 V2000
   14.1116    9.2347    1.4055 C   0  0  0  0  0  0  0  0  0  0  0  0
   13.4067    8.0218    2.0127 C   0  0  0  0  0  0  0  0  0  0  0  0
   13.1368    7.0034    0.9887 N   0  0  0  0  0  0  0  0  0  0  0  0
   12.1886    8.2703    2.9236 C   0  0  0  0  0  0  0  0  0  0  0  0
   11.2016    7.1095    3.2199 C   0  0  0  0  0  0  0  0  0  0  0  0
    9.7501    7.3706    2.8459 C   0  0  0  0  0  0  0  0  0  0  0  0
    9.2991    8.7594    3.2922 C   0  0  0  0  0  0  0  0  0  0  0  0
    7.8269    8.9366    3.0439 C   0  0  0  0  0  0  0  0  0  0  0  0
    7.3818    8.9022    1.8642 O   0  0  0  0  0  0  0  0  0  0  0  0
    6.9527    9.1683    4.1561 N   0  0  0  0  0  0  0  0  0  0  0  0
    5.5335    9.3317    4.0655 C   0  0  0  0  0  0  0  0  0  0  0  0
    4.6171    9.5479    5.0820 C   0  0  0  0  0  0  0  0  0  0  0  0
    3.3897    9.6343    4.5361 N   0  0  0  0  0  0  0  0  0  0  0  0
    3.5180    9.4895    3.2255 N   0  0  0  0  0  0  0  0  0  0  0  0
    2.4000    9.4970    2.2957 C   0  0  0  0  0  0  0  0  0  0  0  0
    4.8068    9.2922    2.8994 C   0  0  0  0  0  0  0  0  0  0  0  0
   10.0929    9.8124    2.5272 C   0  0  0  0  0  0  0  0  0  0  0  0
   11.5928    9.7056    2.7935 C   0  0  0  0  0  0  0  0  0  0  0  0
  1  2  1  0
  2  3  1  0
  2  4  1  0
  4  5  1  0
  5  6  1  0
  6  7  1  0
  7  8  1  0
  8  9  2  0
  8 10  1  0
 10 11  1  0
 11 12  1  0
 12 13  2  0
 13 14  1  0
 14 15  1  0
 14 16  1  0
  7 17  1  0
 17 18  1  0
 18  4  1  0
 16 11  2  0
M  CHG  1   3   1
M  END
>  <EmbedRMS>  (179) 
0.202216898800577

>  <Gold.Version>  (179) 
2020.3.0

>  <Gold.Id.Protein>  (179) 
unknown|1q8t_protein|pdb

>  <Gold.PLP.Fitness>  (179) 
46.7303

>  <Gold.PLP.PLP>  (179) 
-38.3015

>  <Gold.PLP.part.hbond>  (179) 
-3.2018

>  <Gold.PLP.part.metal>  (179) 
0.0000

>  <Gold.PLP.part.buried>  (179) 
2.4868

>  <Gold.PLP.part.nonpolar>  (179) 
-37.9123

>  <Gold.PLP.part.repulsive>  (179) 
0.1697

>  <Gold.PLP.ligand.clash>  (179) 
0.0000

>  <Gold.PLP.ligand.torsion>  (179) 
0.9453

>  <Gold.PLP.Chemscore.Hbond>  (179) 
3.3085

>  <Gold.PLP.Chemscore.CHOScore>  (179) 
0.0000

>  <Gold.PLP.Chemscore.Metal>  (179) 
0.0000

>  <Gold.Chemscore.Hbonds>  (179) 
donor molecule, donor type, donor heavy atom, donor atom, acceptor molecule, acceptor atom, score
      L1  H     3    24       P1  2902  2.00
      L1  H     3    25       P1  2691  0.50
      P1  H  1888  1903       L1    13  0.81

>  <Gold.PLP.Chemscore.Internal.Correction>  (179) 
0.3940

>  <Gold.PLP.Constraint>  (179) 
-0.0000

>  <Gold.Protein.RotatedTorsions>  (179) 
[  681  677  676  673 ] final   61.13 input -179.99 | X-H torsion
[  702  698  697  694 ] final  166.51 input  179.99 | X-H torsion
[ 2577 2569 2568 2566 ] final  -15.66 input   -0.13 | X-H torsion
[ 2891 2887 2886 2883 ] final -137.54 input  179.98 | X-H torsion
[ 3175 3171 3170 3167 ] final  142.31 input -179.99 | X-H torsion
[ 5278 5270 5269 5267 ] final   36.12 input    0.55 | X-H torsion
[  641  637  636  633 ] final  -43.62 input  179.99 | X-H torsion
[ 1886 1878 1877 1875 ] final  -80.20 input    1.60 | X-H torsion
[  965  957  956  954 ] final  -12.76 input    0.45 | X-H torsion

>  <Gold.Protein.ActiveResidues>  (179) 
 LYS47   THR48   LEU49   GLY50   THR51   GLY52   SER53   PHE54   GLY55   ARG56  
 VAL57   MET58   LEU59   TYR69   ALA70   MET71   LYS72   ILE73   LEU74   GLU91  
 LEU95   VAL104  LYS105  MET118  VAL119  MET120  GLU121  TYR122  VAL123  PRO124 
 GLY125  GLY126  GLU127  MET128  PHE129  TYR164  ASP166  LEU167  LYS168  PRO169 
 GLU170  ASN171  LEU172  LEU173  ILE174  GLN181  VAL182  THR183  ASP184  PHE185 
 GLY186  PHE187  GLY200  THR201  ASN326  PHE327  TYR330  ARG18   ARG19   ASN20  
 ALA21   ILE22   HIS23  

>  <Gold.Protein.RotatedAtoms>  (179) 
    9.9304   19.0465    7.4173 H   0  0  0  0  0  0  0  0  0  0  0  0  # atno 641  bound_to 637 
   16.6833   12.7459    6.0590 H   0  0  0  0  0  0  0  0  0  0  0  0  # atno 681  bound_to 677 
   20.8366   11.6097   -1.7905 H   0  0  0  0  0  0  0  0  0  0  0  0  # atno 702  bound_to 698 
   -6.6407   15.4744   -1.1720 H   0  0  0  0  0  0  0  0  0  0  0  0  # atno 965  bound_to 957 
    1.4128   10.5433   10.5457 H   0  0  0  0  0  0  0  0  0  0  0  0  # atno 1886 bound_to 1878
    9.9891    3.3477   -3.4079 H   0  0  0  0  0  0  0  0  0  0  0  0  # atno 2577 bound_to 2569
    7.1690    6.1116    1.5796 H   0  0  0  0  0  0  0  0  0  0  0  0  # atno 2891 bound_to 2887
   17.9325    1.9853   -0.2975 H   0  0  0  0  0  0  0  0  0  0  0  0  # atno 3175 bound_to 3171
   12.6952   10.0952    9.2966 H   0  0  0  0  0  0  0  0  0  0  0  0  # atno 5278 bound_to 5270
   15.5957   13.1433    7.1524 LP  0  0  0  0  0  0  0  0  0  0  0  0  # atno 5914 bound_to 677 
   17.0188   13.9388    7.0594 LP  0  0  0  0  0  0  0  0  0  0  0  0  # atno 5915 bound_to 677 
   19.3259   11.8521   -1.3472 LP  0  0  0  0  0  0  0  0  0  0  0  0  # atno 5920 bound_to 698 
   20.4984   11.6228   -0.2340 LP  0  0  0  0  0  0  0  0  0  0  0  0  # atno 5921 bound_to 698 
   11.0730    2.4388   -2.6770 LP  0  0  0  0  0  0  0  0  0  0  0  0  # atno 5950 bound_to 2569
    9.4798    2.1006   -2.5589 LP  0  0  0  0  0  0  0  0  0  0  0  0  # atno 5951 bound_to 2569
    8.1891    6.8419    0.5984 LP  0  0  0  0  0  0  0  0  0  0  0  0  # atno 5982 bound_to 2887
    7.9407    5.2309    0.5002 LP  0  0  0  0  0  0  0  0  0  0  0  0  # atno 5983 bound_to 2887
   18.8962    2.5739   -1.4201 LP  0  0  0  0  0  0  0  0  0  0  0  0  # atno 6000 bound_to 3171
   19.1197    2.9456    0.1542 LP  0  0  0  0  0  0  0  0  0  0  0  0  # atno 6001 bound_to 3171
   13.6735    9.7876   10.5153 LP  0  0  0  0  0  0  0  0  0  0  0  0  # atno 6004 bound_to 5270
   14.2658   10.1579    9.0392 LP  0  0  0  0  0  0  0  0  0  0  0  0  # atno 6005 bound_to 5270
   11.4042   19.2687    7.9772 LP  0  0  0  0  0  0  0  0  0  0  0  0  # atno 6055 bound_to 637 
   10.1019   19.7735    8.8233 LP  0  0  0  0  0  0  0  0  0  0  0  0  # atno 6056 bound_to 637 
    0.7004   11.8540   11.1023 LP  0  0  0  0  0  0  0  0  0  0  0  0  # atno 6063 bound_to 1878
    2.1977   11.9257   10.4544 LP  0  0  0  0  0  0  0  0  0  0  0  0  # atno 6064 bound_to 1878
   -6.6040   17.0638   -1.2587 LP  0  0  0  0  0  0  0  0  0  0  0  0  # atno 6067 bound_to 957 
   -7.2101   16.3107    0.0574 LP  0  0  0  0  0  0  0  0  0  0  0  0  # atno 6068 bound_to 957 

>  <STRIFE_LigEff_Score>  (179) 
2.596127777777778

$$$$
unknown|pharmsElabsTestPreDocking|sdf|180|dock5
     RDKit          3D

 18 19  0  0  0  0  0  0  0  0999 V2000
   14.4239    9.4670    1.1685 C   0  0  0  0  0  0  0  0  0  0  0  0
   13.6485    8.2291    1.5870 C   0  0  0  0  0  0  0  0  0  0  0  0
   13.9846    7.0173    0.8477 N   0  0  0  0  0  0  0  0  0  0  0  0
   12.1554    8.4324    1.9878 C   0  0  0  0  0  0  0  0  0  0  0  0
   11.5033    7.3671    2.8832 C   0  0  0  0  0  0  0  0  0  0  0  0
    9.9679    7.4968    2.8712 C   0  0  0  0  0  0  0  0  0  0  0  0
    9.4586    8.9052    2.5543 C   0  0  0  0  0  0  0  0  0  0  0  0
    7.9766    9.0742    2.6827 C   0  0  0  0  0  0  0  0  0  0  0  0
    7.4203    9.3952    1.6100 O   0  0  0  0  0  0  0  0  0  0  0  0
    7.1959    8.8975    3.8876 N   0  0  0  0  0  0  0  0  0  0  0  0
    5.7722    9.1952    4.0000 C   0  0  0  0  0  0  0  0  0  0  0  0
    5.2828    9.7856    5.1811 C   0  0  0  0  0  0  0  0  0  0  0  0
    3.9222   10.0967    5.3180 C   0  0  0  0  0  0  0  0  0  0  0  0
    3.0268    9.8159    4.2853 C   0  0  0  0  0  0  0  0  0  0  0  0
    3.4865    9.2354    3.1105 C   0  0  0  0  0  0  0  0  0  0  0  0
    4.8376    8.9406    2.9586 C   0  0  0  0  0  0  0  0  0  0  0  0
   10.3447   10.1195    2.7587 C   0  0  0  0  0  0  0  0  0  0  0  0
   11.8479    9.8390    2.5455 C   0  0  0  0  0  0  0  0  0  0  0  0
  1  2  1  0
  2  3  1  0
  2  4  1  0
  4  5  1  0
  5  6  1  0
  6  7  1  0
  7  8  1  0
  8  9  2  0
  8 10  1  0
 10 11  1  0
 11 12  2  0
 12 13  1  0
 13 14  2  0
 14 15  1  0
 15 16  2  0
  7 17  1  0
 17 18  1  0
 18  4  1  0
 16 11  1  0
M  CHG  1   3   1
M  END
>  <EmbedRMS>  (180) 
0.24964892458419108

>  <Gold.Version>  (180) 
2020.3.0

>  <Gold.Id.Protein>  (180) 
unknown|1q8t_protein|pdb

>  <Gold.PLP.Fitness>  (180) 
55.2891

>  <Gold.PLP.PLP>  (180) 
-47.4549

>  <Gold.PLP.part.hbond>  (180) 
-2.0000

>  <Gold.PLP.part.metal>  (180) 
0.0000

>  <Gold.PLP.part.buried>  (180) 
-1.3488

>  <Gold.PLP.part.nonpolar>  (180) 
-44.6249

>  <Gold.PLP.part.repulsive>  (180) 
0.0739

>  <Gold.PLP.ligand.clash>  (180) 
0.0000

>  <Gold.PLP.ligand.torsion>  (180) 
1.0144

>  <Gold.PLP.Chemscore.Hbond>  (180) 
2.9760

>  <Gold.PLP.Chemscore.CHOScore>  (180) 
0.0000

>  <Gold.PLP.Chemscore.Metal>  (180) 
0.0000

>  <Gold.Chemscore.Hbonds>  (180) 
donor molecule, donor type, donor heavy atom, donor atom, acceptor molecule, acceptor atom, score
      L1  H     3    23       P1  2691  0.99
      L1  H     3    25       P1  2902  1.98

>  <Gold.PLP.Chemscore.Internal.Correction>  (180) 
0.9349

>  <Gold.PLP.Constraint>  (180) 
-0.0000

>  <Gold.Protein.RotatedTorsions>  (180) 
[  681  677  676  673 ] final -135.87 input -179.99 | X-H torsion
[  702  698  697  694 ] final   66.82 input  179.99 | X-H torsion
[ 2577 2569 2568 2566 ] final -154.98 input   -0.13 | X-H torsion
[ 2891 2887 2886 2883 ] final  -50.26 input  179.98 | X-H torsion
[ 3175 3171 3170 3167 ] final -136.32 input -179.99 | X-H torsion
[ 5278 5270 5269 5267 ] final  106.72 input    0.55 | X-H torsion
[  641  637  636  633 ] final    2.61 input  179.99 | X-H torsion
[ 1886 1878 1877 1875 ] final  -11.31 input    1.60 | X-H torsion
[  965  957  956  954 ] final   71.18 input    0.45 | X-H torsion

>  <Gold.Protein.ActiveResidues>  (180) 
 LYS47   THR48   LEU49   GLY50   THR51   GLY52   SER53   PHE54   GLY55   ARG56  
 VAL57   MET58   LEU59   TYR69   ALA70   MET71   LYS72   ILE73   LEU74   GLU91  
 LEU95   VAL104  LYS105  MET118  VAL119  MET120  GLU121  TYR122  VAL123  PRO124 
 GLY125  GLY126  GLU127  MET128  PHE129  TYR164  ASP166  LEU167  LYS168  PRO169 
 GLU170  ASN171  LEU172  LEU173  ILE174  GLN181  VAL182  THR183  ASP184  PHE185 
 GLY186  PHE187  GLY200  THR201  ASN326  PHE327  TYR330  ARG18   ARG19   ASN20  
 ALA21   ILE22   HIS23  

>  <Gold.Protein.RotatedAtoms>  (180) 
    9.5807   19.3392    7.9522 H   0  0  0  0  0  0  0  0  0  0  0  0  # atno 641  bound_to 637 
   16.4210   13.9064    7.3721 H   0  0  0  0  0  0  0  0  0  0  0  0  # atno 681  bound_to 677 
   19.4968   11.8441   -1.6270 H   0  0  0  0  0  0  0  0  0  0  0  0  # atno 702  bound_to 698 
   -7.1186   15.7743   -0.1157 H   0  0  0  0  0  0  0  0  0  0  0  0  # atno 965  bound_to 957 
    2.1911   11.1456   10.3053 H   0  0  0  0  0  0  0  0  0  0  0  0  # atno 1886 bound_to 1878
   10.8907    2.2159   -2.5560 H   0  0  0  0  0  0  0  0  0  0  0  0  # atno 2577 bound_to 2569
    7.5844    5.1834    0.8761 H   0  0  0  0  0  0  0  0  0  0  0  0  # atno 2891 bound_to 2887
   18.6584    2.6104    0.3705 H   0  0  0  0  0  0  0  0  0  0  0  0  # atno 3175 bound_to 3171
   13.5594   10.2403    8.7447 H   0  0  0  0  0  0  0  0  0  0  0  0  # atno 5278 bound_to 5270
   17.1926   13.1700    6.1896 LP  0  0  0  0  0  0  0  0  0  0  0  0  # atno 5914 bound_to 677 
   15.6980   12.6907    6.6403 LP  0  0  0  0  0  0  0  0  0  0  0  0  # atno 5915 bound_to 677 
   20.1733   11.6797   -0.1943 LP  0  0  0  0  0  0  0  0  0  0  0  0  # atno 5920 bound_to 698 
   21.0606   11.5487   -1.5589 LP  0  0  0  0  0  0  0  0  0  0  0  0  # atno 5921 bound_to 698 
    9.3099    2.3139   -2.7195 LP  0  0  0  0  0  0  0  0  0  0  0  0  # atno 5950 bound_to 2569
   10.2935    3.4172   -3.4135 LP  0  0  0  0  0  0  0  0  0  0  0  0  # atno 5951 bound_to 2569
    7.3252    6.6065    1.5427 LP  0  0  0  0  0  0  0  0  0  0  0  0  # atno 5982 bound_to 2887
    8.3675    6.4432    0.2963 LP  0  0  0  0  0  0  0  0  0  0  0  0  # atno 5983 bound_to 2887
   17.9680    1.9538   -0.9054 LP  0  0  0  0  0  0  0  0  0  0  0  0  # atno 6000 bound_to 3171
   19.2839    2.9077   -1.0634 LP  0  0  0  0  0  0  0  0  0  0  0  0  # atno 6001 bound_to 3171
   12.6990    9.8947   10.0398 LP  0  0  0  0  0  0  0  0  0  0  0  0  # atno 6004 bound_to 5270
   14.3310    9.8980   10.0954 LP  0  0  0  0  0  0  0  0  0  0  0  0  # atno 6005 bound_to 5270
   11.0331   18.9940    7.3987 LP  0  0  0  0  0  0  0  0  0  0  0  0  # atno 6055 bound_to 637 
   10.8412   19.7400    8.8386 LP  0  0  0  0  0  0  0  0  0  0  0  0  # atno 6056 bound_to 637 
    0.7534   10.8081   10.9005 LP  0  0  0  0  0  0  0  0  0  0  0  0  # atno 6063 bound_to 1878
    1.3253   12.3376   10.9092 LP  0  0  0  0  0  0  0  0  0  0  0  0  # atno 6064 bound_to 1878
   -6.4740   15.8486   -1.5697 LP  0  0  0  0  0  0  0  0  0  0  0  0  # atno 6067 bound_to 957 
   -6.8368   17.2099   -0.7440 LP  0  0  0  0  0  0  0  0  0  0  0  0  # atno 6068 bound_to 957 

>  <STRIFE_LigEff_Score>  (180) 
3.0716166666666664

$$$$
unknown|pharmsElabsTestPreDocking|sdf|181|dock7
     RDKit          3D

 17 18  0  0  0  0  0  0  0  0999 V2000
   14.3846    8.9075    1.6108 C   0  0  0  0  0  0  0  0  0  0  0  0
   13.4386    7.7686    1.9881 C   0  0  0  0  0  0  0  0  0  0  0  0
   13.0705    6.9496    0.8314 N   0  0  0  0  0  0  0  0  0  0  0  0
   12.2269    8.0874    2.8979 C   0  0  0  0  0  0  0  0  0  0  0  0
   11.1098    7.0362    2.8271 C   0  0  0  0  0  0  0  0  0  0  0  0
    9.7376    7.4750    3.3095 C   0  0  0  0  0  0  0  0  0  0  0  0
    9.3900    8.8769    2.8765 C   0  0  0  0  0  0  0  0  0  0  0  0
    7.9386    9.2204    3.0334 C   0  0  0  0  0  0  0  0  0  0  0  0
    7.7193   10.0964    3.9001 O   0  0  0  0  0  0  0  0  0  0  0  0
    6.8359    8.6454    2.2996 N   0  0  0  0  0  0  0  0  0  0  0  0
    5.4525    8.9571    2.6047 C   0  0  0  0  0  0  0  0  0  0  0  0
    4.8526    9.0528    3.8595 C   0  0  0  0  0  0  0  0  0  0  0  0
    3.5294    9.3534    3.6309 C   0  0  0  0  0  0  0  0  0  0  0  0
    3.2953    9.4411    2.3096 N   0  0  0  0  0  0  0  0  0  0  0  0
    4.4594    9.2007    1.6752 C   0  0  0  0  0  0  0  0  0  0  0  0
   10.3950    9.9485    3.1878 C   0  0  0  0  0  0  0  0  0  0  0  0
   11.8007    9.5700    2.7253 C   0  0  0  0  0  0  0  0  0  0  0  0
  1  2  1  0
  2  3  1  0
  2  4  1  0
  4  5  1  0
  5  6  1  0
  6  7  1  0
  7  8  1  0
  8  9  2  0
  8 10  1  0
 10 11  1  0
 11 12  1  0
 12 13  2  0
 13 14  1  0
 14 15  1  0
  7 16  1  0
 16 17  1  0
 17  4  1  0
 15 11  2  0
M  CHG  1   3   1
M  END
>  <EmbedRMS>  (181) 
0.3005329260886256

>  <Gold.Version>  (181) 
2020.3.0

>  <Gold.Id.Protein>  (181) 
unknown|1q8t_protein|pdb

>  <Gold.PLP.Fitness>  (181) 
47.2091

>  <Gold.PLP.PLP>  (181) 
-38.6412

>  <Gold.PLP.part.hbond>  (181) 
-3.0334

>  <Gold.PLP.part.metal>  (181) 
0.0000

>  <Gold.PLP.part.buried>  (181) 
-4.2025

>  <Gold.PLP.part.nonpolar>  (181) 
-31.9387

>  <Gold.PLP.part.repulsive>  (181) 
0.1158

>  <Gold.PLP.ligand.clash>  (181) 
0.0000

>  <Gold.PLP.ligand.torsion>  (181) 
1.6190

>  <Gold.PLP.Chemscore.Hbond>  (181) 
3.7273

>  <Gold.PLP.Chemscore.CHOScore>  (181) 
0.0000

>  <Gold.PLP.Chemscore.Metal>  (181) 
0.0000

>  <Gold.Chemscore.Hbonds>  (181) 
donor molecule, donor type, donor heavy atom, donor atom, acceptor molecule, acceptor atom, score
      L1  H     3    22       P1  2691  0.45
      L1  H     3    24       P1  2902  1.89
      L1  H    10    31       P1  2887  0.40
      L1  H    14    34       P1  1855  0.99

>  <Gold.PLP.Chemscore.Internal.Correction>  (181) 
0.6241

>  <Gold.PLP.Constraint>  (181) 
-0.0000

>  <Gold.Protein.RotatedTorsions>  (181) 
[  681  677  676  673 ] final   26.30 input -179.99 | X-H torsion
[  702  698  697  694 ] final  -50.99 input  179.99 | X-H torsion
[ 2577 2569 2568 2566 ] final  -77.26 input   -0.13 | X-H torsion
[ 2891 2887 2886 2883 ] final  -87.71 input  179.98 | X-H torsion
[ 3175 3171 3170 3167 ] final   84.70 input -179.99 | X-H torsion
[ 5278 5270 5269 5267 ] final -171.70 input    0.55 | X-H torsion
[  641  637  636  633 ] final -150.37 input  179.99 | X-H torsion
[ 1886 1878 1877 1875 ] final    5.79 input    1.60 | X-H torsion
[  965  957  956  954 ] final  -65.27 input    0.45 | X-H torsion

>  <Gold.Protein.ActiveResidues>  (181) 
 LYS47   THR48   LEU49   GLY50   THR51   GLY52   SER53   PHE54   GLY55   ARG56  
 VAL57   MET58   LEU59   TYR69   ALA70   MET71   LYS72   ILE73   LEU74   GLU91  
 LEU95   VAL104  LYS105  MET118  VAL119  MET120  GLU121  TYR122  VAL123  PRO124 
 GLY125  GLY126  GLU127  MET128  PHE129  TYR164  ASP166  LEU167  LYS168  PRO169 
 GLU170  ASN171  LEU172  LEU173  ILE174  GLN181  VAL182  THR183  ASP184  PHE185 
 GLY186  PHE187  GLY200  THR201  ASN326  PHE327  TYR330  ARG18   ARG19   ASN20  
 ALA21   ILE22   HIS23  

>  <Gold.Protein.RotatedAtoms>  (181) 
   11.3076   19.1695    7.8089 H   0  0  0  0  0  0  0  0  0  0  0  0  # atno 641  bound_to 637 
   16.1925   12.5913    6.2098 H   0  0  0  0  0  0  0  0  0  0  0  0  # atno 681  bound_to 677 
   20.1454   11.7024   -0.2430 H   0  0  0  0  0  0  0  0  0  0  0  0  # atno 702  bound_to 698 
   -6.4415   16.1129   -1.5963 H   0  0  0  0  0  0  0  0  0  0  0  0  # atno 965  bound_to 957 
    2.2498   11.4045   10.3236 H   0  0  0  0  0  0  0  0  0  0  0  0  # atno 1886 bound_to 1878
   10.8566    3.1373   -3.1982 H   0  0  0  0  0  0  0  0  0  0  0  0  # atno 2577 bound_to 2569
    7.2704    5.4194    1.2963 H   0  0  0  0  0  0  0  0  0  0  0  0  # atno 2891 bound_to 2887
   18.1593    2.0445   -1.1281 H   0  0  0  0  0  0  0  0  0  0  0  0  # atno 3175 bound_to 3171
   14.4203   10.0588    9.5170 H   0  0  0  0  0  0  0  0  0  0  0  0  # atno 5278 bound_to 5270
   15.8509   13.5708    7.4181 LP  0  0  0  0  0  0  0  0  0  0  0  0  # atno 5914 bound_to 677 
   17.2802   13.6740    6.6351 LP  0  0  0  0  0  0  0  0  0  0  0  0  # atno 5915 bound_to 677 
   21.0758   11.5454   -1.5265 LP  0  0  0  0  0  0  0  0  0  0  0  0  # atno 5920 bound_to 698 
   19.4757   11.8321   -1.6825 LP  0  0  0  0  0  0  0  0  0  0  0  0  # atno 5921 bound_to 698 
   10.3502    1.8895   -2.3486 LP  0  0  0  0  0  0  0  0  0  0  0  0  # atno 5950 bound_to 2569
    9.2893    2.8715   -3.1082 LP  0  0  0  0  0  0  0  0  0  0  0  0  # atno 5951 bound_to 2569
    7.6885    6.9534    1.2050 LP  0  0  0  0  0  0  0  0  0  0  0  0  # atno 5982 bound_to 2887
    8.3347    5.8479    0.1917 LP  0  0  0  0  0  0  0  0  0  0  0  0  # atno 5983 bound_to 2887
   19.3764    3.0126   -0.7859 LP  0  0  0  0  0  0  0  0  0  0  0  0  # atno 6000 bound_to 3171
   18.4009    2.4446    0.3941 LP  0  0  0  0  0  0  0  0  0  0  0  0  # atno 6001 bound_to 3171
   12.9689   10.1852    8.8735 LP  0  0  0  0  0  0  0  0  0  0  0  0  # atno 6004 bound_to 5270
   13.1553    9.7985   10.4490 LP  0  0  0  0  0  0  0  0  0  0  0  0  # atno 6005 bound_to 5270
   10.3104   19.7921    8.8826 LP  0  0  0  0  0  0  0  0  0  0  0  0  # atno 6055 bound_to 637 
    9.7453   19.1205    7.5056 LP  0  0  0  0  0  0  0  0  0  0  0  0  # atno 6056 bound_to 637 
    0.9386   10.6301   10.7885 LP  0  0  0  0  0  0  0  0  0  0  0  0  # atno 6063 bound_to 1878
    1.0784   12.2430   11.0019 LP  0  0  0  0  0  0  0  0  0  0  0  0  # atno 6064 bound_to 1878
   -6.9468   17.1550   -0.5036 LP  0  0  0  0  0  0  0  0  0  0  0  0  # atno 6067 bound_to 957 
   -7.0772   15.5470   -0.2507 LP  0  0  0  0  0  0  0  0  0  0  0  0  # atno 6068 bound_to 957 

>  <STRIFE_LigEff_Score>  (181) 
2.7770058823529413

$$$$
unknown|pharmsElabsTestPreDocking|sdf|182|dock7
     RDKit          3D

 19 20  0  0  0  0  0  0  0  0999 V2000
    3.8462    9.8499    5.6192 C   0  0  0  0  0  0  0  0  0  0  0  0
    4.2546    9.5210    4.2171 C   0  0  0  0  0  0  0  0  0  0  0  0
    3.2997    9.5424    3.1992 C   0  0  0  0  0  0  0  0  0  0  0  0
    3.6645    9.2824    1.9253 N   0  0  0  0  0  0  0  0  0  0  0  0
    4.9436    9.0019    1.5869 C   0  0  0  0  0  0  0  0  0  0  0  0
    5.9703    8.9567    2.5686 C   0  0  0  0  0  0  0  0  0  0  0  0
    7.3680    8.6673    2.2563 N   0  0  0  0  0  0  0  0  0  0  0  0
    8.4950    9.1652    3.0187 C   0  0  0  0  0  0  0  0  0  0  0  0
    8.3185    9.9918    3.9382 O   0  0  0  0  0  0  0  0  0  0  0  0
    9.9403    8.8202    2.8225 C   0  0  0  0  0  0  0  0  0  0  0  0
   10.1829    7.3528    2.5627 C   0  0  0  0  0  0  0  0  0  0  0  0
   11.5812    7.0650    2.0420 C   0  0  0  0  0  0  0  0  0  0  0  0
   12.6987    7.8610    2.7142 C   0  0  0  0  0  0  0  0  0  0  0  0
   14.1373    7.5051    2.1948 C   0  0  0  0  0  0  0  0  0  0  0  0
   15.0135    6.6613    3.1359 C   0  0  0  0  0  0  0  0  0  0  0  0
   14.1193    6.9110    0.8548 N   0  0  0  0  0  0  0  0  0  0  0  0
   12.3938    9.3335    3.0577 C   0  0  0  0  0  0  0  0  0  0  0  0
   10.9800    9.5791    3.6098 C   0  0  0  0  0  0  0  0  0  0  0  0
    5.5944    9.2348    3.8960 C   0  0  0  0  0  0  0  0  0  0  0  0
  1  2  1  0
  2  3  2  0
  3  4  1  0
  4  5  2  0
  5  6  1  0
  6  7  1  0
  7  8  1  0
  8  9  2  0
  8 10  1  0
 10 11  1  0
 11 12  1  0
 12 13  1  0
 13 14  1  0
 14 15  1  0
 14 16  1  0
 13 17  1  0
 17 18  1  0
  6 19  2  0
 19  2  1  0
 18 10  1  0
M  CHG  1  16   1
M  END
>  <EmbedRMS>  (182) 
0.25305704271175244

>  <Gold.Version>  (182) 
2020.3.0

>  <Gold.Id.Protein>  (182) 
unknown|1q8t_protein|pdb

>  <Gold.PLP.Fitness>  (182) 
59.7061

>  <Gold.PLP.PLP>  (182) 
-48.1933

>  <Gold.PLP.part.hbond>  (182) 
-3.0000

>  <Gold.PLP.part.metal>  (182) 
0.0000

>  <Gold.PLP.part.buried>  (182) 
-3.7892

>  <Gold.PLP.part.nonpolar>  (182) 
-41.6363

>  <Gold.PLP.part.repulsive>  (182) 
0.1957

>  <Gold.PLP.ligand.clash>  (182) 
0.0000

>  <Gold.PLP.ligand.torsion>  (182) 
1.7787

>  <Gold.PLP.Chemscore.Hbond>  (182) 
3.7888

>  <Gold.PLP.Chemscore.CHOScore>  (182) 
0.9467

>  <Gold.PLP.Chemscore.Metal>  (182) 
0.0000

>  <Gold.Chemscore.Hbonds>  (182) 
donor molecule, donor type, donor heavy atom, donor atom, acceptor molecule, acceptor atom, score
      L1  H     7    25       P1  2887  0.79
      L1  H    16    37       P1  2691  1.00
      L1  H    16    38       P1  2902  2.00
      L1  C     3    23       P1  1855  0.95

>  <Gold.PLP.Chemscore.Internal.Correction>  (182) 
0.8636

>  <Gold.PLP.Constraint>  (182) 
-0.0000

>  <Gold.Protein.RotatedTorsions>  (182) 
[  681  677  676  673 ] final  -61.02 input -179.99 | X-H torsion
[  702  698  697  694 ] final  164.67 input  179.99 | X-H torsion
[ 2577 2569 2568 2566 ] final  -60.81 input   -0.13 | X-H torsion
[ 2891 2887 2886 2883 ] final  -76.25 input  179.98 | X-H torsion
[ 3175 3171 3170 3167 ] final  164.67 input -179.99 | X-H torsion
[ 5278 5270 5269 5267 ] final   34.52 input    0.55 | X-H torsion
[  641  637  636  633 ] final -152.04 input  179.99 | X-H torsion
[ 1886 1878 1877 1875 ] final  -23.29 input    1.60 | X-H torsion
[  965  957  956  954 ] final -116.47 input    0.45 | X-H torsion

>  <Gold.Protein.ActiveResidues>  (182) 
 LYS47   THR48   LEU49   GLY50   THR51   GLY52   SER53   PHE54   GLY55   ARG56  
 VAL57   MET58   LEU59   TYR69   ALA70   MET71   LYS72   ILE73   LEU74   GLU91  
 LEU95   VAL104  LYS105  MET118  VAL119  MET120  GLU121  TYR122  VAL123  PRO124 
 GLY125  GLY126  GLU127  MET128  PHE129  TYR164  ASP166  LEU167  LYS168  PRO169 
 GLU170  ASN171  LEU172  LEU173  ILE174  GLN181  VAL182  THR183  ASP184  PHE185 
 GLY186  PHE187  GLY200  THR201  ASN326  PHE327  TYR330  ARG18   ARG19   ASN20  
 ALA21   ILE22   HIS23  

>  <Gold.Protein.RotatedAtoms>  (182) 
   11.3162   19.1803    7.8310 H   0  0  0  0  0  0  0  0  0  0  0  0  # atno 641  bound_to 637 
   15.6381   13.1854    7.1422 H   0  0  0  0  0  0  0  0  0  0  0  0  # atno 681  bound_to 677 
   20.8157   11.6138   -1.8098 H   0  0  0  0  0  0  0  0  0  0  0  0  # atno 702  bound_to 698 
   -6.5216   16.8581   -1.4046 H   0  0  0  0  0  0  0  0  0  0  0  0  # atno 965  bound_to 957 
    2.1095   10.9776   10.3126 H   0  0  0  0  0  0  0  0  0  0  0  0  # atno 1886 bound_to 1878
   10.6641    3.2692   -3.3039 H   0  0  0  0  0  0  0  0  0  0  0  0  # atno 2577 bound_to 2569
    7.3504    5.3117    1.1779 H   0  0  0  0  0  0  0  0  0  0  0  0  # atno 2891 bound_to 2887
   18.0326    2.1003    0.0147 H   0  0  0  0  0  0  0  0  0  0  0  0  # atno 3175 bound_to 3171
   12.6865   10.0895    9.3193 H   0  0  0  0  0  0  0  0  0  0  0  0  # atno 5278 bound_to 5270
   17.0423   13.9289    7.0350 LP  0  0  0  0  0  0  0  0  0  0  0  0  # atno 5914 bound_to 677 
   16.6722   12.6907    6.0368 LP  0  0  0  0  0  0  0  0  0  0  0  0  # atno 5915 bound_to 677 
   19.3196   11.8527   -1.3176 LP  0  0  0  0  0  0  0  0  0  0  0  0  # atno 5920 bound_to 698 
   20.5268   11.6180   -0.2433 LP  0  0  0  0  0  0  0  0  0  0  0  0  # atno 5921 bound_to 698 
   10.6050    1.9698   -2.3856 LP  0  0  0  0  0  0  0  0  0  0  0  0  # atno 5950 bound_to 2569
    9.2371    2.6523   -2.9598 LP  0  0  0  0  0  0  0  0  0  0  0  0  # atno 5951 bound_to 2569
    7.5663    6.8823    1.3295 LP  0  0  0  0  0  0  0  0  0  0  0  0  # atno 5982 bound_to 2887
    8.3726    6.0323    0.1919 LP  0  0  0  0  0  0  0  0  0  0  0  0  # atno 5983 bound_to 2887
   18.6052    2.3545   -1.4493 LP  0  0  0  0  0  0  0  0  0  0  0  0  # atno 6000 bound_to 3171
   19.3054    3.0439   -0.1451 LP  0  0  0  0  0  0  0  0  0  0  0  0  # atno 6001 bound_to 3171
   13.6995    9.7889   10.5111 LP  0  0  0  0  0  0  0  0  0  0  0  0  # atno 6004 bound_to 5270
   14.2490   10.1625    9.0195 LP  0  0  0  0  0  0  0  0  0  0  0  0  # atno 6005 bound_to 5270
   10.2834   19.7910    8.8775 LP  0  0  0  0  0  0  0  0  0  0  0  0  # atno 6055 bound_to 637 
    9.7632   19.1102    7.4874 LP  0  0  0  0  0  0  0  0  0  0  0  0  # atno 6056 bound_to 637 
    0.6589   10.9665   10.9692 LP  0  0  0  0  0  0  0  0  0  0  0  0  # atno 6063 bound_to 1878
    1.5058   12.3561   10.8328 LP  0  0  0  0  0  0  0  0  0  0  0  0  # atno 6064 bound_to 1878
   -7.1876   16.5731    0.0133 LP  0  0  0  0  0  0  0  0  0  0  0  0  # atno 6067 bound_to 957 
   -6.7520   15.3439   -0.9696 LP  0  0  0  0  0  0  0  0  0  0  0  0  # atno 6068 bound_to 957 

>  <STRIFE_LigEff_Score>  (182) 
3.1424263157894736

$$$$
unknown|pharmsElabsTestPreDocking|sdf|183|dock5
     RDKit          3D

 18 19  0  0  0  0  0  0  0  0999 V2000
   14.5214    9.2935    1.2505 C   0  0  0  0  0  0  0  0  0  0  0  0
   13.6776    8.0872    1.6270 C   0  0  0  0  0  0  0  0  0  0  0  0
   13.9465    6.8845    0.8466 N   0  0  0  0  0  0  0  0  0  0  0  0
   12.1976    8.3597    2.0353 C   0  0  0  0  0  0  0  0  0  0  0  0
   11.4908    7.3098    2.9069 C   0  0  0  0  0  0  0  0  0  0  0  0
    9.9643    7.5207    2.9010 C   0  0  0  0  0  0  0  0  0  0  0  0
    9.5300    8.9610    2.6179 C   0  0  0  0  0  0  0  0  0  0  0  0
    8.0591    9.2050    2.7531 C   0  0  0  0  0  0  0  0  0  0  0  0
    7.5461    9.7142    1.7329 O   0  0  0  0  0  0  0  0  0  0  0  0
    7.2443    8.9055    3.9102 N   0  0  0  0  0  0  0  0  0  0  0  0
    5.8399    9.2752    4.0491 C   0  0  0  0  0  0  0  0  0  0  0  0
    4.9846    9.1636    2.9358 C   0  0  0  0  0  0  0  0  0  0  0  0
    3.6266    9.4983    3.0373 C   0  0  0  0  0  0  0  0  0  0  0  0
    3.1015    9.9581    4.2456 C   0  0  0  0  0  0  0  0  0  0  0  0
    3.9252   10.0747    5.3575 C   0  0  0  0  0  0  0  0  0  0  0  0
    5.2695    9.7272    5.2711 C   0  0  0  0  0  0  0  0  0  0  0  0
   10.4792   10.1217    2.8487 C   0  0  0  0  0  0  0  0  0  0  0  0
   11.9653    9.7672    2.6261 C   0  0  0  0  0  0  0  0  0  0  0  0
  1  2  1  0
  2  3  1  0
  2  4  1  0
  4  5  1  0
  5  6  1  0
  6  7  1  0
  7  8  1  0
  8  9  2  0
  8 10  1  0
 10 11  1  0
 11 12  2  0
 12 13  1  0
 13 14  2  0
 14 15  1  0
 15 16  2  0
  7 17  1  0
 17 18  1  0
 18  4  1  0
 16 11  1  0
M  CHG  1   3   1
M  END
>  <EmbedRMS>  (183) 
0.24964892458419108

>  <Gold.Version>  (183) 
2020.3.0

>  <Gold.Id.Protein>  (183) 
unknown|1q8t_protein|pdb

>  <Gold.PLP.Fitness>  (183) 
55.0366

>  <Gold.PLP.PLP>  (183) 
-47.1049

>  <Gold.PLP.part.hbond>  (183) 
-2.0000

>  <Gold.PLP.part.metal>  (183) 
0.0000

>  <Gold.PLP.part.buried>  (183) 
-1.9432

>  <Gold.PLP.part.nonpolar>  (183) 
-44.2063

>  <Gold.PLP.part.repulsive>  (183) 
0.0842

>  <Gold.PLP.ligand.clash>  (183) 
0.0000

>  <Gold.PLP.ligand.torsion>  (183) 
1.0037

>  <Gold.PLP.Chemscore.Hbond>  (183) 
3.0000

>  <Gold.PLP.Chemscore.CHOScore>  (183) 
0.0000

>  <Gold.PLP.Chemscore.Metal>  (183) 
0.0000

>  <Gold.Chemscore.Hbonds>  (183) 
donor molecule, donor type, donor heavy atom, donor atom, acceptor molecule, acceptor atom, score
      L1  H     3    23       P1  2902  2.00
      L1  H     3    24       P1  2691  1.00

>  <Gold.PLP.Chemscore.Internal.Correction>  (183) 
0.9392

>  <Gold.PLP.Constraint>  (183) 
-0.0000

>  <Gold.Protein.RotatedTorsions>  (183) 
[  681  677  676  673 ] final  -92.67 input -179.99 | X-H torsion
[  702  698  697  694 ] final  142.27 input  179.99 | X-H torsion
[ 2577 2569 2568 2566 ] final  116.53 input   -0.13 | X-H torsion
[ 2891 2887 2886 2883 ] final   48.98 input  179.98 | X-H torsion
[ 3175 3171 3170 3167 ] final -116.15 input -179.99 | X-H torsion
[ 5278 5270 5269 5267 ] final -105.00 input    0.55 | X-H torsion
[  641  637  636  633 ] final  -38.90 input  179.99 | X-H torsion
[ 1886 1878 1877 1875 ] final    9.80 input    1.60 | X-H torsion
[  965  957  956  954 ] final   43.06 input    0.45 | X-H torsion

>  <Gold.Protein.ActiveResidues>  (183) 
 LYS47   THR48   LEU49   GLY50   THR51   GLY52   SER53   PHE54   GLY55   ARG56  
 VAL57   MET58   LEU59   TYR69   ALA70   MET71   LYS72   ILE73   LEU74   GLU91  
 LEU95   VAL104  LYS105  MET118  VAL119  MET120  GLU121  TYR122  VAL123  PRO124 
 GLY125  GLY126  GLU127  MET128  PHE129  TYR164  ASP166  LEU167  LYS168  PRO169 
 GLU170  ASN171  LEU172  LEU173  ILE174  GLN181  VAL182  THR183  ASP184  PHE185 
 GLY186  PHE187  GLY200  THR201  ASN326  PHE327  TYR330  ARG18   ARG19   ASN20  
 ALA21   ILE22   HIS23  

>  <Gold.Protein.RotatedAtoms>  (183) 
    9.8735   19.0703    7.4577 H   0  0  0  0  0  0  0  0  0  0  0  0  # atno 641  bound_to 637 
   15.8628   13.5549    7.3694 H   0  0  0  0  0  0  0  0  0  0  0  0  # atno 681  bound_to 677 
   20.5192   11.6697   -1.9836 H   0  0  0  0  0  0  0  0  0  0  0  0  # atno 702  bound_to 698 
   -6.9878   15.4808   -0.4091 H   0  0  0  0  0  0  0  0  0  0  0  0  # atno 965  bound_to 957 
    2.2532   11.4666   10.3327 H   0  0  0  0  0  0  0  0  0  0  0  0  # atno 1886 bound_to 1878
    9.6576    2.0194   -2.5099 H   0  0  0  0  0  0  0  0  0  0  0  0  # atno 2577 bound_to 2569
    8.3387    6.1170    0.2261 H   0  0  0  0  0  0  0  0  0  0  0  0  # atno 2891 bound_to 2887
   18.9063    2.7830    0.2862 H   0  0  0  0  0  0  0  0  0  0  0  0  # atno 3175 bound_to 3171
   13.9763    9.8438   10.3697 H   0  0  0  0  0  0  0  0  0  0  0  0  # atno 5278 bound_to 5270
   17.2765   13.6847    6.6478 LP  0  0  0  0  0  0  0  0  0  0  0  0  # atno 5914 bound_to 677 
   16.2016   12.5459    6.1848 LP  0  0  0  0  0  0  0  0  0  0  0  0  # atno 5915 bound_to 677 
   19.3187   11.8458   -0.9515 LP  0  0  0  0  0  0  0  0  0  0  0  0  # atno 5920 bound_to 698 
   20.8396   11.5661   -0.4266 LP  0  0  0  0  0  0  0  0  0  0  0  0  # atno 5921 bound_to 698 
    9.7883    3.3367   -3.3947 LP  0  0  0  0  0  0  0  0  0  0  0  0  # atno 5950 bound_to 2569
   11.1136    2.6013   -2.7869 LP  0  0  0  0  0  0  0  0  0  0  0  0  # atno 5951 bound_to 2569
    7.3860    5.2283    1.1421 LP  0  0  0  0  0  0  0  0  0  0  0  0  # atno 5982 bound_to 2887
    7.5129    6.8387    1.3810 LP  0  0  0  0  0  0  0  0  0  0  0  0  # atno 5983 bound_to 2887
   17.8825    1.9321   -0.5873 LP  0  0  0  0  0  0  0  0  0  0  0  0  # atno 6000 bound_to 3171
   19.1086    2.7478   -1.2928 LP  0  0  0  0  0  0  0  0  0  0  0  0  # atno 6001 bound_to 3171
   14.0038   10.2092    8.8197 LP  0  0  0  0  0  0  0  0  0  0  0  0  # atno 6004 bound_to 5270
   12.5876   10.0006    9.6056 LP  0  0  0  0  0  0  0  0  0  0  0  0  # atno 6005 bound_to 5270
   11.3915   19.2344    7.9087 LP  0  0  0  0  0  0  0  0  0  0  0  0  # atno 6055 bound_to 637 
   10.1745   19.7827    8.8493 LP  0  0  0  0  0  0  0  0  0  0  0  0  # atno 6056 bound_to 637 
    0.9892   10.5979   10.7607 LP  0  0  0  0  0  0  0  0  0  0  0  0  # atno 6063 bound_to 1878
    1.0242   12.2098   11.0202 LP  0  0  0  0  0  0  0  0  0  0  0  0  # atno 6064 bound_to 1878
   -6.4297   16.2961   -1.6577 LP  0  0  0  0  0  0  0  0  0  0  0  0  # atno 6067 bound_to 957 
   -7.0189   17.0715   -0.3469 LP  0  0  0  0  0  0  0  0  0  0  0  0  # atno 6068 bound_to 957 

>  <STRIFE_LigEff_Score>  (183) 
3.0575888888888887

$$$$
unknown|pharmsElabsTestPreDocking|sdf|184|dock6
     RDKit          3D

 17 17  0  0  0  0  0  0  0  0999 V2000
    3.3143    8.6046    2.1767 C   0  0  0  0  0  0  0  0  0  0  0  0
    4.6173    8.8917    2.1275 C   0  0  0  0  0  0  0  0  0  0  0  0
    5.4943    9.1477    3.2961 C   0  0  0  0  0  0  0  0  0  0  0  0
    4.9877    9.7537    4.3972 C   0  0  0  0  0  0  0  0  0  0  0  0
    5.7993   10.1209    5.6020 C   0  0  0  0  0  0  0  0  0  0  0  0
    6.9179    8.8771    3.2344 N   0  0  0  0  0  0  0  0  0  0  0  0
    7.9741    9.3392    2.3597 C   0  0  0  0  0  0  0  0  0  0  0  0
    7.6624   10.2032    1.5002 O   0  0  0  0  0  0  0  0  0  0  0  0
    9.4406    9.0032    2.3679 C   0  0  0  0  0  0  0  0  0  0  0  0
    9.7480    7.5517    2.6954 C   0  0  0  0  0  0  0  0  0  0  0  0
   11.1902    7.1625    2.4436 C   0  0  0  0  0  0  0  0  0  0  0  0
   12.2676    8.2227    2.6935 C   0  0  0  0  0  0  0  0  0  0  0  0
   13.5953    7.9139    1.9584 C   0  0  0  0  0  0  0  0  0  0  0  0
   14.5513    9.0710    1.6682 C   0  0  0  0  0  0  0  0  0  0  0  0
   13.4054    7.0463    0.7949 N   0  0  0  0  0  0  0  0  0  0  0  0
   11.8613    9.6984    2.4571 C   0  0  0  0  0  0  0  0  0  0  0  0
   10.4192   10.0756    2.7683 C   0  0  0  0  0  0  0  0  0  0  0  0
  1  2  2  0
  2  3  1  0
  3  4  2  0
  4  5  1  0
  3  6  1  0
  6  7  1  0
  7  8  2  0
  7  9  1  0
  9 10  1  0
 10 11  1  0
 11 12  1  0
 12 13  1  0
 13 14  1  0
 13 15  1  0
 12 16  1  0
 16 17  1  0
 17  9  1  0
M  CHG  1  15   1
M  END
>  <EmbedRMS>  (184) 
0.29216731409503444

>  <Gold.Version>  (184) 
2020.3.0

>  <Gold.Id.Protein>  (184) 
unknown|1q8t_protein|pdb

>  <Gold.PLP.Fitness>  (184) 
44.5702

>  <Gold.PLP.PLP>  (184) 
-39.0684

>  <Gold.PLP.part.hbond>  (184) 
-1.6229

>  <Gold.PLP.part.metal>  (184) 
0.0000

>  <Gold.PLP.part.buried>  (184) 
-2.9847

>  <Gold.PLP.part.nonpolar>  (184) 
-35.0170

>  <Gold.PLP.part.repulsive>  (184) 
0.0560

>  <Gold.PLP.ligand.clash>  (184) 
0.0000

>  <Gold.PLP.ligand.torsion>  (184) 
2.0866

>  <Gold.PLP.Chemscore.Hbond>  (184) 
2.9199

>  <Gold.PLP.Chemscore.CHOScore>  (184) 
0.0000

>  <Gold.PLP.Chemscore.Metal>  (184) 
0.0000

>  <Gold.Chemscore.Hbonds>  (184) 
donor molecule, donor type, donor heavy atom, donor atom, acceptor molecule, acceptor atom, score
      L1  H    15    36       P1  2691  0.92
      L1  H    15    38       P1  2902  2.00

>  <Gold.PLP.Chemscore.Internal.Correction>  (184) 
0.9152

>  <Gold.PLP.Constraint>  (184) 
-0.0000

>  <Gold.Protein.RotatedTorsions>  (184) 
[  681  677  676  673 ] final   57.13 input -179.99 | X-H torsion
[  702  698  697  694 ] final  125.13 input  179.99 | X-H torsion
[ 2577 2569 2568 2566 ] final  130.52 input   -0.13 | X-H torsion
[ 2891 2887 2886 2883 ] final  140.00 input  179.98 | X-H torsion
[ 3175 3171 3170 3167 ] final   79.16 input -179.99 | X-H torsion
[ 5278 5270 5269 5267 ] final   93.52 input    0.55 | X-H torsion
[  641  637  636  633 ] final -170.94 input  179.99 | X-H torsion
[ 1886 1878 1877 1875 ] final  176.70 input    1.60 | X-H torsion
[  965  957  956  954 ] final   70.37 input    0.45 | X-H torsion

>  <Gold.Protein.ActiveResidues>  (184) 
 LYS47   THR48   LEU49   GLY50   THR51   GLY52   SER53   PHE54   GLY55   ARG56  
 VAL57   MET58   LEU59   TYR69   ALA70   MET71   LYS72   ILE73   LEU74   GLU91  
 LEU95   VAL104  LYS105  MET118  VAL119  MET120  GLU121  TYR122  VAL123  PRO124 
 GLY125  GLY126  GLU127  MET128  PHE129  TYR164  ASP166  LEU167  LYS168  PRO169 
 GLU170  ASN171  LEU172  LEU173  ILE174  GLN181  VAL182  THR183  ASP184  PHE185 
 GLY186  PHE187  GLY200  THR201  ASN326  PHE327  TYR330  ARG18   ARG19   ASN20  
 ALA21   ILE22   HIS23  

>  <Gold.Protein.RotatedAtoms>  (184) 
   11.3629   19.3103    8.0906 H   0  0  0  0  0  0  0  0  0  0  0  0  # atno 641  bound_to 637 
   16.6282   12.7168    6.0643 H   0  0  0  0  0  0  0  0  0  0  0  0  # atno 681  bound_to 677 
   20.2604   11.7165   -2.0308 H   0  0  0  0  0  0  0  0  0  0  0  0  # atno 702  bound_to 698 
   -7.1157   15.7638   -0.1222 H   0  0  0  0  0  0  0  0  0  0  0  0  # atno 965  bound_to 957 
    0.6367   11.5892   11.0662 H   0  0  0  0  0  0  0  0  0  0  0  0  # atno 1886 bound_to 1878
    9.8487    1.9402   -2.4409 H   0  0  0  0  0  0  0  0  0  0  0  0  # atno 2577 bound_to 2569
    7.8071    6.9464    1.0405 H   0  0  0  0  0  0  0  0  0  0  0  0  # atno 2891 bound_to 2887
   18.2132    2.0766   -1.1878 H   0  0  0  0  0  0  0  0  0  0  0  0  # atno 3175 bound_to 3171
   13.3541   10.2342    8.7607 H   0  0  0  0  0  0  0  0  0  0  0  0  # atno 5278 bound_to 5270
   15.6105   13.1932    7.1927 LP  0  0  0  0  0  0  0  0  0  0  0  0  # atno 5914 bound_to 677 
   17.0620   13.9195    7.0136 LP  0  0  0  0  0  0  0  0  0  0  0  0  # atno 5915 bound_to 677 
   19.4117   11.8242   -0.6871 LP  0  0  0  0  0  0  0  0  0  0  0  0  # atno 5920 bound_to 698 
   21.0188   11.5384   -0.6413 LP  0  0  0  0  0  0  0  0  0  0  0  0  # atno 5921 bound_to 698 
    9.5927    3.2318   -3.3361 LP  0  0  0  0  0  0  0  0  0  0  0  0  # atno 5950 bound_to 2569
   11.1080    2.7896   -2.9181 LP  0  0  0  0  0  0  0  0  0  0  0  0  # atno 5951 bound_to 2569
    8.2685    5.6596    0.2232 LP  0  0  0  0  0  0  0  0  0  0  0  0  # atno 5982 bound_to 2887
    7.1897    5.5345    1.4428 LP  0  0  0  0  0  0  0  0  0  0  0  0  # atno 5983 bound_to 2887
   19.3884    3.0330   -0.6978 LP  0  0  0  0  0  0  0  0  0  0  0  0  # atno 6000 bound_to 3171
   18.3321    2.3903    0.3689 LP  0  0  0  0  0  0  0  0  0  0  0  0  # atno 6001 bound_to 3171
   12.8225    9.8533   10.2130 LP  0  0  0  0  0  0  0  0  0  0  0  0  # atno 6004 bound_to 5270
   14.4235    9.9459    9.9053 LP  0  0  0  0  0  0  0  0  0  0  0  0  # atno 6005 bound_to 5270
    9.9944   19.7537    8.7728 LP  0  0  0  0  0  0  0  0  0  0  0  0  # atno 6055 bound_to 637 
   10.0030   19.0107    7.3187 LP  0  0  0  0  0  0  0  0  0  0  0  0  # atno 6056 bound_to 637 
    2.0443   12.1324   10.5573 LP  0  0  0  0  0  0  0  0  0  0  0  0  # atno 6063 bound_to 1878
    1.6708   10.5462   10.4514 LP  0  0  0  0  0  0  0  0  0  0  0  0  # atno 6064 bound_to 1878
   -6.4715   15.8606   -1.5750 LP  0  0  0  0  0  0  0  0  0  0  0  0  # atno 6067 bound_to 957 
   -6.8424   17.2090   -0.7319 LP  0  0  0  0  0  0  0  0  0  0  0  0  # atno 6068 bound_to 957 

>  <STRIFE_LigEff_Score>  (184) 
2.621776470588235

$$$$
unknown|pharmsElabsTestPreDocking|sdf|185|dock3
     RDKit          3D

 18 18  0  0  0  0  0  0  0  0999 V2000
    3.6548    9.0449    2.3634 C   0  0  0  0  0  0  0  0  0  0  0  0
    4.9812    9.1976    2.3192 C   0  0  0  0  0  0  0  0  0  0  0  0
    5.6234    9.2026    1.0790 O   0  0  0  0  0  0  0  0  0  0  0  0
    5.7969    9.3116    3.5586 C   0  0  0  0  0  0  0  0  0  0  0  0
    5.2560    9.9023    4.6382 C   0  0  0  0  0  0  0  0  0  0  0  0
    6.0058   10.1006    5.9196 C   0  0  0  0  0  0  0  0  0  0  0  0
    7.1757    8.8940    3.5911 N   0  0  0  0  0  0  0  0  0  0  0  0
    8.1911    9.3593    2.6913 C   0  0  0  0  0  0  0  0  0  0  0  0
    7.8898   10.0720    1.6929 O   0  0  0  0  0  0  0  0  0  0  0  0
    9.6290    9.0040    2.9638 C   0  0  0  0  0  0  0  0  0  0  0  0
    9.9948    7.6837    2.2912 C   0  0  0  0  0  0  0  0  0  0  0  0
   11.3947    7.2293    2.6803 C   0  0  0  0  0  0  0  0  0  0  0  0
   12.4893    8.3297    2.6521 C   0  0  0  0  0  0  0  0  0  0  0  0
   13.7403    8.1386    1.7718 C   0  0  0  0  0  0  0  0  0  0  0  0
   14.3574    9.3751    1.1182 C   0  0  0  0  0  0  0  0  0  0  0  0
   13.5724    7.0553    0.7936 N   0  0  0  0  0  0  0  0  0  0  0  0
   12.0201    9.8131    2.7584 C   0  0  0  0  0  0  0  0  0  0  0  0
   10.5527   10.1013    2.4457 C   0  0  0  0  0  0  0  0  0  0  0  0
  1  2  2  0
  2  3  1  0
  2  4  1  0
  4  5  2  0
  5  6  1  0
  4  7  1  0
  7  8  1  0
  8  9  2  0
  8 10  1  0
 10 11  1  0
 11 12  1  0
 12 13  1  0
 13 14  1  0
 14 15  1  0
 14 16  1  0
 13 17  1  0
 17 18  1  0
 18 10  1  0
M  CHG  1  16   1
M  END
>  <EmbedRMS>  (185) 
0.20265595005683737

>  <Gold.Version>  (185) 
2020.3.0

>  <Gold.Id.Protein>  (185) 
unknown|1q8t_protein|pdb

>  <Gold.PLP.Fitness>  (185) 
41.6828

>  <Gold.PLP.PLP>  (185) 
-37.3958

>  <Gold.PLP.part.hbond>  (185) 
-1.9868

>  <Gold.PLP.part.metal>  (185) 
0.0000

>  <Gold.PLP.part.buried>  (185) 
-1.7559

>  <Gold.PLP.part.nonpolar>  (185) 
-33.5900

>  <Gold.PLP.part.repulsive>  (185) 
0.0607

>  <Gold.PLP.ligand.clash>  (185) 
0.0000

>  <Gold.PLP.ligand.torsion>  (185) 
2.8998

>  <Gold.PLP.Chemscore.Hbond>  (185) 
2.8800

>  <Gold.PLP.Chemscore.CHOScore>  (185) 
0.0000

>  <Gold.PLP.Chemscore.Metal>  (185) 
0.0000

>  <Gold.Chemscore.Hbonds>  (185) 
donor molecule, donor type, donor heavy atom, donor atom, acceptor molecule, acceptor atom, score
      L1  H    16    38       P1  2691  0.88
      L1  H    16    39       P1  2902  2.00

>  <Gold.PLP.Chemscore.Internal.Correction>  (185) 
1.4466

>  <Gold.PLP.Constraint>  (185) 
-0.0000

>  <Gold.Protein.RotatedTorsions>  (185) 
[  681  677  676  673 ] final -110.30 input -179.99 | X-H torsion
[  702  698  697  694 ] final  127.97 input  179.99 | X-H torsion
[ 2577 2569 2568 2566 ] final -175.86 input   -0.13 | X-H torsion
[ 2891 2887 2886 2883 ] final   22.33 input  179.98 | X-H torsion
[ 3175 3171 3170 3167 ] final  143.82 input -179.99 | X-H torsion
[ 5278 5270 5269 5267 ] final -157.44 input    0.55 | X-H torsion
[  641  637  636  633 ] final -146.82 input  179.99 | X-H torsion
[ 1886 1878 1877 1875 ] final  -41.70 input    1.60 | X-H torsion
[  965  957  956  954 ] final  -85.52 input    0.45 | X-H torsion

>  <Gold.Protein.ActiveResidues>  (185) 
 LYS47   THR48   LEU49   GLY50   THR51   GLY52   SER53   PHE54   GLY55   ARG56  
 VAL57   MET58   LEU59   TYR69   ALA70   MET71   LYS72   ILE73   LEU74   GLU91  
 LEU95   VAL104  LYS105  MET118  VAL119  MET120  GLU121  TYR122  VAL123  PRO124 
 GLY125  GLY126  GLU127  MET128  PHE129  TYR164  ASP166  LEU167  LYS168  PRO169 
 GLU170  ASN171  LEU172  LEU173  ILE174  GLN181  VAL182  THR183  ASP184  PHE185 
 GLY186  PHE187  GLY200  THR201  ASN326  PHE327  TYR330  ARG18   ARG19   ASN20  
 ALA21   ILE22   HIS23  

>  <Gold.Protein.RotatedAtoms>  (185) 
   11.2868   19.1471    7.7627 H   0  0  0  0  0  0  0  0  0  0  0  0  # atno 641  bound_to 637 
   16.0681   13.7309    7.4167 H   0  0  0  0  0  0  0  0  0  0  0  0  # atno 681  bound_to 677 
   20.3040   11.7087   -2.0284 H   0  0  0  0  0  0  0  0  0  0  0  0  # atno 702  bound_to 698 
   -6.4392   16.4277   -1.5947 H   0  0  0  0  0  0  0  0  0  0  0  0  # atno 965  bound_to 957 
    1.9282   10.7600   10.3554 H   0  0  0  0  0  0  0  0  0  0  0  0  # atno 1886 bound_to 1878
   10.6517    2.0278   -2.4429 H   0  0  0  0  0  0  0  0  0  0  0  0  # atno 2577 bound_to 2569
    8.2447    5.7151    0.2387 H   0  0  0  0  0  0  0  0  0  0  0  0  # atno 2891 bound_to 2887
   17.9360    1.9908   -0.2747 H   0  0  0  0  0  0  0  0  0  0  0  0  # atno 3175 bound_to 3171
   14.4181   10.0055    9.7330 H   0  0  0  0  0  0  0  0  0  0  0  0  # atno 5278 bound_to 5270
   17.3005   13.4877    6.4378 LP  0  0  0  0  0  0  0  0  0  0  0  0  # atno 5914 bound_to 677 
   15.9615   12.5576    6.3452 LP  0  0  0  0  0  0  0  0  0  0  0  0  # atno 5915 bound_to 677 
   19.3910   11.8287   -0.7287 LP  0  0  0  0  0  0  0  0  0  0  0  0  # atno 5920 bound_to 698 
   20.9937   11.5421   -0.6022 LP  0  0  0  0  0  0  0  0  0  0  0  0  # atno 5921 bound_to 698 
    9.2364    2.5855   -2.9134 LP  0  0  0  0  0  0  0  0  0  0  0  0  # atno 5950 bound_to 2569
   10.6188    3.3437   -3.3387 LP  0  0  0  0  0  0  0  0  0  0  0  0  # atno 5951 bound_to 2569
    7.2007    5.5037    1.4227 LP  0  0  0  0  0  0  0  0  0  0  0  0  # atno 5982 bound_to 2887
    7.7971    6.9864    1.0871 LP  0  0  0  0  0  0  0  0  0  0  0  0  # atno 5983 bound_to 2887
   18.8773    2.5590   -1.4265 LP  0  0  0  0  0  0  0  0  0  0  0  0  # atno 6000 bound_to 3171
   19.1349    2.9546    0.1367 LP  0  0  0  0  0  0  0  0  0  0  0  0  # atno 6001 bound_to 3171
   13.1728   10.2147    8.7623 LP  0  0  0  0  0  0  0  0  0  0  0  0  # atno 6004 bound_to 5270
   12.9537    9.8251   10.3329 LP  0  0  0  0  0  0  0  0  0  0  0  0  # atno 6005 bound_to 5270
   10.3680   19.7932    8.8911 LP  0  0  0  0  0  0  0  0  0  0  0  0  # atno 6055 bound_to 637 
    9.7095   19.1430    7.5457 LP  0  0  0  0  0  0  0  0  0  0  0  0  # atno 6056 bound_to 637 
    0.5810   11.2460   11.0512 LP  0  0  0  0  0  0  0  0  0  0  0  0  # atno 6063 bound_to 1878
    1.7745   12.3056   10.7057 LP  0  0  0  0  0  0  0  0  0  0  0  0  # atno 6064 bound_to 1878
   -7.0669   16.9887   -0.2432 LP  0  0  0  0  0  0  0  0  0  0  0  0  # atno 6067 bound_to 957 
   -6.9595   15.3817   -0.5129 LP  0  0  0  0  0  0  0  0  0  0  0  0  # atno 6068 bound_to 957 

>  <STRIFE_LigEff_Score>  (185) 
2.3157111111111113

$$$$
unknown|pharmsElabsTestPreDocking|sdf|186|dock2
     RDKit          3D

 17 18  0  0  0  0  0  0  0  0999 V2000
   13.7774    7.1959    3.5397 C   0  0  0  0  0  0  0  0  0  0  0  0
   13.4797    7.9756    2.2438 C   0  0  0  0  0  0  0  0  0  0  0  0
   13.7452    7.1086    1.0886 N   0  0  0  0  0  0  0  0  0  0  0  0
   12.0138    8.5013    2.2598 C   0  0  0  0  0  0  0  0  0  0  0  0
   11.0290    7.3137    2.2580 C   0  0  0  0  0  0  0  0  0  0  0  0
    9.5999    7.8166    2.1123 C   0  0  0  0  0  0  0  0  0  0  0  0
    9.2459    8.7480    3.2760 C   0  0  0  0  0  0  0  0  0  0  0  0
    7.8310    9.2307    3.1423 C   0  0  0  0  0  0  0  0  0  0  0  0
    7.4758    9.8633    2.1102 O   0  0  0  0  0  0  0  0  0  0  0  0
    6.9066    8.9642    4.2046 N   0  0  0  0  0  0  0  0  0  0  0  0
    5.5216    9.3268    4.2179 C   0  0  0  0  0  0  0  0  0  0  0  0
    4.7913    9.8047    5.2942 C   0  0  0  0  0  0  0  0  0  0  0  0
    3.5110    9.9968    4.8205 C   0  0  0  0  0  0  0  0  0  0  0  0
    3.5163    9.6322    3.4891 C   0  0  0  0  0  0  0  0  0  0  0  0
    4.7437    9.2247    3.1263 N   0  0  0  0  0  0  0  0  0  0  0  0
   10.2284    9.9275    3.3725 C   0  0  0  0  0  0  0  0  0  0  0  0
   11.6818    9.4312    3.4532 C   0  0  0  0  0  0  0  0  0  0  0  0
  1  2  1  0
  2  3  1  0
  2  4  1  0
  4  5  1  0
  5  6  1  0
  6  7  1  0
  7  8  1  0
  8  9  2  0
  8 10  1  0
 10 11  1  0
 11 12  2  0
 12 13  1  0
 13 14  2  0
 14 15  1  0
  7 16  1  0
 16 17  1  0
 17  4  1  0
 15 11  1  0
M  CHG  1   3   1
M  END
>  <EmbedRMS>  (186) 
0.03061905892919758

>  <Gold.Version>  (186) 
2020.3.0

>  <Gold.Id.Protein>  (186) 
unknown|1q8t_protein|pdb

>  <Gold.PLP.Fitness>  (186) 
53.5395

>  <Gold.PLP.PLP>  (186) 
-42.2863

>  <Gold.PLP.part.hbond>  (186) 
-2.0000

>  <Gold.PLP.part.metal>  (186) 
0.0000

>  <Gold.PLP.part.buried>  (186) 
-3.8951

>  <Gold.PLP.part.nonpolar>  (186) 
-36.5949

>  <Gold.PLP.part.repulsive>  (186) 
0.0640

>  <Gold.PLP.ligand.clash>  (186) 
0.0000

>  <Gold.PLP.ligand.torsion>  (186) 
0.3480

>  <Gold.PLP.Chemscore.Hbond>  (186) 
3.0000

>  <Gold.PLP.Chemscore.CHOScore>  (186) 
0.9672

>  <Gold.PLP.Chemscore.Metal>  (186) 
0.0000

>  <Gold.Chemscore.Hbonds>  (186) 
donor molecule, donor type, donor heavy atom, donor atom, acceptor molecule, acceptor atom, score
      L1  H     3    22       P1  2902  2.00
      L1  H     3    24       P1  2691  1.00
      L1  C    14    34       P1  1855  0.97

>  <Gold.PLP.Chemscore.Internal.Correction>  (186) 
0.0477

>  <Gold.PLP.Constraint>  (186) 
-0.0000

>  <Gold.Protein.RotatedTorsions>  (186) 
[  681  677  676  673 ] final  -37.63 input -179.99 | X-H torsion
[  702  698  697  694 ] final -172.14 input  179.99 | X-H torsion
[ 2577 2569 2568 2566 ] final   56.12 input   -0.13 | X-H torsion
[ 2891 2887 2886 2883 ] final   13.94 input  179.98 | X-H torsion
[ 3175 3171 3170 3167 ] final   -2.47 input -179.99 | X-H torsion
[ 5278 5270 5269 5267 ] final -136.06 input    0.55 | X-H torsion
[  641  637  636  633 ] final -124.50 input  179.99 | X-H torsion
[ 1886 1878 1877 1875 ] final -179.63 input    1.60 | X-H torsion
[  965  957  956  954 ] final  102.98 input    0.45 | X-H torsion

>  <Gold.Protein.ActiveResidues>  (186) 
 LYS47   THR48   LEU49   GLY50   THR51   GLY52   SER53   PHE54   GLY55   ARG56  
 VAL57   MET58   LEU59   TYR69   ALA70   MET71   LYS72   ILE73   LEU74   GLU91  
 LEU95   VAL104  LYS105  MET118  VAL119  MET120  GLU121  TYR122  VAL123  PRO124 
 GLY125  GLY126  GLU127  MET128  PHE129  TYR164  ASP166  LEU167  LYS168  PRO169 
 GLU170  ASN171  LEU172  LEU173  ILE174  GLN181  VAL182  THR183  ASP184  PHE185 
 GLY186  PHE187  GLY200  THR201  ASN326  PHE327  TYR330  ARG18   ARG19   ASN20  
 ALA21   ILE22   HIS23  

>  <Gold.Protein.RotatedAtoms>  (186) 
   11.0884   19.0267    7.5053 H   0  0  0  0  0  0  0  0  0  0  0  0  # atno 641  bound_to 637 
   15.6228   12.9230    6.8916 H   0  0  0  0  0  0  0  0  0  0  0  0  # atno 681  bound_to 677 
   21.0294   11.5704   -1.5232 H   0  0  0  0  0  0  0  0  0  0  0  0  # atno 702  bound_to 698 
   -7.1764   16.2418    0.0212 H   0  0  0  0  0  0  0  0  0  0  0  0  # atno 965  bound_to 957 
    0.6252   11.5333   11.0618 H   0  0  0  0  0  0  0  0  0  0  0  0  # atno 1886 bound_to 1878
    9.2891    2.6819   -2.9969 H   0  0  0  0  0  0  0  0  0  0  0  0  # atno 2577 bound_to 2569
    8.1916    5.6001    0.2726 H   0  0  0  0  0  0  0  0  0  0  0  0  # atno 2891 bound_to 2887
   19.1544    2.7731   -1.1927 H   0  0  0  0  0  0  0  0  0  0  0  0  # atno 3175 bound_to 3171
   14.3132    9.9289   10.0390 H   0  0  0  0  0  0  0  0  0  0  0  0  # atno 5278 bound_to 5270
   16.7477   13.9840    7.2722 LP  0  0  0  0  0  0  0  0  0  0  0  0  # atno 5914 bound_to 677 
   16.9830   12.9117    6.0633 LP  0  0  0  0  0  0  0  0  0  0  0  0  # atno 5915 bound_to 677 
   19.4650   11.8337   -1.6670 LP  0  0  0  0  0  0  0  0  0  0  0  0  # atno 5920 bound_to 698 
   20.1566   11.6827   -0.1954 LP  0  0  0  0  0  0  0  0  0  0  0  0  # atno 5921 bound_to 698 
   10.7304    3.2901   -3.2933 LP  0  0  0  0  0  0  0  0  0  0  0  0  # atno 5950 bound_to 2569
   10.5595    1.9503   -2.3755 LP  0  0  0  0  0  0  0  0  0  0  0  0  # atno 5951 bound_to 2569
    7.1657    5.6186    1.4907 LP  0  0  0  0  0  0  0  0  0  0  0  0  # atno 5982 bound_to 2887
    7.8879    6.9926    0.9834 LP  0  0  0  0  0  0  0  0  0  0  0  0  # atno 5983 bound_to 2887
   18.8303    2.7590    0.3663 LP  0  0  0  0  0  0  0  0  0  0  0  0  # atno 6000 bound_to 3171
   17.8997    1.9314   -0.6900 LP  0  0  0  0  0  0  0  0  0  0  0  0  # atno 6001 bound_to 3171
   13.5154   10.2349    8.6949 LP  0  0  0  0  0  0  0  0  0  0  0  0  # atno 6004 bound_to 5270
   12.7216    9.8854   10.0785 LP  0  0  0  0  0  0  0  0  0  0  0  0  # atno 6005 bound_to 5270
   10.7312   19.7627    8.8712 LP  0  0  0  0  0  0  0  0  0  0  0  0  # atno 6055 bound_to 637 
    9.5553   19.3002    7.8368 LP  0  0  0  0  0  0  0  0  0  0  0  0  # atno 6056 bound_to 637 
    2.0036   12.1697   10.5816 LP  0  0  0  0  0  0  0  0  0  0  0  0  # atno 6063 bound_to 1878
    1.7236   10.5678   10.4318 LP  0  0  0  0  0  0  0  0  0  0  0  0  # atno 6064 bound_to 1878
   -6.6212   15.4670   -1.2542 LP  0  0  0  0  0  0  0  0  0  0  0  0  # atno 6067 bound_to 957 
   -6.6287   17.0992   -1.2036 LP  0  0  0  0  0  0  0  0  0  0  0  0  # atno 6068 bound_to 957 

>  <STRIFE_LigEff_Score>  (186) 
3.1493823529411764

$$$$
unknown|pharmsElabsTestPreDocking|sdf|187|dock6
     RDKit          3D

 16 16  0  0  0  0  0  0  0  0999 V2000
    4.8989    8.9496    3.2177 C   0  0  0  0  0  0  0  0  0  0  0  0
    4.9862    9.4545    4.6477 C   0  0  0  0  0  0  0  0  0  0  0  0
    3.6460    9.7934    5.2808 C   0  0  0  0  0  0  0  0  0  0  0  0
    6.0946   10.4360    5.0485 C   0  0  0  0  0  0  0  0  0  0  0  0
    7.4522    9.9312    4.8922 N   0  0  0  0  0  0  0  0  0  0  0  0
    7.9461    9.5416    3.6042 C   0  0  0  0  0  0  0  0  0  0  0  0
    7.3947    9.9733    2.5521 O   0  0  0  0  0  0  0  0  0  0  0  0
    9.1531    8.6501    3.5095 C   0  0  0  0  0  0  0  0  0  0  0  0
    9.3764    8.1993    2.0665 C   0  0  0  0  0  0  0  0  0  0  0  0
   10.5079    7.1860    1.9664 C   0  0  0  0  0  0  0  0  0  0  0  0
   11.7862    7.5256    2.7794 C   0  0  0  0  0  0  0  0  0  0  0  0
   13.1438    7.6331    2.0576 C   0  0  0  0  0  0  0  0  0  0  0  0
   14.4166    7.5222    2.8967 C   0  0  0  0  0  0  0  0  0  0  0  0
   13.2057    8.7942    1.1592 N   0  0  0  0  0  0  0  0  0  0  0  0
   11.6357    8.5128    3.9770 C   0  0  0  0  0  0  0  0  0  0  0  0
   10.3901    9.3950    3.9960 C   0  0  0  0  0  0  0  0  0  0  0  0
  1  2  1  0
  2  3  1  0
  2  4  1  0
  4  5  1  0
  5  6  1  0
  6  7  2  0
  6  8  1  0
  8  9  1  0
  9 10  1  0
 10 11  1  0
 11 12  1  0
 12 13  1  0
 12 14  1  0
 11 15  1  0
 15 16  1  0
 16  8  1  0
M  CHG  1  14   1
M  END
>  <EmbedRMS>  (187) 
0.28373172213554615

>  <Gold.Version>  (187) 
2020.3.0

>  <Gold.Id.Protein>  (187) 
unknown|1q8t_protein|pdb

>  <Gold.PLP.Fitness>  (187) 
45.7214

>  <Gold.PLP.PLP>  (187) 
-40.0855

>  <Gold.PLP.part.hbond>  (187) 
-1.0000

>  <Gold.PLP.part.metal>  (187) 
0.0000

>  <Gold.PLP.part.buried>  (187) 
-3.1337

>  <Gold.PLP.part.nonpolar>  (187) 
-36.1266

>  <Gold.PLP.part.repulsive>  (187) 
0.0000

>  <Gold.PLP.ligand.clash>  (187) 
0.0000

>  <Gold.PLP.ligand.torsion>  (187) 
0.4505

>  <Gold.PLP.Chemscore.Hbond>  (187) 
2.0000

>  <Gold.PLP.Chemscore.CHOScore>  (187) 
0.0000

>  <Gold.PLP.Chemscore.Metal>  (187) 
0.0000

>  <Gold.Chemscore.Hbonds>  (187) 
donor molecule, donor type, donor heavy atom, donor atom, acceptor molecule, acceptor atom, score
      L1  H    14    37       P1  2902  2.00

>  <Gold.PLP.Chemscore.Internal.Correction>  (187) 
0.5369

>  <Gold.PLP.Constraint>  (187) 
-0.0000

>  <Gold.Protein.RotatedTorsions>  (187) 
[  681  677  676  673 ] final -169.06 input -179.99 | X-H torsion
[  702  698  697  694 ] final  -70.96 input  179.99 | X-H torsion
[ 2577 2569 2568 2566 ] final   -8.10 input   -0.13 | X-H torsion
[ 2891 2887 2886 2883 ] final  154.45 input  179.98 | X-H torsion
[ 3175 3171 3170 3167 ] final   -7.29 input -179.99 | X-H torsion
[ 5278 5270 5269 5267 ] final  148.54 input    0.55 | X-H torsion
[  641  637  636  633 ] final   44.17 input  179.99 | X-H torsion
[ 1886 1878 1877 1875 ] final  144.15 input    1.60 | X-H torsion
[  965  957  956  954 ] final  153.72 input    0.45 | X-H torsion

>  <Gold.Protein.ActiveResidues>  (187) 
 LYS47   THR48   LEU49   GLY50   THR51   GLY52   SER53   PHE54   GLY55   ARG56  
 VAL57   MET58   LEU59   TYR69   ALA70   MET71   LYS72   ILE73   LEU74   GLU91  
 LEU95   VAL104  LYS105  MET118  VAL119  MET120  GLU121  TYR122  VAL123  PRO124 
 GLY125  GLY126  GLU127  MET128  PHE129  TYR164  ASP166  LEU167  LYS168  PRO169 
 GLU170  ASN171  LEU172  LEU173  ILE174  GLN181  VAL182  THR183  ASP184  PHE185 
 GLY186  PHE187  GLY200  THR201  ASN326  PHE327  TYR330  ARG18   ARG19   ASN20  
 ALA21   ILE22   HIS23  

>  <Gold.Protein.RotatedAtoms>  (187) 
    9.7345   19.6127    8.5047 H   0  0  0  0  0  0  0  0  0  0  0  0  # atno 641  bound_to 637 
   16.8716   13.9472    7.1333 H   0  0  0  0  0  0  0  0  0  0  0  0  # atno 681  bound_to 677 
   20.4506   11.6488   -0.2674 H   0  0  0  0  0  0  0  0  0  0  0  0  # atno 702  bound_to 698 
   -7.0434   16.9446   -0.2564 H   0  0  0  0  0  0  0  0  0  0  0  0  # atno 965  bound_to 957 
    0.8719   12.0319   11.0380 H   0  0  0  0  0  0  0  0  0  0  0  0  # atno 1886 bound_to 1878
    9.8758    3.3171   -3.3950 H   0  0  0  0  0  0  0  0  0  0  0  0  # atno 2577 bound_to 2569
    7.6576    6.9014    1.2029 H   0  0  0  0  0  0  0  0  0  0  0  0  # atno 2891 bound_to 2887
   19.1955    2.8102   -1.1417 H   0  0  0  0  0  0  0  0  0  0  0  0  # atno 3175 bound_to 3171
   14.1491   10.1868    8.9866 H   0  0  0  0  0  0  0  0  0  0  0  0  # atno 5278 bound_to 5270
   16.8393   12.7939    6.0355 LP  0  0  0  0  0  0  0  0  0  0  0  0  # atno 5914 bound_to 677 
   15.5770   13.0239    7.0456 LP  0  0  0  0  0  0  0  0  0  0  0  0  # atno 5915 bound_to 677 
   20.8943   11.5828   -1.7958 LP  0  0  0  0  0  0  0  0  0  0  0  0  # atno 5920 bound_to 698 
   19.3362   11.8511   -1.3875 LP  0  0  0  0  0  0  0  0  0  0  0  0  # atno 5921 bound_to 698 
   11.1031    2.5389   -2.7443 LP  0  0  0  0  0  0  0  0  0  0  0  0  # atno 5950 bound_to 2569
    9.5690    2.0328   -2.5053 LP  0  0  0  0  0  0  0  0  0  0  0  0  # atno 5951 bound_to 2569
    8.3436    5.8821    0.1895 LP  0  0  0  0  0  0  0  0  0  0  0  0  # atno 5982 bound_to 2887
    7.2721    5.3595    1.3055 LP  0  0  0  0  0  0  0  0  0  0  0  0  # atno 5983 bound_to 2887
   18.7680    2.7159    0.3893 LP  0  0  0  0  0  0  0  0  0  0  0  0  # atno 6000 bound_to 3171
   17.9188    1.9355   -0.7667 LP  0  0  0  0  0  0  0  0  0  0  0  0  # atno 6001 bound_to 3171
   12.6144   10.0538    9.3913 LP  0  0  0  0  0  0  0  0  0  0  0  0  # atno 6004 bound_to 5270
   13.7951    9.7953   10.4893 LP  0  0  0  0  0  0  0  0  0  0  0  0  # atno 6005 bound_to 5270
   10.3907   18.9387    7.2201 LP  0  0  0  0  0  0  0  0  0  0  0  0  # atno 6055 bound_to 637 
   11.3217   19.5072    8.4353 LP  0  0  0  0  0  0  0  0  0  0  0  0  # atno 6056 bound_to 637 
    2.2814   11.6953   10.3782 LP  0  0  0  0  0  0  0  0  0  0  0  0  # atno 6063 bound_to 1878
    1.1861   10.5174   10.6601 LP  0  0  0  0  0  0  0  0  0  0  0  0  # atno 6064 bound_to 1878
   -6.9546   15.3775   -0.5237 LP  0  0  0  0  0  0  0  0  0  0  0  0  # atno 6067 bound_to 957 
   -6.4355   16.4485   -1.6418 LP  0  0  0  0  0  0  0  0  0  0  0  0  # atno 6068 bound_to 957 

>  <STRIFE_LigEff_Score>  (187) 
2.8575875

$$$$
unknown|pharmsElabsTestPreDocking|sdf|188|dock6
     RDKit          3D

 19 20  0  0  0  0  0  0  0  0999 V2000
   13.7617    7.0134    3.1262 C   0  0  0  0  0  0  0  0  0  0  0  0
   13.6150    8.3632    2.4004 C   0  0  0  0  0  0  0  0  0  0  0  0
   14.2156    8.2603    1.0633 N   0  0  0  0  0  0  0  0  0  0  0  0
   12.1124    8.7977    2.3506 C   0  0  0  0  0  0  0  0  0  0  0  0
   11.3476    7.8543    1.4041 C   0  0  0  0  0  0  0  0  0  0  0  0
    9.8895    8.2472    1.1946 C   0  0  0  0  0  0  0  0  0  0  0  0
    9.2784    9.0180    2.3549 C   0  0  0  0  0  0  0  0  0  0  0  0
    7.7896    9.1774    2.2540 C   0  0  0  0  0  0  0  0  0  0  0  0
    7.1255    8.1842    2.6400 O   0  0  0  0  0  0  0  0  0  0  0  0
    7.0880   10.3346    1.7652 N   0  0  0  0  0  0  0  0  0  0  0  0
    5.6241   10.2564    1.6371 C   0  0  0  0  0  0  0  0  0  0  0  0
    4.9513   10.0672    2.9623 C   0  0  0  0  0  0  0  0  0  0  0  0
    5.6828   10.1731    4.1526 C   0  0  0  0  0  0  0  0  0  0  0  0
    5.0404   10.0097    5.3801 C   0  0  0  0  0  0  0  0  0  0  0  0
    3.6698    9.7436    5.4044 C   0  0  0  0  0  0  0  0  0  0  0  0
    2.9739    9.6429    4.2406 N   0  0  0  0  0  0  0  0  0  0  0  0
    3.5774    9.7974    3.0324 C   0  0  0  0  0  0  0  0  0  0  0  0
    9.9017    8.9871    3.7373 C   0  0  0  0  0  0  0  0  0  0  0  0
   11.4320    8.7756    3.7432 C   0  0  0  0  0  0  0  0  0  0  0  0
  1  2  1  0
  2  3  1  0
  2  4  1  0
  4  5  1  0
  5  6  1  0
  6  7  1  0
  7  8  1  0
  8  9  2  0
  8 10  1  0
 10 11  1  0
 11 12  1  0
 12 13  2  0
 13 14  1  0
 14 15  2  0
 15 16  1  0
 16 17  2  0
  7 18  1  0
 18 19  1  0
 19  4  1  0
 17 12  1  0
M  CHG  1   3   1
M  END
>  <EmbedRMS>  (188) 
0.17084101544492625

>  <Gold.Version>  (188) 
2020.3.0

>  <Gold.Id.Protein>  (188) 
unknown|1q8t_protein|pdb

>  <Gold.PLP.Fitness>  (188) 
61.9425

>  <Gold.PLP.PLP>  (188) 
-45.0383

>  <Gold.PLP.part.hbond>  (188) 
-3.0000

>  <Gold.PLP.part.metal>  (188) 
0.0000

>  <Gold.PLP.part.buried>  (188) 
-2.3008

>  <Gold.PLP.part.nonpolar>  (188) 
-41.3738

>  <Gold.PLP.part.repulsive>  (188) 
0.1460

>  <Gold.PLP.ligand.clash>  (188) 
0.0000

>  <Gold.PLP.ligand.torsion>  (188) 
0.5308

>  <Gold.PLP.Chemscore.Hbond>  (188) 
4.0000

>  <Gold.PLP.Chemscore.CHOScore>  (188) 
1.7409

>  <Gold.PLP.Chemscore.Metal>  (188) 
0.0000

>  <Gold.Chemscore.Hbonds>  (188) 
donor molecule, donor type, donor heavy atom, donor atom, acceptor molecule, acceptor atom, score
      L1  H     3    25       P1  2902  2.00
      P1  H  2887  2891       L1     9  1.00
      P1  H  1888  1903       L1    16  1.00
      L1  C    15    38       P1  1891  1.00
      L1  C    17    39       P1  1855  0.74

>  <Gold.PLP.Chemscore.Internal.Correction>  (188) 
0.7431

>  <Gold.PLP.Constraint>  (188) 
-0.0000

>  <Gold.Protein.RotatedTorsions>  (188) 
[  681  677  676  673 ] final   18.66 input -179.99 | X-H torsion
[  702  698  697  694 ] final  -82.54 input  179.99 | X-H torsion
[ 2577 2569 2568 2566 ] final  -35.54 input   -0.13 | X-H torsion
[ 2891 2887 2886 2883 ] final -172.45 input  179.98 | X-H torsion
[ 3175 3171 3170 3167 ] final -174.81 input -179.99 | X-H torsion
[ 5278 5270 5269 5267 ] final   92.76 input    0.55 | X-H torsion
[  641  637  636  633 ] final -130.12 input  179.99 | X-H torsion
[ 1886 1878 1877 1875 ] final   77.40 input    1.60 | X-H torsion
[  965  957  956  954 ] final -150.27 input    0.45 | X-H torsion

>  <Gold.Protein.ActiveResidues>  (188) 
 LYS47   THR48   LEU49   GLY50   THR51   GLY52   SER53   PHE54   GLY55   ARG56  
 VAL57   MET58   LEU59   TYR69   ALA70   MET71   LYS72   ILE73   LEU74   GLU91  
 LEU95   VAL104  LYS105  MET118  VAL119  MET120  GLU121  TYR122  VAL123  PRO124 
 GLY125  GLY126  GLU127  MET128  PHE129  TYR164  ASP166  LEU167  LYS168  PRO169 
 GLU170  ASN171  LEU172  LEU173  ILE174  GLN181  VAL182  THR183  ASP184  PHE185 
 GLY186  PHE187  GLY200  THR201  ASN326  PHE327  TYR330  ARG18   ARG19   ASN20  
 ALA21   ILE22   HIS23  

>  <Gold.Protein.RotatedAtoms>  (188) 
   11.1485   19.0531    7.5635 H   0  0  0  0  0  0  0  0  0  0  0  0  # atno 641  bound_to 637 
   16.0904   12.5898    6.2715 H   0  0  0  0  0  0  0  0  0  0  0  0  # atno 681  bound_to 677 
   20.6178   11.6203   -0.3301 H   0  0  0  0  0  0  0  0  0  0  0  0  # atno 702  bound_to 698 
   -6.7025   17.1334   -1.0014 H   0  0  0  0  0  0  0  0  0  0  0  0  # atno 965  bound_to 957 
    1.7628   12.2594   10.6841 H   0  0  0  0  0  0  0  0  0  0  0  0  # atno 1886 bound_to 1878
   10.2974    3.3683   -3.3996 H   0  0  0  0  0  0  0  0  0  0  0  0  # atno 2577 bound_to 2569
    7.3512    6.6088    1.4877 H   0  0  0  0  0  0  0  0  0  0  0  0  # atno 2891 bound_to 2887
   18.2061    2.2572    0.2318 H   0  0  0  0  0  0  0  0  0  0  0  0  # atno 3175 bound_to 3171
   13.3425   10.2335    8.7631 H   0  0  0  0  0  0  0  0  0  0  0  0  # atno 5278 bound_to 5270
   15.9400   13.6547    7.4461 LP  0  0  0  0  0  0  0  0  0  0  0  0  # atno 5914 bound_to 677 
   17.2985   13.5917    6.5420 LP  0  0  0  0  0  0  0  0  0  0  0  0  # atno 5915 bound_to 677 
   20.7506   11.6106   -1.9174 LP  0  0  0  0  0  0  0  0  0  0  0  0  # atno 5920 bound_to 698 
   19.3039   11.8532   -1.2000 LP  0  0  0  0  0  0  0  0  0  0  0  0  # atno 5921 bound_to 698 
   10.9218    2.1970   -2.5202 LP  0  0  0  0  0  0  0  0  0  0  0  0  # atno 5950 bound_to 2569
    9.3064    2.3207   -2.7245 LP  0  0  0  0  0  0  0  0  0  0  0  0  # atno 5951 bound_to 2569
    8.3729    6.4104    0.2822 LP  0  0  0  0  0  0  0  0  0  0  0  0  # atno 5982 bound_to 2887
    7.5653    5.1390    0.9130 LP  0  0  0  0  0  0  0  0  0  0  0  0  # atno 5983 bound_to 2887
   18.3408    2.1713   -1.3525 LP  0  0  0  0  0  0  0  0  0  0  0  0  # atno 6000 bound_to 3171
   19.3872    3.0619   -0.4703 LP  0  0  0  0  0  0  0  0  0  0  0  0  # atno 6001 bound_to 3171
   12.8308    9.8511   10.2221 LP  0  0  0  0  0  0  0  0  0  0  0  0  # atno 6004 bound_to 5270
   14.4275    9.9488    9.8938 LP  0  0  0  0  0  0  0  0  0  0  0  0  # atno 6005 bound_to 5270
   10.6414   19.7764    8.8881 LP  0  0  0  0  0  0  0  0  0  0  0  0  # atno 6055 bound_to 637 
    9.5818   19.2588    7.7585 LP  0  0  0  0  0  0  0  0  0  0  0  0  # atno 6056 bound_to 637 
    1.9503   10.7125   10.3565 LP  0  0  0  0  0  0  0  0  0  0  0  0  # atno 6063 bound_to 1878
    0.5794   11.2606   11.0544 LP  0  0  0  0  0  0  0  0  0  0  0  0  # atno 6064 bound_to 1878
   -7.1995   16.0252    0.0281 LP  0  0  0  0  0  0  0  0  0  0  0  0  # atno 6067 bound_to 957 
   -6.5495   15.6019   -1.4089 LP  0  0  0  0  0  0  0  0  0  0  0  0  # atno 6068 bound_to 957 

>  <STRIFE_LigEff_Score>  (188) 
3.2601315789473686

$$$$
unknown|pharmsElabsTestPreDocking|sdf|189|dock3
     RDKit          3D

 17 17  0  0  0  0  0  0  0  0999 V2000
    3.3045    8.6067    2.1869 C   0  0  0  0  0  0  0  0  0  0  0  0
    4.5908    8.9630    2.1523 C   0  0  0  0  0  0  0  0  0  0  0  0
    5.4549    9.2100    3.3325 C   0  0  0  0  0  0  0  0  0  0  0  0
    4.9380    9.8138    4.4299 C   0  0  0  0  0  0  0  0  0  0  0  0
    5.7367   10.1722    5.6459 C   0  0  0  0  0  0  0  0  0  0  0  0
    6.8779    8.9329    3.2867 N   0  0  0  0  0  0  0  0  0  0  0  0
    7.9178    9.2608    2.3352 C   0  0  0  0  0  0  0  0  0  0  0  0
    7.5894    9.9887    1.3632 O   0  0  0  0  0  0  0  0  0  0  0  0
    9.3850    8.9293    2.3675 C   0  0  0  0  0  0  0  0  0  0  0  0
    9.6889    7.4555    2.5773 C   0  0  0  0  0  0  0  0  0  0  0  0
   11.1416    7.0939    2.3452 C   0  0  0  0  0  0  0  0  0  0  0  0
   12.2030    8.1309    2.7264 C   0  0  0  0  0  0  0  0  0  0  0  0
   13.5582    7.8916    2.0160 C   0  0  0  0  0  0  0  0  0  0  0  0
   14.4943    9.0836    1.8161 C   0  0  0  0  0  0  0  0  0  0  0  0
   13.4224    7.0834    0.8032 N   0  0  0  0  0  0  0  0  0  0  0  0
   11.7967    9.6206    2.6058 C   0  0  0  0  0  0  0  0  0  0  0  0
   10.3421    9.9650    2.8960 C   0  0  0  0  0  0  0  0  0  0  0  0
  1  2  2  0
  2  3  1  0
  3  4  2  0
  4  5  1  0
  3  6  1  0
  6  7  1  0
  7  8  2  0
  7  9  1  0
  9 10  1  0
 10 11  1  0
 11 12  1  0
 12 13  1  0
 13 14  1  0
 13 15  1  0
 12 16  1  0
 16 17  1  0
 17  9  1  0
M  CHG  1  15   1
M  END
>  <EmbedRMS>  (189) 
0.29216731409503444

>  <Gold.Version>  (189) 
2020.3.0

>  <Gold.Id.Protein>  (189) 
unknown|1q8t_protein|pdb

>  <Gold.PLP.Fitness>  (189) 
45.0135

>  <Gold.PLP.PLP>  (189) 
-39.2730

>  <Gold.PLP.part.hbond>  (189) 
-1.7547

>  <Gold.PLP.part.metal>  (189) 
0.0000

>  <Gold.PLP.part.buried>  (189) 
-1.2830

>  <Gold.PLP.part.nonpolar>  (189) 
-36.2152

>  <Gold.PLP.part.repulsive>  (189) 
0.0532

>  <Gold.PLP.ligand.clash>  (189) 
0.0000

>  <Gold.PLP.ligand.torsion>  (189) 
2.1050

>  <Gold.PLP.Chemscore.Hbond>  (189) 
3.0000

>  <Gold.PLP.Chemscore.CHOScore>  (189) 
0.0000

>  <Gold.PLP.Chemscore.Metal>  (189) 
0.0000

>  <Gold.Chemscore.Hbonds>  (189) 
donor molecule, donor type, donor heavy atom, donor atom, acceptor molecule, acceptor atom, score
      L1  H    15    36       P1  2691  1.00
      L1  H    15    38       P1  2902  2.00

>  <Gold.PLP.Chemscore.Internal.Correction>  (189) 
0.9504

>  <Gold.PLP.Constraint>  (189) 
-0.0000

>  <Gold.Protein.RotatedTorsions>  (189) 
[  681  677  676  673 ] final -171.75 input -179.99 | X-H torsion
[  702  698  697  694 ] final  -13.94 input  179.99 | X-H torsion
[ 2577 2569 2568 2566 ] final  160.71 input   -0.13 | X-H torsion
[ 2891 2887 2886 2883 ] final  158.24 input  179.98 | X-H torsion
[ 3175 3171 3170 3167 ] final -171.60 input -179.99 | X-H torsion
[ 5278 5270 5269 5267 ] final -129.79 input    0.55 | X-H torsion
[  641  637  636  633 ] final -133.70 input  179.99 | X-H torsion
[ 1886 1878 1877 1875 ] final  140.26 input    1.60 | X-H torsion
[  965  957  956  954 ] final  162.10 input    0.45 | X-H torsion

>  <Gold.Protein.ActiveResidues>  (189) 
 LYS47   THR48   LEU49   GLY50   THR51   GLY52   SER53   PHE54   GLY55   ARG56  
 VAL57   MET58   LEU59   TYR69   ALA70   MET71   LYS72   ILE73   LEU74   GLU91  
 LEU95   VAL104  LYS105  MET118  VAL119  MET120  GLU121  TYR122  VAL123  PRO124 
 GLY125  GLY126  GLU127  MET128  PHE129  TYR164  ASP166  LEU167  LYS168  PRO169 
 GLU170  ASN171  LEU172  LEU173  ILE174  GLN181  VAL182  THR183  ASP184  PHE185 
 GLY186  PHE187  GLY200  THR201  ASN326  PHE327  TYR330  ARG18   ARG19   ASN20  
 ALA21   ILE22   HIS23  

>  <Gold.Protein.RotatedAtoms>  (189) 
   11.1835   19.0714    7.6031 H   0  0  0  0  0  0  0  0  0  0  0  0  # atno 641  bound_to 637 
   16.9036   13.9405    7.1069 H   0  0  0  0  0  0  0  0  0  0  0  0  # atno 681  bound_to 677 
   19.6339   11.7975   -0.4747 H   0  0  0  0  0  0  0  0  0  0  0  0  # atno 702  bound_to 698 
   -6.9993   17.0230   -0.3515 H   0  0  0  0  0  0  0  0  0  0  0  0  # atno 965  bound_to 957 
    0.9139   12.0743   11.0267 H   0  0  0  0  0  0  0  0  0  0  0  0  # atno 1886 bound_to 1878
   10.3112    1.9125   -2.3878 H   0  0  0  0  0  0  0  0  0  0  0  0  # atno 2577 bound_to 2569
    7.6189    6.8806    1.2427 H   0  0  0  0  0  0  0  0  0  0  0  0  # atno 2891 bound_to 2887
   18.2389    2.2849    0.2577 H   0  0  0  0  0  0  0  0  0  0  0  0  # atno 3175 bound_to 3171
   14.2609    9.9086   10.1194 H   0  0  0  0  0  0  0  0  0  0  0  0  # atno 5278 bound_to 5270
   16.8030   12.7687    6.0331 LP  0  0  0  0  0  0  0  0  0  0  0  0  # atno 5914 bound_to 677 
   15.5796   13.0560    7.0759 LP  0  0  0  0  0  0  0  0  0  0  0  0  # atno 5915 bound_to 677 
   21.1353   11.5233   -0.9307 LP  0  0  0  0  0  0  0  0  0  0  0  0  # atno 5920 bound_to 698 
   19.9542   11.7540   -2.0345 LP  0  0  0  0  0  0  0  0  0  0  0  0  # atno 5921 bound_to 698 
    9.3009    2.8976   -3.1254 LP  0  0  0  0  0  0  0  0  0  0  0  0  # atno 5950 bound_to 2569
   10.9127    3.1529   -3.1846 LP  0  0  0  0  0  0  0  0  0  0  0  0  # atno 5951 bound_to 2569
    8.3573    5.9429    0.1882 LP  0  0  0  0  0  0  0  0  0  0  0  0  # atno 5982 bound_to 2887
    7.2990    5.3206    1.2650 LP  0  0  0  0  0  0  0  0  0  0  0  0  # atno 5983 bound_to 2887
   18.3020    2.1459   -1.3273 LP  0  0  0  0  0  0  0  0  0  0  0  0  # atno 6000 bound_to 3171
   19.3915    3.0582   -0.5228 LP  0  0  0  0  0  0  0  0  0  0  0  0  # atno 6001 bound_to 3171
   13.6184   10.2350    8.6990 LP  0  0  0  0  0  0  0  0  0  0  0  0  # atno 6004 bound_to 5270
   12.6735    9.9068    9.9898 LP  0  0  0  0  0  0  0  0  0  0  0  0  # atno 6005 bound_to 5270
   10.5832   19.7831    8.8947 LP  0  0  0  0  0  0  0  0  0  0  0  0  # atno 6055 bound_to 637 
    9.6032   19.2329    7.7101 LP  0  0  0  0  0  0  0  0  0  0  0  0  # atno 6056 bound_to 637 
    2.2926   11.6342   10.3628 LP  0  0  0  0  0  0  0  0  0  0  0  0  # atno 6063 bound_to 1878
    1.1306   10.5338   10.6874 LP  0  0  0  0  0  0  0  0  0  0  0  0  # atno 6064 bound_to 1878
   -7.0066   15.4318   -0.4082 LP  0  0  0  0  0  0  0  0  0  0  0  0  # atno 6067 bound_to 957 
   -6.4298   16.3117   -1.6571 LP  0  0  0  0  0  0  0  0  0  0  0  0  # atno 6068 bound_to 957 

>  <STRIFE_LigEff_Score>  (189) 
2.6478529411764704

$$$$
unknown|pharmsElabsTestPreDocking|sdf|190|dock9
     RDKit          3D

 18 19  0  0  0  0  0  0  0  0999 V2000
   13.9252    9.1969    1.7112 C   0  0  0  0  0  0  0  0  0  0  0  0
   13.0902    7.9749    2.0904 C   0  0  0  0  0  0  0  0  0  0  0  0
   12.9614    7.0275    0.9811 N   0  0  0  0  0  0  0  0  0  0  0  0
   11.7520    8.1987    2.8379 C   0  0  0  0  0  0  0  0  0  0  0  0
   10.6956    7.1217    2.5496 C   0  0  0  0  0  0  0  0  0  0  0  0
    9.2521    7.4875    2.8588 C   0  0  0  0  0  0  0  0  0  0  0  0
    8.9108    8.9033    2.4651 C   0  0  0  0  0  0  0  0  0  0  0  0
    7.4369    9.2015    2.4526 C   0  0  0  0  0  0  0  0  0  0  0  0
    7.0404    9.8116    1.4316 O   0  0  0  0  0  0  0  0  0  0  0  0
    6.4916    8.8831    3.4951 N   0  0  0  0  0  0  0  0  0  0  0  0
    5.0664    9.0756    3.3153 C   0  0  0  0  0  0  0  0  0  0  0  0
    4.4457    8.9630    2.1222 N   0  0  0  0  0  0  0  0  0  0  0  0
    3.1614    9.2581    2.4340 C   0  0  0  0  0  0  0  0  0  0  0  0
    3.0017    9.5533    3.7389 N   0  0  0  0  0  0  0  0  0  0  0  0
    4.1993    9.4441    4.2852 N   0  0  0  0  0  0  0  0  0  0  0  0
    4.4738    9.8016    5.6728 C   0  0  0  0  0  0  0  0  0  0  0  0
    9.8269    9.9801    2.9759 C   0  0  0  0  0  0  0  0  0  0  0  0
   11.2960    9.6745    2.6921 C   0  0  0  0  0  0  0  0  0  0  0  0
  1  2  1  0
  2  3  1  0
  2  4  1  0
  4  5  1  0
  5  6  1  0
  6  7  1  0
  7  8  1  0
  8  9  2  0
  8 10  1  0
 10 11  1  0
 11 12  2  0
 12 13  1  0
 13 14  2  0
 14 15  1  0
 15 16  1  0
  7 17  1  0
 17 18  1  0
 18  4  1  0
 15 11  1  0
M  CHG  1   3   1
M  END
>  <EmbedRMS>  (190) 
0.293000697254303

>  <Gold.Version>  (190) 
2020.3.0

>  <Gold.Id.Protein>  (190) 
unknown|1q8t_protein|pdb

>  <Gold.PLP.Fitness>  (190) 
49.9798

>  <Gold.PLP.PLP>  (190) 
-39.9400

>  <Gold.PLP.part.hbond>  (190) 
-2.3078

>  <Gold.PLP.part.metal>  (190) 
0.0000

>  <Gold.PLP.part.buried>  (190) 
-2.8658

>  <Gold.PLP.part.nonpolar>  (190) 
-35.6564

>  <Gold.PLP.part.repulsive>  (190) 
0.2265

>  <Gold.PLP.ligand.clash>  (190) 
0.0000

>  <Gold.PLP.ligand.torsion>  (190) 
1.8855

>  <Gold.PLP.Chemscore.Hbond>  (190) 
3.3996

>  <Gold.PLP.Chemscore.CHOScore>  (190) 
1.0000

>  <Gold.PLP.Chemscore.Metal>  (190) 
0.0000

>  <Gold.Chemscore.Hbonds>  (190) 
donor molecule, donor type, donor heavy atom, donor atom, acceptor molecule, acceptor atom, score
      L1  H     3    24       P1  2902  1.98
      L1  H     3    25       P1  2691  0.46
      P1  H  1888  1903       L1    14  0.95
      L1  C    13    33       P1  1855  1.00

>  <Gold.PLP.Chemscore.Internal.Correction>  (190) 
0.6120

>  <Gold.PLP.Constraint>  (190) 
-0.0000

>  <Gold.Protein.RotatedTorsions>  (190) 
[  681  677  676  673 ] final  130.38 input -179.99 | X-H torsion
[  702  698  697  694 ] final -133.77 input  179.99 | X-H torsion
[ 2577 2569 2568 2566 ] final  -78.50 input   -0.13 | X-H torsion
[ 2891 2887 2886 2883 ] final  126.28 input  179.98 | X-H torsion
[ 3175 3171 3170 3167 ] final  -50.94 input -179.99 | X-H torsion
[ 5278 5270 5269 5267 ] final -154.38 input    0.55 | X-H torsion
[  641  637  636  633 ] final -131.16 input  179.99 | X-H torsion
[ 1886 1878 1877 1875 ] final   63.42 input    1.60 | X-H torsion
[  965  957  956  954 ] final  -63.18 input    0.45 | X-H torsion

>  <Gold.Protein.ActiveResidues>  (190) 
 LYS47   THR48   LEU49   GLY50   THR51   GLY52   SER53   PHE54   GLY55   ARG56  
 VAL57   MET58   LEU59   TYR69   ALA70   MET71   LYS72   ILE73   LEU74   GLU91  
 LEU95   VAL104  LYS105  MET118  VAL119  MET120  GLU121  TYR122  VAL123  PRO124 
 GLY125  GLY126  GLU127  MET128  PHE129  TYR164  ASP166  LEU167  LYS168  PRO169 
 GLU170  ASN171  LEU172  LEU173  ILE174  GLN181  VAL182  THR183  ASP184  PHE185 
 GLY186  PHE187  GLY200  THR201  ASN326  PHE327  TYR330  ARG18   ARG19   ASN20  
 ALA21   ILE22   HIS23  

>  <Gold.Protein.RotatedAtoms>  (190) 
   11.1590   19.0583    7.5748 H   0  0  0  0  0  0  0  0  0  0  0  0  # atno 641  bound_to 637 
   17.2514   13.4949    6.4496 H   0  0  0  0  0  0  0  0  0  0  0  0  # atno 681  bound_to 677 
   21.0930   11.5478   -0.9379 H   0  0  0  0  0  0  0  0  0  0  0  0  # atno 702  bound_to 698 
   -6.4443   16.0808   -1.5907 H   0  0  0  0  0  0  0  0  0  0  0  0  # atno 965  bound_to 957 
    1.9345   12.1622   10.5918 H   0  0  0  0  0  0  0  0  0  0  0  0  # atno 1886 bound_to 1878
   10.8690    3.1255   -3.1891 H   0  0  0  0  0  0  0  0  0  0  0  0  # atno 2577 bound_to 2569
    7.9457    6.9375    0.8778 H   0  0  0  0  0  0  0  0  0  0  0  0  # atno 2891 bound_to 2887
   19.3645    3.0153   -0.5311 H   0  0  0  0  0  0  0  0  0  0  0  0  # atno 3175 bound_to 3171
   14.4104    9.9941    9.7788 H   0  0  0  0  0  0  0  0  0  0  0  0  # atno 5278 bound_to 5270
   15.9700   12.5559    6.3382 LP  0  0  0  0  0  0  0  0  0  0  0  0  # atno 5914 bound_to 677 
   16.0467   13.7378    7.4625 LP  0  0  0  0  0  0  0  0  0  0  0  0  # atno 5915 bound_to 677 
   19.9568   11.7536   -2.0353 LP  0  0  0  0  0  0  0  0  0  0  0  0  # atno 5920 bound_to 698 
   19.5979   11.7865   -0.4426 LP  0  0  0  0  0  0  0  0  0  0  0  0  # atno 5921 bound_to 698 
   10.3301    1.8859   -2.3476 LP  0  0  0  0  0  0  0  0  0  0  0  0  # atno 5950 bound_to 2569
    9.2963    2.8875   -3.1188 LP  0  0  0  0  0  0  0  0  0  0  0  0  # atno 5951 bound_to 2569
    8.1674    5.4719    0.2954 LP  0  0  0  0  0  0  0  0  0  0  0  0  # atno 5982 bound_to 2887
    7.1450    5.7316    1.5419 LP  0  0  0  0  0  0  0  0  0  0  0  0  # atno 5983 bound_to 2887
   18.2146    2.2945    0.3019 LP  0  0  0  0  0  0  0  0  0  0  0  0  # atno 6000 bound_to 3171
   18.2942    2.1409   -1.3219 LP  0  0  0  0  0  0  0  0  0  0  0  0  # atno 6001 bound_to 3171
   13.2198   10.2195    8.7452 LP  0  0  0  0  0  0  0  0  0  0  0  0  # atno 6004 bound_to 5270
   12.9148    9.8323   10.3020 LP  0  0  0  0  0  0  0  0  0  0  0  0  # atno 6005 bound_to 5270
   10.6246   19.7785    8.8904 LP  0  0  0  0  0  0  0  0  0  0  0  0  # atno 6055 bound_to 637 
    9.5877   19.2512    7.7443 LP  0  0  0  0  0  0  0  0  0  0  0  0  # atno 6056 bound_to 637 
    1.7668   10.5886   10.4163 LP  0  0  0  0  0  0  0  0  0  0  0  0  # atno 6063 bound_to 1878
    0.5821   11.4869   11.0918 LP  0  0  0  0  0  0  0  0  0  0  0  0  # atno 6064 bound_to 1878
   -6.9332   17.1661   -0.5333 LP  0  0  0  0  0  0  0  0  0  0  0  0  # atno 6067 bound_to 957 
   -7.0878   15.5696   -0.2270 LP  0  0  0  0  0  0  0  0  0  0  0  0  # atno 6068 bound_to 957 

>  <STRIFE_LigEff_Score>  (190) 
2.776655555555555

$$$$
unknown|pharmsElabsTestPreDocking|sdf|191|dock1
     RDKit          3D

 18 19  0  0  0  0  0  0  0  0999 V2000
   14.7851    9.3481    0.9680 C   0  0  0  0  0  0  0  0  0  0  0  0
   14.1821    8.1441    1.6914 C   0  0  0  0  0  0  0  0  0  0  0  0
   13.8509    7.0723    0.7424 N   0  0  0  0  0  0  0  0  0  0  0  0
   13.0481    8.3978    2.7041 C   0  0  0  0  0  0  0  0  0  0  0  0
   12.1305    7.2241    3.1395 C   0  0  0  0  0  0  0  0  0  0  0  0
   10.6426    7.4289    2.8963 C   0  0  0  0  0  0  0  0  0  0  0  0
   10.1912    8.8227    3.3279 C   0  0  0  0  0  0  0  0  0  0  0  0
    8.6966    8.9480    3.2133 C   0  0  0  0  0  0  0  0  0  0  0  0
    8.1344    8.7340    2.1048 O   0  0  0  0  0  0  0  0  0  0  0  0
    7.9348    9.3349    4.3653 N   0  0  0  0  0  0  0  0  0  0  0  0
    6.5095    9.4729    4.4103 C   0  0  0  0  0  0  0  0  0  0  0  0
    5.7511   10.0890    5.3969 C   0  0  0  0  0  0  0  0  0  0  0  0
    4.4530    9.9389    4.9628 C   0  0  0  0  0  0  0  0  0  0  0  0
    4.4676    9.2831    3.7883 N   0  0  0  0  0  0  0  0  0  0  0  0
    3.2968    8.9020    3.0138 C   0  0  0  0  0  0  0  0  0  0  0  0
    5.7087    8.9844    3.4455 N   0  0  0  0  0  0  0  0  0  0  0  0
   10.8765    9.8632    2.4489 C   0  0  0  0  0  0  0  0  0  0  0  0
   12.3977    9.8092    2.5744 C   0  0  0  0  0  0  0  0  0  0  0  0
  1  2  1  0
  2  3  1  0
  2  4  1  0
  4  5  1  0
  5  6  1  0
  6  7  1  0
  7  8  1  0
  8  9  2  0
  8 10  1  0
 10 11  1  0
 11 12  1  0
 12 13  2  0
 13 14  1  0
 14 15  1  0
 14 16  1  0
  7 17  1  0
 17 18  1  0
 18  4  1  0
 16 11  2  0
M  CHG  1   3   1
M  END
>  <EmbedRMS>  (191) 
0.20203882927987918

>  <Gold.Version>  (191) 
2020.3.0

>  <Gold.Id.Protein>  (191) 
unknown|1q8t_protein|pdb

>  <Gold.PLP.Fitness>  (191) 
53.6693

>  <Gold.PLP.PLP>  (191) 
-43.7460

>  <Gold.PLP.part.hbond>  (191) 
-3.0000

>  <Gold.PLP.part.metal>  (191) 
0.0000

>  <Gold.PLP.part.buried>  (191) 
-4.9647

>  <Gold.PLP.part.nonpolar>  (191) 
-36.2253

>  <Gold.PLP.part.repulsive>  (191) 
0.0684

>  <Gold.PLP.ligand.clash>  (191) 
0.0000

>  <Gold.PLP.ligand.torsion>  (191) 
1.0135

>  <Gold.PLP.Chemscore.Hbond>  (191) 
3.8480

>  <Gold.PLP.Chemscore.CHOScore>  (191) 
0.0000

>  <Gold.PLP.Chemscore.Metal>  (191) 
0.0000

>  <Gold.Chemscore.Hbonds>  (191) 
donor molecule, donor type, donor heavy atom, donor atom, acceptor molecule, acceptor atom, score
      L1  H     3    24       P1  2902  2.00
      L1  H     3    25       P1  2691  0.85
      P1  H  2887  2891       L1     9  1.00

>  <Gold.PLP.Chemscore.Internal.Correction>  (191) 
0.4063

>  <Gold.PLP.Constraint>  (191) 
-0.0000

>  <Gold.Protein.RotatedTorsions>  (191) 
[  681  677  676  673 ] final   59.66 input -179.99 | X-H torsion
[  702  698  697  694 ] final -168.21 input  179.99 | X-H torsion
[ 2577 2569 2568 2566 ] final -176.66 input   -0.13 | X-H torsion
[ 2891 2887 2886 2883 ] final  154.49 input  179.98 | X-H torsion
[ 3175 3171 3170 3167 ] final  113.89 input -179.99 | X-H torsion
[ 5278 5270 5269 5267 ] final   90.79 input    0.55 | X-H torsion
[  641  637  636  633 ] final  145.05 input  179.99 | X-H torsion
[ 1886 1878 1877 1875 ] final -137.75 input    1.60 | X-H torsion
[  965  957  956  954 ] final  -65.52 input    0.45 | X-H torsion

>  <Gold.Protein.ActiveResidues>  (191) 
 LYS47   THR48   LEU49   GLY50   THR51   GLY52   SER53   PHE54   GLY55   ARG56  
 VAL57   MET58   LEU59   TYR69   ALA70   MET71   LYS72   ILE73   LEU74   GLU91  
 LEU95   VAL104  LYS105  MET118  VAL119  MET120  GLU121  TYR122  VAL123  PRO124 
 GLY125  GLY126  GLU127  MET128  PHE129  TYR164  ASP166  LEU167  LYS168  PRO169 
 GLU170  ASN171  LEU172  LEU173  ILE174  GLN181  VAL182  THR183  ASP184  PHE185 
 GLY186  PHE187  GLY200  THR201  ASN326  PHE327  TYR330  ARG18   ARG19   ASN20  
 ALA21   ILE22   HIS23  

>  <Gold.Protein.RotatedAtoms>  (191) 
   11.1085   19.6039    8.6377 H   0  0  0  0  0  0  0  0  0  0  0  0  # atno 641  bound_to 637 
   16.6632   12.7349    6.0606 H   0  0  0  0  0  0  0  0  0  0  0  0  # atno 681  bound_to 677 
   21.0536   11.5650   -1.4669 H   0  0  0  0  0  0  0  0  0  0  0  0  # atno 702  bound_to 698 
   -6.4411   16.1168   -1.5969 H   0  0  0  0  0  0  0  0  0  0  0  0  # atno 965  bound_to 957 
    0.7289   10.9198   10.9114 H   0  0  0  0  0  0  0  0  0  0  0  0  # atno 1886 bound_to 1878
   10.6410    2.0220   -2.4396 H   0  0  0  0  0  0  0  0  0  0  0  0  # atno 2577 bound_to 2569
    7.6571    6.9012    1.2034 H   0  0  0  0  0  0  0  0  0  0  0  0  # atno 2891 bound_to 2887
   17.9599    1.9483   -0.7347 H   0  0  0  0  0  0  0  0  0  0  0  0  # atno 3175 bound_to 3171
   13.3125   10.2316    8.7697 H   0  0  0  0  0  0  0  0  0  0  0  0  # atno 5278 bound_to 5270
   15.6007   13.1615    7.1674 LP  0  0  0  0  0  0  0  0  0  0  0  0  # atno 5914 bound_to 677 
   17.0350   13.9321    7.0428 LP  0  0  0  0  0  0  0  0  0  0  0  0  # atno 5915 bound_to 677 
   19.5029   11.8279   -1.7191 LP  0  0  0  0  0  0  0  0  0  0  0  0  # atno 5920 bound_to 698 
   20.0933   11.6940   -0.2025 LP  0  0  0  0  0  0  0  0  0  0  0  0  # atno 5921 bound_to 698 
    9.2361    2.5963   -2.9210 LP  0  0  0  0  0  0  0  0  0  0  0  0  # atno 5950 bound_to 2569
   10.6304    3.3390   -3.3345 LP  0  0  0  0  0  0  0  0  0  0  0  0  # atno 5951 bound_to 2569
    8.3438    5.8828    0.1895 LP  0  0  0  0  0  0  0  0  0  0  0  0  # atno 5982 bound_to 2887
    7.2724    5.3590    1.3050 LP  0  0  0  0  0  0  0  0  0  0  0  0  # atno 5983 bound_to 2887
   19.2039    2.8319   -1.1900 LP  0  0  0  0  0  0  0  0  0  0  0  0  # atno 6000 bound_to 3171
   18.7832    2.7264    0.3843 LP  0  0  0  0  0  0  0  0  0  0  0  0  # atno 6001 bound_to 3171
   12.8529    9.8457   10.2451 LP  0  0  0  0  0  0  0  0  0  0  0  0  # atno 6004 bound_to 5270
   14.4369    9.9563    9.8637 LP  0  0  0  0  0  0  0  0  0  0  0  0  # atno 6005 bound_to 5270
    9.5629   19.5185    8.2650 LP  0  0  0  0  0  0  0  0  0  0  0  0  # atno 6055 bound_to 637 
   10.7024   18.9367    7.2503 LP  0  0  0  0  0  0  0  0  0  0  0  0  # atno 6056 bound_to 637 
    1.4222   12.3526   10.8691 LP  0  0  0  0  0  0  0  0  0  0  0  0  # atno 6063 bound_to 1878
    2.1959   11.0308   10.3025 LP  0  0  0  0  0  0  0  0  0  0  0  0  # atno 6064 bound_to 1878
   -6.9484   17.1535   -0.5001 LP  0  0  0  0  0  0  0  0  0  0  0  0  # atno 6067 bound_to 957 
   -7.0759   15.5443   -0.2536 LP  0  0  0  0  0  0  0  0  0  0  0  0  # atno 6068 bound_to 957 

>  <STRIFE_LigEff_Score>  (191) 
2.9816277777777778

$$$$
unknown|pharmsElabsTestPreDocking|sdf|192|dock5
     RDKit          3D

 18 19  0  0  0  0  0  0  0  0999 V2000
   13.9626    9.1748    1.7410 C   0  0  0  0  0  0  0  0  0  0  0  0
   13.0944    7.9634    2.0768 C   0  0  0  0  0  0  0  0  0  0  0  0
   12.9527    7.0524    0.9390 N   0  0  0  0  0  0  0  0  0  0  0  0
   11.7551    8.1984    2.8190 C   0  0  0  0  0  0  0  0  0  0  0  0
   10.7053    7.1077    2.5595 C   0  0  0  0  0  0  0  0  0  0  0  0
    9.2596    7.4726    2.8599 C   0  0  0  0  0  0  0  0  0  0  0  0
    8.9095    8.8754    2.4294 C   0  0  0  0  0  0  0  0  0  0  0  0
    7.4338    9.1641    2.4099 C   0  0  0  0  0  0  0  0  0  0  0  0
    7.0270    9.7128    1.3587 O   0  0  0  0  0  0  0  0  0  0  0  0
    6.4971    8.9001    3.4753 N   0  0  0  0  0  0  0  0  0  0  0  0
    5.0696    9.0740    3.2945 C   0  0  0  0  0  0  0  0  0  0  0  0
    4.4504    8.9476    2.1019 N   0  0  0  0  0  0  0  0  0  0  0  0
    3.1626    9.2283    2.4122 C   0  0  0  0  0  0  0  0  0  0  0  0
    2.9991    9.5281    3.7155 N   0  0  0  0  0  0  0  0  0  0  0  0
    4.1979    9.4366    4.2624 N   0  0  0  0  0  0  0  0  0  0  0  0
    4.4679    9.8045    5.6483 C   0  0  0  0  0  0  0  0  0  0  0  0
    9.8190    9.9709    2.9113 C   0  0  0  0  0  0  0  0  0  0  0  0
   11.2899    9.6670    2.6348 C   0  0  0  0  0  0  0  0  0  0  0  0
  1  2  1  0
  2  3  1  0
  2  4  1  0
  4  5  1  0
  5  6  1  0
  6  7  1  0
  7  8  1  0
  8  9  2  0
  8 10  1  0
 10 11  1  0
 11 12  2  0
 12 13  1  0
 13 14  2  0
 14 15  1  0
 15 16  1  0
  7 17  1  0
 17 18  1  0
 18  4  1  0
 15 11  1  0
M  CHG  1   3   1
M  END
>  <EmbedRMS>  (192) 
0.293000697254303

>  <Gold.Version>  (192) 
2020.3.0

>  <Gold.Id.Protein>  (192) 
unknown|1q8t_protein|pdb

>  <Gold.PLP.Fitness>  (192) 
50.0874

>  <Gold.PLP.PLP>  (192) 
-39.8768

>  <Gold.PLP.part.hbond>  (192) 
-2.3770

>  <Gold.PLP.part.metal>  (192) 
0.0000

>  <Gold.PLP.part.buried>  (192) 
-2.4719

>  <Gold.PLP.part.nonpolar>  (192) 
-35.7300

>  <Gold.PLP.part.repulsive>  (192) 
0.2262

>  <Gold.PLP.ligand.clash>  (192) 
0.0000

>  <Gold.PLP.ligand.torsion>  (192) 
1.7255

>  <Gold.PLP.Chemscore.Hbond>  (192) 
3.3524

>  <Gold.PLP.Chemscore.CHOScore>  (192) 
1.0000

>  <Gold.PLP.Chemscore.Metal>  (192) 
0.0000

>  <Gold.Chemscore.Hbonds>  (192) 
donor molecule, donor type, donor heavy atom, donor atom, acceptor molecule, acceptor atom, score
      L1  H     3    23       P1  2902  1.98
      L1  H     3    24       P1  2691  0.45
      P1  H  1888  1903       L1    14  0.92
      L1  C    13    33       P1  1855  1.00

>  <Gold.PLP.Chemscore.Internal.Correction>  (192) 
0.6045

>  <Gold.PLP.Constraint>  (192) 
-0.0000

>  <Gold.Protein.RotatedTorsions>  (192) 
[  681  677  676  673 ] final  139.34 input -179.99 | X-H torsion
[  702  698  697  694 ] final   74.26 input  179.99 | X-H torsion
[ 2577 2569 2568 2566 ] final  -88.67 input   -0.13 | X-H torsion
[ 2891 2887 2886 2883 ] final  123.49 input  179.98 | X-H torsion
[ 3175 3171 3170 3167 ] final  134.56 input -179.99 | X-H torsion
[ 5278 5270 5269 5267 ] final  129.37 input    0.55 | X-H torsion
[  641  637  636  633 ] final  -47.88 input  179.99 | X-H torsion
[ 1886 1878 1877 1875 ] final  -37.80 input    1.60 | X-H torsion
[  965  957  956  954 ] final    2.20 input    0.45 | X-H torsion

>  <Gold.Protein.ActiveResidues>  (192) 
 LYS47   THR48   LEU49   GLY50   THR51   GLY52   SER53   PHE54   GLY55   ARG56  
 VAL57   MET58   LEU59   TYR69   ALA70   MET71   LYS72   ILE73   LEU74   GLU91  
 LEU95   VAL104  LYS105  MET118  VAL119  MET120  GLU121  TYR122  VAL123  PRO124 
 GLY125  GLY126  GLU127  MET128  PHE129  TYR164  ASP166  LEU167  LYS168  PRO169 
 GLU170  ASN171  LEU172  LEU173  ILE174  GLN181  VAL182  THR183  ASP184  PHE185 
 GLY186  PHE187  GLY200  THR201  ASN326  PHE327  TYR330  ARG18   ARG19   ASN20  
 ALA21   ILE22   HIS23  

>  <Gold.Protein.RotatedAtoms>  (192) 
    9.9849   19.0268    7.3846 H   0  0  0  0  0  0  0  0  0  0  0  0  # atno 641  bound_to 637 
   17.2479   13.5932    6.5492 H   0  0  0  0  0  0  0  0  0  0  0  0  # atno 681  bound_to 677 
   19.5659   11.8336   -1.7198 H   0  0  0  0  0  0  0  0  0  0  0  0  # atno 702  bound_to 698 
   -6.7320   15.3947   -0.9729 H   0  0  0  0  0  0  0  0  0  0  0  0  # atno 965  bound_to 957 
    1.9715   10.8010   10.3433 H   0  0  0  0  0  0  0  0  0  0  0  0  # atno 1886 bound_to 1878
   10.9583    3.0208   -3.1099 H   0  0  0  0  0  0  0  0  0  0  0  0  # atno 2577 bound_to 2569
    7.9728    6.9296    0.8445 H   0  0  0  0  0  0  0  0  0  0  0  0  # atno 2891 bound_to 2887
   17.9225    1.9623   -0.4158 H   0  0  0  0  0  0  0  0  0  0  0  0  # atno 3175 bound_to 3171
   13.9021   10.2244    8.8236 H   0  0  0  0  0  0  0  0  0  0  0  0  # atno 5278 bound_to 5270
   16.0885   12.5428    6.2518 LP  0  0  0  0  0  0  0  0  0  0  0  0  # atno 5914 bound_to 677 
   15.9318   13.6475    7.4441 LP  0  0  0  0  0  0  0  0  0  0  0  0  # atno 5915 bound_to 677 
   20.0539   11.7011   -0.2092 LP  0  0  0  0  0  0  0  0  0  0  0  0  # atno 5920 bound_to 698 
   21.1072   11.5383   -1.4464 LP  0  0  0  0  0  0  0  0  0  0  0  0  # atno 5921 bound_to 698 
   10.1637    1.8700   -2.3487 LP  0  0  0  0  0  0  0  0  0  0  0  0  # atno 5950 bound_to 2569
    9.3686    3.0136   -3.2010 LP  0  0  0  0  0  0  0  0  0  0  0  0  # atno 5951 bound_to 2569
    8.1438    5.4375    0.3145 LP  0  0  0  0  0  0  0  0  0  0  0  0  # atno 5982 bound_to 2887
    7.1401    5.7744    1.5578 LP  0  0  0  0  0  0  0  0  0  0  0  0  # atno 5983 bound_to 2887
   18.9899    2.6488   -1.3775 LP  0  0  0  0  0  0  0  0  0  0  0  0  # atno 6000 bound_to 3171
   19.0366    2.8947    0.2362 LP  0  0  0  0  0  0  0  0  0  0  0  0  # atno 6001 bound_to 3171
   12.5919    9.9786    9.6953 LP  0  0  0  0  0  0  0  0  0  0  0  0  # atno 6004 bound_to 5270
   14.0776    9.8309   10.3569 LP  0  0  0  0  0  0  0  0  0  0  0  0  # atno 6005 bound_to 5270
   11.4101   19.3002    8.0395 LP  0  0  0  0  0  0  0  0  0  0  0  0  # atno 6055 bound_to 637 
   10.0386   19.7628    8.7955 LP  0  0  0  0  0  0  0  0  0  0  0  0  # atno 6056 bound_to 637 
    0.5903   11.1843   11.0366 LP  0  0  0  0  0  0  0  0  0  0  0  0  # atno 6063 bound_to 1878
    1.7196   12.3241   10.7331 LP  0  0  0  0  0  0  0  0  0  0  0  0  # atno 6064 bound_to 1878
   -6.5274   16.9059   -1.4304 LP  0  0  0  0  0  0  0  0  0  0  0  0  # atno 6067 bound_to 957 
   -7.1905   16.5524    0.0194 LP  0  0  0  0  0  0  0  0  0  0  0  0  # atno 6068 bound_to 957 

>  <STRIFE_LigEff_Score>  (192) 
2.7826333333333335

$$$$
unknown|pharmsElabsTestPreDocking|sdf|193|dock6
     RDKit          3D

 19 20  0  0  0  0  0  0  0  0999 V2000
   13.7985    6.8359    3.5533 C   0  0  0  0  0  0  0  0  0  0  0  0
   13.6250    7.7007    2.2890 C   0  0  0  0  0  0  0  0  0  0  0  0
   13.8521    6.8673    1.1011 N   0  0  0  0  0  0  0  0  0  0  0  0
   12.2151    8.3624    2.2822 C   0  0  0  0  0  0  0  0  0  0  0  0
   11.1233    7.2763    2.3738 C   0  0  0  0  0  0  0  0  0  0  0  0
    9.7451    7.9010    2.2061 C   0  0  0  0  0  0  0  0  0  0  0  0
    9.4988    8.9406    3.3037 C   0  0  0  0  0  0  0  0  0  0  0  0
    8.1325    9.5438    3.1519 C   0  0  0  0  0  0  0  0  0  0  0  0
    7.8341   10.6191    3.7439 O   0  0  0  0  0  0  0  0  0  0  0  0
    7.1704    8.8814    2.3309 N   0  0  0  0  0  0  0  0  0  0  0  0
    5.8454    9.4398    2.1009 C   0  0  0  0  0  0  0  0  0  0  0  0
    5.0190    9.3014    3.3400 C   0  0  0  0  0  0  0  0  0  0  0  0
    5.3534    9.7863    4.5862 C   0  0  0  0  0  0  0  0  0  0  0  0
    4.2504    9.5036    5.3695 C   0  0  0  0  0  0  0  0  0  0  0  0
    3.3019    8.9027    4.6224 N   0  0  0  0  0  0  0  0  0  0  0  0
    3.7717    8.7950    3.3906 N   0  0  0  0  0  0  0  0  0  0  0  0
    3.0205    8.2123    2.2846 C   0  0  0  0  0  0  0  0  0  0  0  0
   10.5892   10.0253    3.3083 C   0  0  0  0  0  0  0  0  0  0  0  0
   11.9910    9.4002    3.4101 C   0  0  0  0  0  0  0  0  0  0  0  0
  1  2  1  0
  2  3  1  0
  2  4  1  0
  4  5  1  0
  5  6  1  0
  6  7  1  0
  7  8  1  0
  8  9  2  0
  8 10  1  0
 10 11  1  0
 11 12  1  0
 12 13  2  0
 13 14  1  0
 14 15  2  0
 15 16  1  0
 16 17  1  0
  7 18  1  0
 18 19  1  0
 19  4  1  0
 16 12  1  0
M  CHG  1   3   1
M  END
>  <EmbedRMS>  (193) 
0.027804703519808214

>  <Gold.Version>  (193) 
2020.3.0

>  <Gold.Id.Protein>  (193) 
unknown|1q8t_protein|pdb

>  <Gold.PLP.Fitness>  (193) 
57.1831

>  <Gold.PLP.PLP>  (193) 
-44.8758

>  <Gold.PLP.part.hbond>  (193) 
-3.4545

>  <Gold.PLP.part.metal>  (193) 
0.0000

>  <Gold.PLP.part.buried>  (193) 
-2.9723

>  <Gold.PLP.part.nonpolar>  (193) 
-39.8840

>  <Gold.PLP.part.repulsive>  (193) 
0.2094

>  <Gold.PLP.ligand.clash>  (193) 
0.0363

>  <Gold.PLP.ligand.torsion>  (193) 
0.6667

>  <Gold.PLP.Chemscore.Hbond>  (193) 
4.5357

>  <Gold.PLP.Chemscore.CHOScore>  (193) 
0.0000

>  <Gold.PLP.Chemscore.Metal>  (193) 
0.0000

>  <Gold.Chemscore.Hbonds>  (193) 
donor molecule, donor type, donor heavy atom, donor atom, acceptor molecule, acceptor atom, score
      L1  H     3    25       P1  2902  2.00
      L1  H     3    26       P1  2691  0.98
      L1  H    10    33       P1  2887  0.73
      P1  H  1888  1903       L1    15  0.83

>  <Gold.PLP.Chemscore.Internal.Correction>  (193) 
0.0699

>  <Gold.PLP.Constraint>  (193) 
-0.0000

>  <Gold.Protein.RotatedTorsions>  (193) 
[  681  677  676  673 ] final  -13.11 input -179.99 | X-H torsion
[  702  698  697  694 ] final    5.78 input  179.99 | X-H torsion
[ 2577 2569 2568 2566 ] final  167.89 input   -0.13 | X-H torsion
[ 2891 2887 2886 2883 ] final  -59.02 input  179.98 | X-H torsion
[ 3175 3171 3170 3167 ] final -123.69 input -179.99 | X-H torsion
[ 5278 5270 5269 5267 ] final  177.76 input    0.55 | X-H torsion
[  641  637  636  633 ] final  164.86 input  179.99 | X-H torsion
[ 1886 1878 1877 1875 ] final  134.29 input    1.60 | X-H torsion
[  965  957  956  954 ] final  -29.29 input    0.45 | X-H torsion

>  <Gold.Protein.ActiveResidues>  (193) 
 LYS47   THR48   LEU49   GLY50   THR51   GLY52   SER53   PHE54   GLY55   ARG56  
 VAL57   MET58   LEU59   TYR69   ALA70   MET71   LYS72   ILE73   LEU74   GLU91  
 LEU95   VAL104  LYS105  MET118  VAL119  MET120  GLU121  TYR122  VAL123  PRO124 
 GLY125  GLY126  GLU127  MET128  PHE129  TYR164  ASP166  LEU167  LYS168  PRO169 
 GLU170  ASN171  LEU172  LEU173  ILE174  GLN181  VAL182  THR183  ASP184  PHE185 
 GLY186  PHE187  GLY200  THR201  ASN326  PHE327  TYR330  ARG18   ARG19   ASN20  
 ALA21   ILE22   HIS23  

>  <Gold.Protein.RotatedAtoms>  (193) 
   11.2824   19.4806    8.4152 H   0  0  0  0  0  0  0  0  0  0  0  0  # atno 641  bound_to 637 
   15.7494   12.7105    6.6025 H   0  0  0  0  0  0  0  0  0  0  0  0  # atno 681  bound_to 677 
   19.4503   11.8348   -0.7179 H   0  0  0  0  0  0  0  0  0  0  0  0  # atno 702  bound_to 698 
   -6.5529   15.6247   -1.3616 H   0  0  0  0  0  0  0  0  0  0  0  0  # atno 965  bound_to 957 
    0.9829   12.1335   11.0064 H   0  0  0  0  0  0  0  0  0  0  0  0  # atno 1886 bound_to 1878
   10.4206    1.9357   -2.3958 H   0  0  0  0  0  0  0  0  0  0  0  0  # atno 2577 bound_to 2569
    7.4992    5.2073    0.9805 H   0  0  0  0  0  0  0  0  0  0  0  0  # atno 2891 bound_to 2887
   18.8158    2.7217    0.3301 H   0  0  0  0  0  0  0  0  0  0  0  0  # atno 3175 bound_to 3171
   14.3866   10.0970    9.3605 H   0  0  0  0  0  0  0  0  0  0  0  0  # atno 5278 bound_to 5270
   16.3855   13.9147    7.4280 LP  0  0  0  0  0  0  0  0  0  0  0  0  # atno 5914 bound_to 677 
   17.2120   13.2046    6.2118 LP  0  0  0  0  0  0  0  0  0  0  0  0  # atno 5915 bound_to 677 
   21.0132   11.5392   -0.6322 LP  0  0  0  0  0  0  0  0  0  0  0  0  # atno 5920 bound_to 698 
   20.2695   11.6990   -2.0772 LP  0  0  0  0  0  0  0  0  0  0  0  0  # atno 5921 bound_to 698 
    9.2648    2.8041   -3.0632 LP  0  0  0  0  0  0  0  0  0  0  0  0  # atno 5950 bound_to 2569
   10.8336    3.2221   -3.2384 LP  0  0  0  0  0  0  0  0  0  0  0  0  # atno 5951 bound_to 2569
    7.3988    6.7151    1.4835 LP  0  0  0  0  0  0  0  0  0  0  0  0  # atno 5982 bound_to 2887
    8.3835    6.3094    0.2456 LP  0  0  0  0  0  0  0  0  0  0  0  0  # atno 5983 bound_to 2887
   17.9040    1.9320   -0.7094 LP  0  0  0  0  0  0  0  0  0  0  0  0  # atno 6000 bound_to 3171
   19.1823    2.8124   -1.2169 LP  0  0  0  0  0  0  0  0  0  0  0  0  # atno 6001 bound_to 3171
   12.8398   10.1563    8.9853 LP  0  0  0  0  0  0  0  0  0  0  0  0  # atno 6004 bound_to 5270
   13.3198    9.7872   10.5019 LP  0  0  0  0  0  0  0  0  0  0  0  0  # atno 6005 bound_to 5270
    9.7029   19.6454    8.5288 LP  0  0  0  0  0  0  0  0  0  0  0  0  # atno 6055 bound_to 637 
   10.3793   18.9397    7.2208 LP  0  0  0  0  0  0  0  0  0  0  0  0  # atno 6056 bound_to 637 
    2.3022   11.5388   10.3423 LP  0  0  0  0  0  0  0  0  0  0  0  0  # atno 6063 bound_to 1878
    1.0483   10.5669   10.7293 LP  0  0  0  0  0  0  0  0  0  0  0  0  # atno 6064 bound_to 1878
   -6.7055   17.1752   -1.0333 LP  0  0  0  0  0  0  0  0  0  0  0  0  # atno 6067 bound_to 957 
   -7.2011   16.0409    0.0318 LP  0  0  0  0  0  0  0  0  0  0  0  0  # atno 6068 bound_to 957 

>  <STRIFE_LigEff_Score>  (193) 
3.0096368421052633

$$$$
unknown|pharmsElabsTestPreDocking|sdf|194|dock7
     RDKit          3D

 18 18  0  0  0  0  0  0  0  0999 V2000
    3.9621   10.0715    5.1274 C   0  0  0  0  0  0  0  0  0  0  0  0
    5.3245    9.5965    4.9148 N   0  0  0  0  0  0  0  0  0  0  0  0
    5.8031    9.0887    3.8138 C   0  0  0  0  0  0  0  0  0  0  0  0
    7.2015    8.7675    3.7862 N   0  0  0  0  0  0  0  0  0  0  0  0
    8.1661    9.3628    2.9068 C   0  0  0  0  0  0  0  0  0  0  0  0
    7.7973   10.0988    1.9493 O   0  0  0  0  0  0  0  0  0  0  0  0
    9.6307    9.0942    3.1326 C   0  0  0  0  0  0  0  0  0  0  0  0
    9.9971    7.6871    2.6657 C   0  0  0  0  0  0  0  0  0  0  0  0
   11.4360    7.3381    3.0200 C   0  0  0  0  0  0  0  0  0  0  0  0
   12.4859    8.4438    2.7284 C   0  0  0  0  0  0  0  0  0  0  0  0
   13.6800    8.1371    1.8029 C   0  0  0  0  0  0  0  0  0  0  0  0
   14.3973    9.3120    1.1382 C   0  0  0  0  0  0  0  0  0  0  0  0
   13.3690    7.0881    0.8224 N   0  0  0  0  0  0  0  0  0  0  0  0
   11.9718    9.9123    2.6206 C   0  0  0  0  0  0  0  0  0  0  0  0
   10.4773   10.1082    2.3713 C   0  0  0  0  0  0  0  0  0  0  0  0
    4.9716    8.9612    2.5862 C   0  0  0  0  0  0  0  0  0  0  0  0
    3.5830    8.3969    2.6599 C   0  0  0  0  0  0  0  0  0  0  0  0
    5.4420    9.3445    1.4413 N   0  0  0  0  0  0  0  0  0  0  0  0
  1  2  1  0
  2  3  2  0
  3  4  1  0
  4  5  1  0
  5  6  2  0
  5  7  1  0
  7  8  1  0
  8  9  1  0
  9 10  1  0
 10 11  1  0
 11 12  1  0
 11 13  1  0
 10 14  1  0
 14 15  1  0
  3 16  1  0
 16 17  1  0
 16 18  2  0
 15  7  1  0
M  CHG  1  13   1
M  END
>  <EmbedRMS>  (194) 
0.20210563071247709

>  <Gold.Version>  (194) 
2020.3.0

>  <Gold.Id.Protein>  (194) 
unknown|1q8t_protein|pdb

>  <Gold.PLP.Fitness>  (194) 
43.4635

>  <Gold.PLP.PLP>  (194) 
-38.6661

>  <Gold.PLP.part.hbond>  (194) 
-1.7212

>  <Gold.PLP.part.metal>  (194) 
0.0000

>  <Gold.PLP.part.buried>  (194) 
-5.9689

>  <Gold.PLP.part.nonpolar>  (194) 
-31.4936

>  <Gold.PLP.part.repulsive>  (194) 
0.0722

>  <Gold.PLP.ligand.clash>  (194) 
0.0000

>  <Gold.PLP.ligand.torsion>  (194) 
2.7271

>  <Gold.PLP.Chemscore.Hbond>  (194) 
2.7040

>  <Gold.PLP.Chemscore.CHOScore>  (194) 
0.0000

>  <Gold.PLP.Chemscore.Metal>  (194) 
0.0000

>  <Gold.Chemscore.Hbonds>  (194) 
donor molecule, donor type, donor heavy atom, donor atom, acceptor molecule, acceptor atom, score
      L1  H    13    33       P1  2902  2.00
      L1  H    13    35       P1  2691  0.70

>  <Gold.PLP.Chemscore.Internal.Correction>  (194) 
2.1396

>  <Gold.PLP.Constraint>  (194) 
-0.0000

>  <Gold.Protein.RotatedTorsions>  (194) 
[  681  677  676  673 ] final  122.53 input -179.99 | X-H torsion
[  702  698  697  694 ] final -162.10 input  179.99 | X-H torsion
[ 2577 2569 2568 2566 ] final    6.63 input   -0.13 | X-H torsion
[ 2891 2887 2886 2883 ] final -174.71 input  179.98 | X-H torsion
[ 3175 3171 3170 3167 ] final  -77.44 input -179.99 | X-H torsion
[ 5278 5270 5269 5267 ] final  178.54 input    0.55 | X-H torsion
[  641  637  636  633 ] final -170.97 input  179.99 | X-H torsion
[ 1886 1878 1877 1875 ] final   93.53 input    1.60 | X-H torsion
[  965  957  956  954 ] final   53.78 input    0.45 | X-H torsion

>  <Gold.Protein.ActiveResidues>  (194) 
 LYS47   THR48   LEU49   GLY50   THR51   GLY52   SER53   PHE54   GLY55   ARG56  
 VAL57   MET58   LEU59   TYR69   ALA70   MET71   LYS72   ILE73   LEU74   GLU91  
 LEU95   VAL104  LYS105  MET118  VAL119  MET120  GLU121  TYR122  VAL123  PRO124 
 GLY125  GLY126  GLU127  MET128  PHE129  TYR164  ASP166  LEU167  LYS168  PRO169 
 GLU170  ASN171  LEU172  LEU173  ILE174  GLN181  VAL182  THR183  ASP184  PHE185 
 GLY186  PHE187  GLY200  THR201  ASN326  PHE327  TYR330  ARG18   ARG19   ASN20  
 ALA21   ILE22   HIS23  

>  <Gold.Protein.RotatedAtoms>  (194) 
   11.3629   19.3105    8.0910 H   0  0  0  0  0  0  0  0  0  0  0  0  # atno 641  bound_to 637 
   17.2380   13.4043    6.3681 H   0  0  0  0  0  0  0  0  0  0  0  0  # atno 681  bound_to 677 
   21.0834   11.5580   -1.3764 H   0  0  0  0  0  0  0  0  0  0  0  0  # atno 702  bound_to 698 
   -7.0447   15.5737   -0.2821 H   0  0  0  0  0  0  0  0  0  0  0  0  # atno 965  bound_to 957 
    1.5409   12.3102   10.7906 H   0  0  0  0  0  0  0  0  0  0  0  0  # atno 1886 bound_to 1878
    9.6719    3.2242   -3.3454 H   0  0  0  0  0  0  0  0  0  0  0  0  # atno 2577 bound_to 2569
    7.3689    6.6359    1.4736 H   0  0  0  0  0  0  0  0  0  0  0  0  # atno 2891 bound_to 2887
   19.2693    2.9971   -0.1320 H   0  0  0  0  0  0  0  0  0  0  0  0  # atno 3175 bound_to 3171
   14.3901   10.0943    9.3719 H   0  0  0  0  0  0  0  0  0  0  0  0  # atno 5278 bound_to 5270
   15.8755   12.5816    6.4222 LP  0  0  0  0  0  0  0  0  0  0  0  0  # atno 5914 bound_to 677 
   16.1553   13.8075    7.4642 LP  0  0  0  0  0  0  0  0  0  0  0  0  # atno 5915 bound_to 677 
   19.5685   11.8178   -1.7946 LP  0  0  0  0  0  0  0  0  0  0  0  0  # atno 5920 bound_to 698 
   19.9963   11.7116   -0.2222 LP  0  0  0  0  0  0  0  0  0  0  0  0  # atno 5921 bound_to 698 
   11.1152    2.7375   -2.8814 LP  0  0  0  0  0  0  0  0  0  0  0  0  # atno 5950 bound_to 2569
    9.7716    1.9319   -2.4204 LP  0  0  0  0  0  0  0  0  0  0  0  0  # atno 5951 bound_to 2569
    8.3774    6.3761    0.2687 LP  0  0  0  0  0  0  0  0  0  0  0  0  # atno 5982 bound_to 2887
    7.5420    5.1448    0.9414 LP  0  0  0  0  0  0  0  0  0  0  0  0  # atno 5983 bound_to 2887
   17.9758    2.0797    0.0127 LP  0  0  0  0  0  0  0  0  0  0  0  0  # atno 6000 bound_to 3171
   18.6333    2.3749   -1.4526 LP  0  0  0  0  0  0  0  0  0  0  0  0  # atno 6001 bound_to 3171
   12.8487   10.1586    8.9762 LP  0  0  0  0  0  0  0  0  0  0  0  0  # atno 6004 bound_to 5270
   13.3073    9.7878   10.4990 LP  0  0  0  0  0  0  0  0  0  0  0  0  # atno 6005 bound_to 5270
    9.9939   19.7536    8.7726 LP  0  0  0  0  0  0  0  0  0  0  0  0  # atno 6055 bound_to 637 
   10.0035   19.0106    7.3185 LP  0  0  0  0  0  0  0  0  0  0  0  0  # atno 6056 bound_to 637 
    2.1239   10.9075   10.3133 LP  0  0  0  0  0  0  0  0  0  0  0  0  # atno 6063 bound_to 1878
    0.6394   11.0122   10.9856 LP  0  0  0  0  0  0  0  0  0  0  0  0  # atno 6064 bound_to 1878
   -6.4358   16.1203   -1.6480 LP  0  0  0  0  0  0  0  0  0  0  0  0  # atno 6067 bound_to 957 
   -6.9528   17.1495   -0.4904 LP  0  0  0  0  0  0  0  0  0  0  0  0  # atno 6068 bound_to 957 

>  <STRIFE_LigEff_Score>  (194) 
2.4146388888888892

$$$$
unknown|pharmsElabsTestPreDocking|sdf|195|dock9
     RDKit          3D

 18 18  0  0  0  0  0  0  0  0999 V2000
    4.5824    9.9118    5.7431 C   0  0  0  0  0  0  0  0  0  0  0  0
    4.0758    9.7797    4.3403 C   0  0  0  0  0  0  0  0  0  0  0  0
    4.8525    9.3901    3.3128 C   0  0  0  0  0  0  0  0  0  0  0  0
    6.2238    9.0220    3.5629 N   0  0  0  0  0  0  0  0  0  0  0  0
    7.3365    9.4610    2.7776 C   0  0  0  0  0  0  0  0  0  0  0  0
    7.2002   10.3944    1.9368 O   0  0  0  0  0  0  0  0  0  0  0  0
    8.6872    8.8226    2.9935 C   0  0  0  0  0  0  0  0  0  0  0  0
    9.2363    8.3335    1.6594 C   0  0  0  0  0  0  0  0  0  0  0  0
   10.5385    7.5684    1.8118 C   0  0  0  0  0  0  0  0  0  0  0  0
   11.5161    8.1474    2.8522 C   0  0  0  0  0  0  0  0  0  0  0  0
   13.0378    7.8607    2.5944 C   0  0  0  0  0  0  0  0  0  0  0  0
   13.8153    7.2236    3.7560 C   0  0  0  0  0  0  0  0  0  0  0  0
   13.2596    7.0976    1.3609 N   0  0  0  0  0  0  0  0  0  0  0  0
   11.1278    9.4086    3.6522 C   0  0  0  0  0  0  0  0  0  0  0  0
    9.6447    9.8280    3.6425 C   0  0  0  0  0  0  0  0  0  0  0  0
    4.2818    9.2529    1.9886 N   0  0  0  0  0  0  0  0  0  0  0  0
    2.8644    9.5331    1.7488 C   0  0  0  0  0  0  0  0  0  0  0  0
    5.1269    8.9579    0.8278 C   0  0  0  0  0  0  0  0  0  0  0  0
  1  2  1  0
  2  3  2  0
  3  4  1  0
  4  5  1  0
  5  6  2  0
  5  7  1  0
  7  8  1  0
  8  9  1  0
  9 10  1  0
 10 11  1  0
 11 12  1  0
 11 13  1  0
 10 14  1  0
 14 15  1  0
  3 16  1  0
 16 17  1  0
 16 18  1  0
 15  7  1  0
M  CHG  1  13   1
M  END
>  <EmbedRMS>  (195) 
0.16484252671190003

>  <Gold.Version>  (195) 
2020.3.0

>  <Gold.Id.Protein>  (195) 
unknown|1q8t_protein|pdb

>  <Gold.PLP.Fitness>  (195) 
46.0284

>  <Gold.PLP.PLP>  (195) 
-39.0073

>  <Gold.PLP.part.hbond>  (195) 
-1.9333

>  <Gold.PLP.part.metal>  (195) 
0.0000

>  <Gold.PLP.part.buried>  (195) 
1.0826

>  <Gold.PLP.part.nonpolar>  (195) 
-38.5968

>  <Gold.PLP.part.repulsive>  (195) 
0.0354

>  <Gold.PLP.ligand.clash>  (195) 
0.3498

>  <Gold.PLP.ligand.torsion>  (195) 
1.5464

>  <Gold.PLP.Chemscore.Hbond>  (195) 
3.0000

>  <Gold.PLP.Chemscore.CHOScore>  (195) 
0.0000

>  <Gold.PLP.Chemscore.Metal>  (195) 
0.0000

>  <Gold.Chemscore.Hbonds>  (195) 
donor molecule, donor type, donor heavy atom, donor atom, acceptor molecule, acceptor atom, score
      L1  H    13    35       P1  2902  2.00
      L1  H    13    36       P1  2691  1.00

>  <Gold.PLP.Chemscore.Internal.Correction>  (195) 
1.4637

>  <Gold.PLP.Constraint>  (195) 
-0.0000

>  <Gold.Protein.RotatedTorsions>  (195) 
[  681  677  676  673 ] final  125.36 input -179.99 | X-H torsion
[  702  698  697  694 ] final  168.55 input  179.99 | X-H torsion
[ 2577 2569 2568 2566 ] final   62.25 input   -0.13 | X-H torsion
[ 2891 2887 2886 2883 ] final  108.53 input  179.98 | X-H torsion
[ 3175 3171 3170 3167 ] final -129.09 input -179.99 | X-H torsion
[ 5278 5270 5269 5267 ] final -167.84 input    0.55 | X-H torsion
[  641  637  636  633 ] final  137.30 input  179.99 | X-H torsion
[ 1886 1878 1877 1875 ] final  -77.18 input    1.60 | X-H torsion
[  965  957  956  954 ] final -173.45 input    0.45 | X-H torsion

>  <Gold.Protein.ActiveResidues>  (195) 
 LYS47   THR48   LEU49   GLY50   THR51   GLY52   SER53   PHE54   GLY55   ARG56  
 VAL57   MET58   LEU59   TYR69   ALA70   MET71   LYS72   ILE73   LEU74   GLU91  
 LEU95   VAL104  LYS105  MET118  VAL119  MET120  GLU121  TYR122  VAL123  PRO124 
 GLY125  GLY126  GLU127  MET128  PHE129  TYR164  ASP166  LEU167  LYS168  PRO169 
 GLU170  ASN171  LEU172  LEU173  ILE174  GLN181  VAL182  THR183  ASP184  PHE185 
 GLY186  PHE187  GLY200  THR201  ASN326  PHE327  TYR330  ARG18   ARG19   ASN20  
 ALA21   ILE22   HIS23  

>  <Gold.Protein.RotatedAtoms>  (195) 
   11.0185   19.6445    8.7075 H   0  0  0  0  0  0  0  0  0  0  0  0  # atno 641  bound_to 637 
   17.2446   13.4373    6.3968 H   0  0  0  0  0  0  0  0  0  0  0  0  # atno 681  bound_to 677 
   20.8592   11.6053   -1.7683 H   0  0  0  0  0  0  0  0  0  0  0  0  # atno 702  bound_to 698 
   -6.8511   17.1550   -0.6745 H   0  0  0  0  0  0  0  0  0  0  0  0  # atno 965  bound_to 957 
    1.4561   10.5466   10.5272 H   0  0  0  0  0  0  0  0  0  0  0  0  # atno 1886 bound_to 1878
    9.2841    2.6031   -2.9426 H   0  0  0  0  0  0  0  0  0  0  0  0  # atno 2577 bound_to 2569
    8.1073    6.8525    0.6702 H   0  0  0  0  0  0  0  0  0  0  0  0  # atno 2891 bound_to 2887
   18.7491    2.6752    0.3525 H   0  0  0  0  0  0  0  0  0  0  0  0  # atno 3175 bound_to 3171
   14.4252   10.0444    9.5754 H   0  0  0  0  0  0  0  0  0  0  0  0  # atno 5278 bound_to 5270
   15.9084   12.5709    6.3912 LP  0  0  0  0  0  0  0  0  0  0  0  0  # atno 5914 bound_to 677 
   16.1154   13.7835    7.4651 LP  0  0  0  0  0  0  0  0  0  0  0  0  # atno 5915 bound_to 677 
   19.3341   11.8513   -1.3798 LP  0  0  0  0  0  0  0  0  0  0  0  0  # atno 5920 bound_to 698 
   20.4666   11.6283   -0.2247 LP  0  0  0  0  0  0  0  0  0  0  0  0  # atno 5921 bound_to 698 
   10.6459    3.3323   -3.3287 LP  0  0  0  0  0  0  0  0  0  0  0  0  # atno 5950 bound_to 2569
   10.6491    1.9911   -2.3972 LP  0  0  0  0  0  0  0  0  0  0  0  0  # atno 5951 bound_to 2569
    8.0031    5.2801    0.4397 LP  0  0  0  0  0  0  0  0  0  0  0  0  # atno 5982 bound_to 2887
    7.1392    6.0129    1.6159 LP  0  0  0  0  0  0  0  0  0  0  0  0  # atno 5983 bound_to 2887
   17.9272    1.9380   -0.7949 LP  0  0  0  0  0  0  0  0  0  0  0  0  # atno 6000 bound_to 3171
   19.2293    2.8553   -1.1550 LP  0  0  0  0  0  0  0  0  0  0  0  0  # atno 6001 bound_to 3171
   13.0211   10.1943    8.8386 LP  0  0  0  0  0  0  0  0  0  0  0  0  # atno 6004 bound_to 5270
   13.0979    9.8045   10.4225 LP  0  0  0  0  0  0  0  0  0  0  0  0  # atno 6005 bound_to 5270
    9.5369   19.4630    8.1534 LP  0  0  0  0  0  0  0  0  0  0  0  0  # atno 6055 bound_to 637 
   10.8233   18.9494    7.2884 LP  0  0  0  0  0  0  0  0  0  0  0  0  # atno 6056 bound_to 637 
    0.6777   11.8099   11.1047 LP  0  0  0  0  0  0  0  0  0  0  0  0  # atno 6063 bound_to 1878
    2.1748   11.9663   10.4714 LP  0  0  0  0  0  0  0  0  0  0  0  0  # atno 6064 bound_to 1878
   -7.1320   15.6864   -0.1274 LP  0  0  0  0  0  0  0  0  0  0  0  0  # atno 6067 bound_to 957 
   -6.4606   15.9180   -1.5978 LP  0  0  0  0  0  0  0  0  0  0  0  0  # atno 6068 bound_to 957 

>  <STRIFE_LigEff_Score>  (195) 
2.5571333333333333

$$$$
unknown|pharmsElabsTestPreDocking|sdf|196|dock6
     RDKit          3D

 17 18  0  0  0  0  0  0  0  0999 V2000
   14.6090    9.4089    1.1028 C   0  0  0  0  0  0  0  0  0  0  0  0
   13.8228    8.2015    1.5850 C   0  0  0  0  0  0  0  0  0  0  0  0
   14.0661    6.9737    0.8357 N   0  0  0  0  0  0  0  0  0  0  0  0
   12.3683    8.4590    2.0862 C   0  0  0  0  0  0  0  0  0  0  0  0
   11.6799    7.3452    2.8909 C   0  0  0  0  0  0  0  0  0  0  0  0
   10.1585    7.5806    2.9780 C   0  0  0  0  0  0  0  0  0  0  0  0
    9.7386    9.0465    2.8420 C   0  0  0  0  0  0  0  0  0  0  0  0
    8.2815    9.3080    3.0809 C   0  0  0  0  0  0  0  0  0  0  0  0
    8.0531   10.1562    3.9743 O   0  0  0  0  0  0  0  0  0  0  0  0
    7.1801    8.6748    2.3968 N   0  0  0  0  0  0  0  0  0  0  0  0
    5.7982    8.8966    2.7767 C   0  0  0  0  0  0  0  0  0  0  0  0
    4.6789    8.8973    1.9495 C   0  0  0  0  0  0  0  0  0  0  0  0
    3.6271    9.1666    2.7953 C   0  0  0  0  0  0  0  0  0  0  0  0
    4.0855    9.3220    4.0520 N   0  0  0  0  0  0  0  0  0  0  0  0
    5.3997    9.1580    4.0344 N   0  0  0  0  0  0  0  0  0  0  0  0
   10.7234   10.1657    3.1313 C   0  0  0  0  0  0  0  0  0  0  0  0
   12.1917    9.8089    2.8131 C   0  0  0  0  0  0  0  0  0  0  0  0
  1  2  1  0
  2  3  1  0
  2  4  1  0
  4  5  1  0
  5  6  1  0
  6  7  1  0
  7  8  1  0
  8  9  2  0
  8 10  1  0
 10 11  1  0
 11 12  2  0
 12 13  1  0
 13 14  2  0
 14 15  1  0
  7 16  1  0
 16 17  1  0
 17  4  1  0
 15 11  1  0
M  CHG  1   3   1
M  END
>  <EmbedRMS>  (196) 
0.2562538106174641

>  <Gold.Version>  (196) 
2020.3.0

>  <Gold.Id.Protein>  (196) 
unknown|1q8t_protein|pdb

>  <Gold.PLP.Fitness>  (196) 
47.7418

>  <Gold.PLP.PLP>  (196) 
-34.1089

>  <Gold.PLP.part.hbond>  (196) 
-3.0000

>  <Gold.PLP.part.metal>  (196) 
0.0000

>  <Gold.PLP.part.buried>  (196) 
-5.9750

>  <Gold.PLP.part.nonpolar>  (196) 
-25.5473

>  <Gold.PLP.part.repulsive>  (196) 
0.1636

>  <Gold.PLP.ligand.clash>  (196) 
0.0000

>  <Gold.PLP.ligand.torsion>  (196) 
0.8043

>  <Gold.PLP.Chemscore.Hbond>  (196) 
3.7590

>  <Gold.PLP.Chemscore.CHOScore>  (196) 
1.0000

>  <Gold.PLP.Chemscore.Metal>  (196) 
0.0000

>  <Gold.Chemscore.Hbonds>  (196) 
donor molecule, donor type, donor heavy atom, donor atom, acceptor molecule, acceptor atom, score
      L1  H     3    22       P1  2691  0.99
      L1  H     3    23       P1  2902  2.00
      L1  H    10    31       P1  2887  0.77
      L1  C    13    33       P1  1855  1.00

>  <Gold.PLP.Chemscore.Internal.Correction>  (196) 
0.9645

>  <Gold.PLP.Constraint>  (196) 
-0.0000

>  <Gold.Protein.RotatedTorsions>  (196) 
[  681  677  676  673 ] final  -49.03 input -179.99 | X-H torsion
[  702  698  697  694 ] final  151.11 input  179.99 | X-H torsion
[ 2577 2569 2568 2566 ] final -125.72 input   -0.13 | X-H torsion
[ 2891 2887 2886 2883 ] final   33.68 input  179.98 | X-H torsion
[ 3175 3171 3170 3167 ] final -156.68 input -179.99 | X-H torsion
[ 5278 5270 5269 5267 ] final  151.05 input    0.55 | X-H torsion
[  641  637  636  633 ] final   -9.05 input  179.99 | X-H torsion
[ 1886 1878 1877 1875 ] final  -86.16 input    1.60 | X-H torsion
[  965  957  956  954 ] final   57.64 input    0.45 | X-H torsion

>  <Gold.Protein.ActiveResidues>  (196) 
 LYS47   THR48   LEU49   GLY50   THR51   GLY52   SER53   PHE54   GLY55   ARG56  
 VAL57   MET58   LEU59   TYR69   ALA70   MET71   LYS72   ILE73   LEU74   GLU91  
 LEU95   VAL104  LYS105  MET118  VAL119  MET120  GLU121  TYR122  VAL123  PRO124 
 GLY125  GLY126  GLU127  MET128  PHE129  TYR164  ASP166  LEU167  LYS168  PRO169 
 GLU170  ASN171  LEU172  LEU173  ILE174  GLN181  VAL182  THR183  ASP184  PHE185 
 GLY186  PHE187  GLY200  THR201  ASN326  PHE327  TYR330  ARG18   ARG19   ASN20  
 ALA21   ILE22   HIS23  

>  <Gold.Protein.RotatedAtoms>  (196) 
    9.6203   19.2567    7.7951 H   0  0  0  0  0  0  0  0  0  0  0  0  # atno 641  bound_to 637 
   15.6133   13.0463    7.0197 H   0  0  0  0  0  0  0  0  0  0  0  0  # atno 681  bound_to 677 
   20.6440   11.6466   -1.9293 H   0  0  0  0  0  0  0  0  0  0  0  0  # atno 702  bound_to 698 
   -7.0632   15.6132   -0.2406 H   0  0  0  0  0  0  0  0  0  0  0  0  # atno 965  bound_to 957 
    1.3276   10.5440   10.5834 H   0  0  0  0  0  0  0  0  0  0  0  0  # atno 1886 bound_to 1878
   11.0634    2.5651   -2.7858 H   0  0  0  0  0  0  0  0  0  0  0  0  # atno 2577 bound_to 2569
    8.2993    5.8819    0.2153 H   0  0  0  0  0  0  0  0  0  0  0  0  # atno 2891 bound_to 2887
   18.4064    2.4204    0.3452 H   0  0  0  0  0  0  0  0  0  0  0  0  # atno 3175 bound_to 3171
   14.1769   10.1804    9.0136 H   0  0  0  0  0  0  0  0  0  0  0  0  # atno 5278 bound_to 5270
   16.9010   13.9718    7.1652 LP  0  0  0  0  0  0  0  0  0  0  0  0  # atno 5914 bound_to 677 
   16.8397   12.7942    6.0356 LP  0  0  0  0  0  0  0  0  0  0  0  0  # atno 5915 bound_to 677 
   19.3022   11.8515   -1.0956 LP  0  0  0  0  0  0  0  0  0  0  0  0  # atno 5920 bound_to 698 
   20.7248   11.5847   -0.3396 LP  0  0  0  0  0  0  0  0  0  0  0  0  # atno 5921 bound_to 698 
    9.5994    2.0135   -2.4897 LP  0  0  0  0  0  0  0  0  0  0  0  0  # atno 5950 bound_to 2569
    9.8222    3.3499   -3.4013 LP  0  0  0  0  0  0  0  0  0  0  0  0  # atno 5951 bound_to 2569
    7.2668    5.3679    1.3136 LP  0  0  0  0  0  0  0  0  0  0  0  0  # atno 5982 bound_to 2887
    7.6734    6.9467    1.2208 LP  0  0  0  0  0  0  0  0  0  0  0  0  # atno 5983 bound_to 2887
   18.1371    2.0433   -1.1782 LP  0  0  0  0  0  0  0  0  0  0  0  0  # atno 6000 bound_to 3171
   19.3800    3.0181   -0.7640 LP  0  0  0  0  0  0  0  0  0  0  0  0  # atno 6001 bound_to 3171
   12.6251   10.0634    9.3526 LP  0  0  0  0  0  0  0  0  0  0  0  0  # atno 6004 bound_to 5270
   13.7553    9.7923   10.4997 LP  0  0  0  0  0  0  0  0  0  0  0  0  # atno 6005 bound_to 5270
   11.1739   19.0467    7.5172 LP  0  0  0  0  0  0  0  0  0  0  0  0  # atno 6055 bound_to 637 
   10.6587   19.7741    8.8855 LP  0  0  0  0  0  0  0  0  0  0  0  0  # atno 6056 bound_to 637 
    0.7511   11.9376   11.0941 LP  0  0  0  0  0  0  0  0  0  0  0  0  # atno 6063 bound_to 1878
    2.2366   11.8414   10.4228 LP  0  0  0  0  0  0  0  0  0  0  0  0  # atno 6064 bound_to 1878
   -6.4413   16.0580   -1.6372 LP  0  0  0  0  0  0  0  0  0  0  0  0  # atno 6067 bound_to 957 
   -6.9278   17.1702   -0.5450 LP  0  0  0  0  0  0  0  0  0  0  0  0  # atno 6068 bound_to 957 

>  <STRIFE_LigEff_Score>  (196) 
2.808341176470588

$$$$
unknown|pharmsElabsTestPreDocking|sdf|197|dock1
     RDKit          3D

 18 19  0  0  0  0  0  0  0  0999 V2000
   14.5520    7.7612    3.0729 C   0  0  0  0  0  0  0  0  0  0  0  0
   13.2519    7.6931    2.2734 C   0  0  0  0  0  0  0  0  0  0  0  0
   13.2511    8.6196    1.1392 N   0  0  0  0  0  0  0  0  0  0  0  0
   11.9094    7.7000    3.0460 C   0  0  0  0  0  0  0  0  0  0  0  0
   10.7398    7.0915    2.2580 C   0  0  0  0  0  0  0  0  0  0  0  0
    9.3410    7.4587    2.7289 C   0  0  0  0  0  0  0  0  0  0  0  0
    9.2195    8.9097    3.1229 C   0  0  0  0  0  0  0  0  0  0  0  0
    7.8036    9.3874    3.2844 C   0  0  0  0  0  0  0  0  0  0  0  0
    7.4219   10.1890    2.3989 O   0  0  0  0  0  0  0  0  0  0  0  0
    6.9003    9.0342    4.3521 N   0  0  0  0  0  0  0  0  0  0  0  0
    5.5065    9.4296    4.3278 C   0  0  0  0  0  0  0  0  0  0  0  0
    4.7834    9.8465    5.4316 C   0  0  0  0  0  0  0  0  0  0  0  0
    3.4957   10.0918    4.9830 C   0  0  0  0  0  0  0  0  0  0  0  0
    3.4804    9.8029    3.6329 C   0  0  0  0  0  0  0  0  0  0  0  0
    4.7001    9.3868    3.2385 N   0  0  0  0  0  0  0  0  0  0  0  0
    5.0054    8.8848    1.9011 C   0  0  0  0  0  0  0  0  0  0  0  0
   10.2351    9.4248    4.1041 C   0  0  0  0  0  0  0  0  0  0  0  0
   11.6656    9.0924    3.6857 C   0  0  0  0  0  0  0  0  0  0  0  0
  1  2  1  0
  2  3  1  0
  2  4  1  0
  4  5  1  0
  5  6  1  0
  6  7  1  0
  7  8  1  0
  8  9  2  0
  8 10  1  0
 10 11  1  0
 11 12  2  0
 12 13  1  0
 13 14  2  0
 14 15  1  0
 15 16  1  0
  7 17  1  0
 17 18  1  0
 18  4  1  0
 15 11  1  0
M  CHG  1   3   1
M  END
>  <EmbedRMS>  (197) 
0.293041831892948

>  <Gold.Version>  (197) 
2020.3.0

>  <Gold.Id.Protein>  (197) 
unknown|1q8t_protein|pdb

>  <Gold.PLP.Fitness>  (197) 
54.8447

>  <Gold.PLP.PLP>  (197) 
-46.3663

>  <Gold.PLP.part.hbond>  (197) 
-1.0000

>  <Gold.PLP.part.metal>  (197) 
0.0000

>  <Gold.PLP.part.buried>  (197) 
-2.7313

>  <Gold.PLP.part.nonpolar>  (197) 
-43.3160

>  <Gold.PLP.part.repulsive>  (197) 
0.0000

>  <Gold.PLP.ligand.clash>  (197) 
0.0000

>  <Gold.PLP.ligand.torsion>  (197) 
0.6930

>  <Gold.PLP.Chemscore.Hbond>  (197) 
2.0000

>  <Gold.PLP.Chemscore.CHOScore>  (197) 
0.9911

>  <Gold.PLP.Chemscore.Metal>  (197) 
0.0000

>  <Gold.Chemscore.Hbonds>  (197) 
donor molecule, donor type, donor heavy atom, donor atom, acceptor molecule, acceptor atom, score
      L1  H     3    25       P1  2902  2.00
      L1  C    14    35       P1  1855  0.99

>  <Gold.PLP.Chemscore.Internal.Correction>  (197) 
0.8912

>  <Gold.PLP.Constraint>  (197) 
-0.0000

>  <Gold.Protein.RotatedTorsions>  (197) 
[  681  677  676  673 ] final  158.66 input -179.99 | X-H torsion
[  702  698  697  694 ] final  -35.13 input  179.99 | X-H torsion
[ 2577 2569 2568 2566 ] final  101.50 input   -0.13 | X-H torsion
[ 2891 2887 2886 2883 ] final -156.64 input  179.98 | X-H torsion
[ 3175 3171 3170 3167 ] final    8.10 input -179.99 | X-H torsion
[ 5278 5270 5269 5267 ] final   72.72 input    0.55 | X-H torsion
[  641  637  636  633 ] final  -98.51 input  179.99 | X-H torsion
[ 1886 1878 1877 1875 ] final   18.45 input    1.60 | X-H torsion
[  965  957  956  954 ] final  -59.08 input    0.45 | X-H torsion

>  <Gold.Protein.ActiveResidues>  (197) 
 LYS47   THR48   LEU49   GLY50   THR51   GLY52   SER53   PHE54   GLY55   ARG56  
 VAL57   MET58   LEU59   TYR69   ALA70   MET71   LYS72   ILE73   LEU74   GLU91  
 LEU95   VAL104  LYS105  MET118  VAL119  MET120  GLU121  TYR122  VAL123  PRO124 
 GLY125  GLY126  GLU127  MET128  PHE129  TYR164  ASP166  LEU167  LYS168  PRO169 
 GLU170  ASN171  LEU172  LEU173  ILE174  GLN181  VAL182  THR183  ASP184  PHE185 
 GLY186  PHE187  GLY200  THR201  ASN326  PHE327  TYR330  ARG18   ARG19   ASN20  
 ALA21   ILE22   HIS23  

>  <Gold.Protein.RotatedAtoms>  (197) 
   10.7433   18.9481    7.3135 H   0  0  0  0  0  0  0  0  0  0  0  0  # atno 641  bound_to 637 
   17.1735   13.7757    6.7763 H   0  0  0  0  0  0  0  0  0  0  0  0  # atno 681  bound_to 677 
   19.9087   11.7455   -0.3004 H   0  0  0  0  0  0  0  0  0  0  0  0  # atno 702  bound_to 698 
   -6.4513   16.0188   -1.5767 H   0  0  0  0  0  0  0  0  0  0  0  0  # atno 965  bound_to 957 
    2.2467   11.5990   10.3581 H   0  0  0  0  0  0  0  0  0  0  0  0  # atno 1886 bound_to 1878
    9.4869    2.1451   -2.6097 H   0  0  0  0  0  0  0  0  0  0  0  0  # atno 2577 bound_to 2569
    7.2455    6.3983    1.5597 H   0  0  0  0  0  0  0  0  0  0  0  0  # atno 2891 bound_to 2887
   19.0522    2.6849   -1.2875 H   0  0  0  0  0  0  0  0  0  0  0  0  # atno 3175 bound_to 3171
   13.0536   10.2026    8.8763 H   0  0  0  0  0  0  0  0  0  0  0  0  # atno 5278 bound_to 5270
   16.3692   12.5742    6.1090 LP  0  0  0  0  0  0  0  0  0  0  0  0  # atno 5914 bound_to 677 
   15.7294   13.4240    7.3479 LP  0  0  0  0  0  0  0  0  0  0  0  0  # atno 5915 bound_to 677 
   21.1481   11.5278   -1.2771 LP  0  0  0  0  0  0  0  0  0  0  0  0  # atno 5920 bound_to 698 
   19.6525   11.8044   -1.8715 LP  0  0  0  0  0  0  0  0  0  0  0  0  # atno 5921 bound_to 698 
   10.0239    3.4036   -3.4238 LP  0  0  0  0  0  0  0  0  0  0  0  0  # atno 5950 bound_to 2569
   11.0577    2.4021   -2.6526 LP  0  0  0  0  0  0  0  0  0  0  0  0  # atno 5951 bound_to 2569
    8.3147    6.6325    0.4028 LP  0  0  0  0  0  0  0  0  0  0  0  0  # atno 5982 bound_to 2887
    7.7347    5.1386    0.7168 LP  0  0  0  0  0  0  0  0  0  0  0  0  # atno 5983 bound_to 2887
   18.9615    2.8467    0.2941 LP  0  0  0  0  0  0  0  0  0  0  0  0  # atno 6000 bound_to 3171
   17.8760    1.9364   -0.5180 LP  0  0  0  0  0  0  0  0  0  0  0  0  # atno 6001 bound_to 3171
   13.0898    9.8054   10.4183 LP  0  0  0  0  0  0  0  0  0  0  0  0  # atno 6004 bound_to 5270
   14.4725   10.0270    9.5783 LP  0  0  0  0  0  0  0  0  0  0  0  0  # atno 6005 bound_to 5270
   11.1011   19.6525    8.6958 LP  0  0  0  0  0  0  0  0  0  0  0  0  # atno 6055 bound_to 637 
    9.5489   19.4933    8.2141 LP  0  0  0  0  0  0  0  0  0  0  0  0  # atno 6056 bound_to 637 
    1.1053   10.5428   10.7001 LP  0  0  0  0  0  0  0  0  0  0  0  0  # atno 6063 bound_to 1878
    0.9149   12.1256   11.0540 LP  0  0  0  0  0  0  0  0  0  0  0  0  # atno 6064 bound_to 1878
   -6.9062   17.1845   -0.5922 LP  0  0  0  0  0  0  0  0  0  0  0  0  # atno 6067 bound_to 957 
   -7.1074   15.6165   -0.1828 LP  0  0  0  0  0  0  0  0  0  0  0  0  # atno 6068 bound_to 957 

>  <STRIFE_LigEff_Score>  (197) 
3.046927777777778

$$$$
unknown|pharmsElabsTestPreDocking|sdf|198|dock7
     RDKit          3D

 19 20  0  0  0  0  0  0  0  0999 V2000
   13.7847    7.4856    2.7799 C   0  0  0  0  0  0  0  0  0  0  0  0
   13.5420    8.8201    2.0516 C   0  0  0  0  0  0  0  0  0  0  0  0
   14.1215    8.7469    0.7034 N   0  0  0  0  0  0  0  0  0  0  0  0
   12.0150    9.1623    2.0298 C   0  0  0  0  0  0  0  0  0  0  0  0
   11.2474    7.9938    1.3848 C   0  0  0  0  0  0  0  0  0  0  0  0
    9.7562    8.2610    1.2136 C   0  0  0  0  0  0  0  0  0  0  0  0
    9.1800    9.2471    2.2182 C   0  0  0  0  0  0  0  0  0  0  0  0
    7.6807    9.3107    2.2072 C   0  0  0  0  0  0  0  0  0  0  0  0
    7.1065    8.3001    2.6820 O   0  0  0  0  0  0  0  0  0  0  0  0
    6.8777   10.3968    1.7114 N   0  0  0  0  0  0  0  0  0  0  0  0
    5.4167   10.2236    1.6828 C   0  0  0  0  0  0  0  0  0  0  0  0
    4.8430   10.0451    3.0553 C   0  0  0  0  0  0  0  0  0  0  0  0
    5.6370   10.2543    4.1905 C   0  0  0  0  0  0  0  0  0  0  0  0
    5.0856   10.0996    5.4626 C   0  0  0  0  0  0  0  0  0  0  0  0
    3.7424    9.7383    5.5861 C   0  0  0  0  0  0  0  0  0  0  0  0
    2.9850    9.5379    4.4748 N   0  0  0  0  0  0  0  0  0  0  0  0
    3.4996    9.6820    3.2248 C   0  0  0  0  0  0  0  0  0  0  0  0
    9.8990    9.5610    3.5162 C   0  0  0  0  0  0  0  0  0  0  0  0
   11.4364    9.4271    3.4433 C   0  0  0  0  0  0  0  0  0  0  0  0
  1  2  1  0
  2  3  1  0
  2  4  1  0
  4  5  1  0
  5  6  1  0
  6  7  1  0
  7  8  1  0
  8  9  2  0
  8 10  1  0
 10 11  1  0
 11 12  1  0
 12 13  2  0
 13 14  1  0
 14 15  2  0
 15 16  1  0
 16 17  2  0
  7 18  1  0
 18 19  1  0
 19  4  1  0
 17 12  1  0
M  CHG  1   3   1
M  END
>  <EmbedRMS>  (198) 
0.17084101544492625

>  <Gold.Version>  (198) 
2020.3.0

>  <Gold.Id.Protein>  (198) 
unknown|1q8t_protein|pdb

>  <Gold.PLP.Fitness>  (198) 
62.4702

>  <Gold.PLP.PLP>  (198) 
-45.7208

>  <Gold.PLP.part.hbond>  (198) 
-3.0000

>  <Gold.PLP.part.metal>  (198) 
0.0000

>  <Gold.PLP.part.buried>  (198) 
-2.1927

>  <Gold.PLP.part.nonpolar>  (198) 
-42.0920

>  <Gold.PLP.part.repulsive>  (198) 
0.1499

>  <Gold.PLP.ligand.clash>  (198) 
0.0000

>  <Gold.PLP.ligand.torsion>  (198) 
0.5203

>  <Gold.PLP.Chemscore.Hbond>  (198) 
4.0000

>  <Gold.PLP.Chemscore.CHOScore>  (198) 
1.6881

>  <Gold.PLP.Chemscore.Metal>  (198) 
0.0000

>  <Gold.Chemscore.Hbonds>  (198) 
donor molecule, donor type, donor heavy atom, donor atom, acceptor molecule, acceptor atom, score
      L1  H     3    24       P1  2902  2.00
      P1  H  2887  2891       L1     9  1.00
      P1  H  1888  1903       L1    16  1.00
      L1  C    15    38       P1  1891  0.88
      L1  C    17    39       P1  1855  0.81

>  <Gold.PLP.Chemscore.Internal.Correction>  (198) 
0.7259

>  <Gold.PLP.Constraint>  (198) 
-0.0000

>  <Gold.Protein.RotatedTorsions>  (198) 
[  681  677  676  673 ] final   98.18 input -179.99 | X-H torsion
[  702  698  697  694 ] final   35.64 input  179.99 | X-H torsion
[ 2577 2569 2568 2566 ] final  -19.27 input   -0.13 | X-H torsion
[ 2891 2887 2886 2883 ] final  175.11 input  179.98 | X-H torsion
[ 3175 3171 3170 3167 ] final  139.08 input -179.99 | X-H torsion
[ 5278 5270 5269 5267 ] final  107.08 input    0.55 | X-H torsion
[  641  637  636  633 ] final   73.92 input  179.99 | X-H torsion
[ 1886 1878 1877 1875 ] final  -74.87 input    1.60 | X-H torsion
[  965  957  956  954 ] final  -60.36 input    0.45 | X-H torsion

>  <Gold.Protein.ActiveResidues>  (198) 
 LYS47   THR48   LEU49   GLY50   THR51   GLY52   SER53   PHE54   GLY55   ARG56  
 VAL57   MET58   LEU59   TYR69   ALA70   MET71   LYS72   ILE73   LEU74   GLU91  
 LEU95   VAL104  LYS105  MET118  VAL119  MET120  GLU121  TYR122  VAL123  PRO124 
 GLY125  GLY126  GLU127  MET128  PHE129  TYR164  ASP166  LEU167  LYS168  PRO169 
 GLU170  ASN171  LEU172  LEU173  ILE174  GLN181  VAL182  THR183  ASP184  PHE185 
 GLY186  PHE187  GLY200  THR201  ASN326  PHE327  TYR330  ARG18   ARG19   ASN20  
 ALA21   ILE22   HIS23  

>  <Gold.Protein.RotatedAtoms>  (198) 
   10.0845   19.7324    8.7775 H   0  0  0  0  0  0  0  0  0  0  0  0  # atno 641  bound_to 637 
   17.1031   13.1155    6.1654 H   0  0  0  0  0  0  0  0  0  0  0  0  # atno 681  bound_to 677 
   19.3509   11.8611   -1.1681 H   0  0  0  0  0  0  0  0  0  0  0  0  # atno 702  bound_to 698 
   -6.4489   16.0380   -1.5815 H   0  0  0  0  0  0  0  0  0  0  0  0  # atno 965  bound_to 957 
    1.4892   10.5508   10.5133 H   0  0  0  0  0  0  0  0  0  0  0  0  # atno 1886 bound_to 1878
   10.0445    3.3579   -3.4110 H   0  0  0  0  0  0  0  0  0  0  0  0  # atno 2577 bound_to 2569
    7.4560    6.7464    1.3993 H   0  0  0  0  0  0  0  0  0  0  0  0  # atno 2891 bound_to 2887
   17.9267    1.9746   -0.3464 H   0  0  0  0  0  0  0  0  0  0  0  0  # atno 3175 bound_to 3171
   13.5651   10.2403    8.7450 H   0  0  0  0  0  0  0  0  0  0  0  0  # atno 5278 bound_to 5270
   15.6562   12.7391    6.7142 LP  0  0  0  0  0  0  0  0  0  0  0  0  # atno 5914 bound_to 677 
   16.5165   13.9539    7.3857 LP  0  0  0  0  0  0  0  0  0  0  0  0  # atno 5915 bound_to 677 
   20.6612   11.5953   -0.3022 LP  0  0  0  0  0  0  0  0  0  0  0  0  # atno 5920 bound_to 698 
   20.7260   11.6153   -1.9337 LP  0  0  0  0  0  0  0  0  0  0  0  0  # atno 5921 bound_to 698 
   11.0531    2.3922   -2.6461 LP  0  0  0  0  0  0  0  0  0  0  0  0  # atno 5950 bound_to 2569
    9.4414    2.1365   -2.5866 LP  0  0  0  0  0  0  0  0  0  0  0  0  # atno 5951 bound_to 2569
    8.3862    6.2161    0.2203 LP  0  0  0  0  0  0  0  0  0  0  0  0  # atno 5982 bound_to 2887
    7.4417    5.1886    1.0681 LP  0  0  0  0  0  0  0  0  0  0  0  0  # atno 5983 bound_to 2887
   18.9359    2.6053   -1.4043 LP  0  0  0  0  0  0  0  0  0  0  0  0  # atno 6000 bound_to 3171
   19.0861    2.9253    0.1899 LP  0  0  0  0  0  0  0  0  0  0  0  0  # atno 6001 bound_to 3171
   12.6962    9.8960   10.0346 LP  0  0  0  0  0  0  0  0  0  0  0  0  # atno 6004 bound_to 5270
   14.3279    9.8968   10.1003 LP  0  0  0  0  0  0  0  0  0  0  0  0  # atno 6005 bound_to 5270
    9.9355   19.0330    7.3549 LP  0  0  0  0  0  0  0  0  0  0  0  0  # atno 6055 bound_to 637 
   11.4082   19.2868    8.0132 LP  0  0  0  0  0  0  0  0  0  0  0  0  # atno 6056 bound_to 637 
    0.6618   11.7753   11.1058 LP  0  0  0  0  0  0  0  0  0  0  0  0  # atno 6063 bound_to 1878
    2.1558   11.9965   10.4849 LP  0  0  0  0  0  0  0  0  0  0  0  0  # atno 6064 bound_to 1878
   -6.9146   17.1793   -0.5737 LP  0  0  0  0  0  0  0  0  0  0  0  0  # atno 6067 bound_to 957 
   -7.1015   15.6016   -0.1963 LP  0  0  0  0  0  0  0  0  0  0  0  0  # atno 6068 bound_to 957 

>  <STRIFE_LigEff_Score>  (198) 
3.2879052631578944

$$$$
unknown|pharmsElabsTestPreDocking|sdf|199|dock1
     RDKit          3D

 18 18  0  0  0  0  0  0  0  0999 V2000
    5.2281    9.1995    1.4009 C   0  0  0  0  0  0  0  0  0  0  0  0
    4.7706    9.0953    2.6515 C   0  0  0  0  0  0  0  0  0  0  0  0
    3.2950    8.8920    2.8861 C   0  0  0  0  0  0  0  0  0  0  0  0
    5.7036    9.3274    3.7935 C   0  0  0  0  0  0  0  0  0  0  0  0
    5.3125   10.0959    4.8276 C   0  0  0  0  0  0  0  0  0  0  0  0
    6.1970   10.4036    5.9959 C   0  0  0  0  0  0  0  0  0  0  0  0
    7.0603    8.8394    3.7521 N   0  0  0  0  0  0  0  0  0  0  0  0
    8.0696    9.3044    2.8479 C   0  0  0  0  0  0  0  0  0  0  0  0
    7.7763   10.1011    1.9116 O   0  0  0  0  0  0  0  0  0  0  0  0
    9.4955    8.8412    3.0334 C   0  0  0  0  0  0  0  0  0  0  0  0
    9.9221    7.9994    1.8370 C   0  0  0  0  0  0  0  0  0  0  0  0
   11.3070    7.4015    2.0093 C   0  0  0  0  0  0  0  0  0  0  0  0
   12.3407    8.3325    2.6709 C   0  0  0  0  0  0  0  0  0  0  0  0
   13.8400    8.0766    2.2821 C   0  0  0  0  0  0  0  0  0  0  0  0
   14.7450    7.5236    3.3934 C   0  0  0  0  0  0  0  0  0  0  0  0
   13.9697    7.2569    1.0720 N   0  0  0  0  0  0  0  0  0  0  0  0
   11.9248    9.7517    3.1115 C   0  0  0  0  0  0  0  0  0  0  0  0
   10.4165   10.0546    3.2015 C   0  0  0  0  0  0  0  0  0  0  0  0
  1  2  2  0
  2  3  1  0
  2  4  1  0
  4  5  2  0
  5  6  1  0
  4  7  1  0
  7  8  1  0
  8  9  2  0
  8 10  1  0
 10 11  1  0
 11 12  1  0
 12 13  1  0
 13 14  1  0
 14 15  1  0
 14 16  1  0
 13 17  1  0
 17 18  1  0
 18 10  1  0
M  CHG  1  16   1
M  END
>  <EmbedRMS>  (199) 
0.16480955270904202

>  <Gold.Version>  (199) 
2020.3.0

>  <Gold.Id.Protein>  (199) 
unknown|1q8t_protein|pdb

>  <Gold.PLP.Fitness>  (199) 
47.6636

>  <Gold.PLP.PLP>  (199) 
-41.7337

>  <Gold.PLP.part.hbond>  (199) 
-2.0000

>  <Gold.PLP.part.metal>  (199) 
0.0000

>  <Gold.PLP.part.buried>  (199) 
-3.5947

>  <Gold.PLP.part.nonpolar>  (199) 
-36.6414

>  <Gold.PLP.part.repulsive>  (199) 
0.0469

>  <Gold.PLP.ligand.clash>  (199) 
0.0000

>  <Gold.PLP.ligand.torsion>  (199) 
2.5013

>  <Gold.PLP.Chemscore.Hbond>  (199) 
3.0000

>  <Gold.PLP.Chemscore.CHOScore>  (199) 
0.0000

>  <Gold.PLP.Chemscore.Metal>  (199) 
0.0000

>  <Gold.Chemscore.Hbonds>  (199) 
donor molecule, donor type, donor heavy atom, donor atom, acceptor molecule, acceptor atom, score
      L1  H    16    39       P1  2902  2.00
      L1  H    16    41       P1  2691  1.00

>  <Gold.PLP.Chemscore.Internal.Correction>  (199) 
1.9325

>  <Gold.PLP.Constraint>  (199) 
-0.0000

>  <Gold.Protein.RotatedTorsions>  (199) 
[  681  677  676  673 ] final -110.32 input -179.99 | X-H torsion
[  702  698  697  694 ] final  -51.34 input  179.99 | X-H torsion
[ 2577 2569 2568 2566 ] final  108.38 input   -0.13 | X-H torsion
[ 2891 2887 2886 2883 ] final  -64.45 input  179.98 | X-H torsion
[ 3175 3171 3170 3167 ] final -111.03 input -179.99 | X-H torsion
[ 5278 5270 5269 5267 ] final   20.45 input    0.55 | X-H torsion
[  641  637  636  633 ] final  -63.98 input  179.99 | X-H torsion
[ 1886 1878 1877 1875 ] final  -51.29 input    1.60 | X-H torsion
[  965  957  956  954 ] final -140.48 input    0.45 | X-H torsion

>  <Gold.Protein.ActiveResidues>  (199) 
 LYS47   THR48   LEU49   GLY50   THR51   GLY52   SER53   PHE54   GLY55   ARG56  
 VAL57   MET58   LEU59   TYR69   ALA70   MET71   LYS72   ILE73   LEU74   GLU91  
 LEU95   VAL104  LYS105  MET118  VAL119  MET120  GLU121  TYR122  VAL123  PRO124 
 GLY125  GLY126  GLU127  MET128  PHE129  TYR164  ASP166  LEU167  LYS168  PRO169 
 GLU170  ASN171  LEU172  LEU173  ILE174  GLN181  VAL182  THR183  ASP184  PHE185 
 GLY186  PHE187  GLY200  THR201  ASN326  PHE327  TYR330  ARG18   ARG19   ASN20  
 ALA21   ILE22   HIS23  

>  <Gold.Protein.RotatedAtoms>  (199) 
   10.2125   18.9690    7.2964 H   0  0  0  0  0  0  0  0  0  0  0  0  # atno 641  bound_to 637 
   16.0685   13.7312    7.4167 H   0  0  0  0  0  0  0  0  0  0  0  0  # atno 681  bound_to 677 
   20.1508   11.7014   -0.2425 H   0  0  0  0  0  0  0  0  0  0  0  0  # atno 702  bound_to 698 
   -6.6433   17.0814   -1.1324 H   0  0  0  0  0  0  0  0  0  0  0  0  # atno 965  bound_to 957 
    1.8122   10.6725   10.3916 H   0  0  0  0  0  0  0  0  0  0  0  0  # atno 1886 bound_to 1878
    9.5598    2.0828   -2.5611 H   0  0  0  0  0  0  0  0  0  0  0  0  # atno 2577 bound_to 2569
    7.4492    5.2323    1.0444 H   0  0  0  0  0  0  0  0  0  0  0  0  # atno 2891 bound_to 2887
   18.9654    2.8218    0.2485 H   0  0  0  0  0  0  0  0  0  0  0  0  # atno 3175 bound_to 3171
   12.6385   10.0377    9.5271 H   0  0  0  0  0  0  0  0  0  0  0  0  # atno 5278 bound_to 5270
   17.3005   13.4874    6.4374 LP  0  0  0  0  0  0  0  0  0  0  0  0  # atno 5914 bound_to 677 
   15.9611   12.5577    6.3454 LP  0  0  0  0  0  0  0  0  0  0  0  0  # atno 5915 bound_to 677 
   21.0734   11.5459   -1.5317 LP  0  0  0  0  0  0  0  0  0  0  0  0  # atno 5920 bound_to 698 
   19.4724   11.8326   -1.6778 LP  0  0  0  0  0  0  0  0  0  0  0  0  # atno 5921 bound_to 698 
    9.9137    3.3792   -3.4150 LP  0  0  0  0  0  0  0  0  0  0  0  0  # atno 5950 bound_to 2569
   11.0911    2.4920   -2.7127 LP  0  0  0  0  0  0  0  0  0  0  0  0  # atno 5951 bound_to 2569
    7.4488    6.7750    1.4399 LP  0  0  0  0  0  0  0  0  0  0  0  0  # atno 5982 bound_to 2887
    8.3862    6.2232    0.2219 LP  0  0  0  0  0  0  0  0  0  0  0  0  # atno 5983 bound_to 2887
   17.8752    1.9377   -0.5035 LP  0  0  0  0  0  0  0  0  0  0  0  0  # atno 6000 bound_to 3171
   19.0537    2.7014   -1.3369 LP  0  0  0  0  0  0  0  0  0  0  0  0  # atno 6001 bound_to 3171
   13.9198    9.8076   10.4447 LP  0  0  0  0  0  0  0  0  0  0  0  0  # atno 6004 bound_to 5270
   14.0791   10.1983    8.8672 LP  0  0  0  0  0  0  0  0  0  0  0  0  # atno 6005 bound_to 5270
   11.3858   19.4209    8.2732 LP  0  0  0  0  0  0  0  0  0  0  0  0  # atno 6055 bound_to 637 
    9.8232   19.7029    8.6547 LP  0  0  0  0  0  0  0  0  0  0  0  0  # atno 6056 bound_to 637 
    0.5750   11.4009   11.0802 LP  0  0  0  0  0  0  0  0  0  0  0  0  # atno 6063 bound_to 1878
    1.9026   12.2429   10.6385 LP  0  0  0  0  0  0  0  0  0  0  0  0  # atno 6064 bound_to 1878
   -7.2099   16.1837    0.0543 LP  0  0  0  0  0  0  0  0  0  0  0  0  # atno 6067 bound_to 957 
   -6.6014   15.4983   -1.2972 LP  0  0  0  0  0  0  0  0  0  0  0  0  # atno 6068 bound_to 957 

>  <STRIFE_LigEff_Score>  (199) 
2.6479777777777778

$$$$
unknown|pharmsElabsTestPreDocking|sdf|200|dock4
     RDKit          3D

 17 18  0  0  0  0  0  0  0  0999 V2000
   14.4472    9.4068    1.0776 C   0  0  0  0  0  0  0  0  0  0  0  0
   13.7664    8.2175    1.7550 C   0  0  0  0  0  0  0  0  0  0  0  0
   13.6100    7.0971    0.8174 N   0  0  0  0  0  0  0  0  0  0  0  0
   12.4839    8.4811    2.5684 C   0  0  0  0  0  0  0  0  0  0  0  0
   11.5113    7.3096    2.8704 C   0  0  0  0  0  0  0  0  0  0  0  0
   10.0809    7.5029    2.3888 C   0  0  0  0  0  0  0  0  0  0  0  0
    9.5624    8.9009    2.7196 C   0  0  0  0  0  0  0  0  0  0  0  0
    8.1046    9.0167    2.3659 C   0  0  0  0  0  0  0  0  0  0  0  0
    7.7390    8.8769    1.1669 O   0  0  0  0  0  0  0  0  0  0  0  0
    7.1533    9.3099    3.3988 N   0  0  0  0  0  0  0  0  0  0  0  0
    5.7369    9.4296    3.2163 C   0  0  0  0  0  0  0  0  0  0  0  0
    5.0174    9.2404    2.0464 C   0  0  0  0  0  0  0  0  0  0  0  0
    3.7134    9.4826    2.4182 C   0  0  0  0  0  0  0  0  0  0  0  0
    3.6816    9.7929    3.7261 N   0  0  0  0  0  0  0  0  0  0  0  0
    4.9067    9.7639    4.2213 N   0  0  0  0  0  0  0  0  0  0  0  0
   10.3772    9.9309    1.9448 C   0  0  0  0  0  0  0  0  0  0  0  0
   11.8589    9.8868    2.3130 C   0  0  0  0  0  0  0  0  0  0  0  0
  1  2  1  0
  2  3  1  0
  2  4  1  0
  4  5  1  0
  5  6  1  0
  6  7  1  0
  7  8  1  0
  8  9  2  0
  8 10  1  0
 10 11  1  0
 11 12  1  0
 12 13  2  0
 13 14  1  0
 14 15  1  0
  7 16  1  0
 16 17  1  0
 17  4  1  0
 15 11  2  0
M  CHG  1   3   1
M  END
>  <EmbedRMS>  (200) 
0.20783527019262546

>  <Gold.Version>  (200) 
2020.3.0

>  <Gold.Id.Protein>  (200) 
unknown|1q8t_protein|pdb

>  <Gold.PLP.Fitness>  (200) 
44.7454

>  <Gold.PLP.PLP>  (200) 
-33.6763

>  <Gold.PLP.part.hbond>  (200) 
-3.0000

>  <Gold.PLP.part.metal>  (200) 
0.0000

>  <Gold.PLP.part.buried>  (200) 
-4.9565

>  <Gold.PLP.part.nonpolar>  (200) 
-26.1358

>  <Gold.PLP.part.repulsive>  (200) 
0.1433

>  <Gold.PLP.ligand.clash>  (200) 
0.0000

>  <Gold.PLP.ligand.torsion>  (200) 
1.0009

>  <Gold.PLP.Chemscore.Hbond>  (200) 
3.2511

>  <Gold.PLP.Chemscore.CHOScore>  (200) 
0.9768

>  <Gold.PLP.Chemscore.Metal>  (200) 
0.0000

>  <Gold.Chemscore.Hbonds>  (200) 
donor molecule, donor type, donor heavy atom, donor atom, acceptor molecule, acceptor atom, score
      L1  H     3    22       P1  2902  2.00
      L1  H     3    23       P1  2691  0.83
      P1  H  2887  2891       L1     9  0.42
      L1  C    13    33       P1  1855  0.98

>  <Gold.PLP.Chemscore.Internal.Correction>  (200) 
0.3870

>  <Gold.PLP.Constraint>  (200) 
-0.0000

>  <Gold.Protein.RotatedTorsions>  (200) 
[  681  677  676  673 ] final  -45.99 input -179.99 | X-H torsion
[  702  698  697  694 ] final   21.76 input  179.99 | X-H torsion
[ 2577 2569 2568 2566 ] final  -55.81 input   -0.13 | X-H torsion
[ 2891 2887 2886 2883 ] final  104.36 input  179.98 | X-H torsion
[ 3175 3171 3170 3167 ] final   48.39 input -179.99 | X-H torsion
[ 5278 5270 5269 5267 ] final  -21.59 input    0.55 | X-H torsion
[  641  637  636  633 ] final -154.77 input  179.99 | X-H torsion
[ 1886 1878 1877 1875 ] final   38.09 input    1.60 | X-H torsion
[  965  957  956  954 ] final   77.08 input    0.45 | X-H torsion

>  <Gold.Protein.ActiveResidues>  (200) 
 LYS47   THR48   LEU49   GLY50   THR51   GLY52   SER53   PHE54   GLY55   ARG56  
 VAL57   MET58   LEU59   TYR69   ALA70   MET71   LYS72   ILE73   LEU74   GLU91  
 LEU95   VAL104  LYS105  MET118  VAL119  MET120  GLU121  TYR122  VAL123  PRO124 
 GLY125  GLY126  GLU127  MET128  PHE129  TYR164  ASP166  LEU167  LYS168  PRO169 
 GLU170  ASN171  LEU172  LEU173  ILE174  GLN181  VAL182  THR183  ASP184  PHE185 
 GLY186  PHE187  GLY200  THR201  ASN326  PHE327  TYR330  ARG18   ARG19   ASN20  
 ALA21   ILE22   HIS23  

>  <Gold.Protein.RotatedAtoms>  (200) 
   11.3289   19.1983    7.8675 H   0  0  0  0  0  0  0  0  0  0  0  0  # atno 641  bound_to 637 
   15.6126   13.0123    6.9864 H   0  0  0  0  0  0  0  0  0  0  0  0  # atno 681  bound_to 677 
   19.3682   11.8539   -0.9523 H   0  0  0  0  0  0  0  0  0  0  0  0  # atno 702  bound_to 698 
   -7.1373   15.8536   -0.0728 H   0  0  0  0  0  0  0  0  0  0  0  0  # atno 965  bound_to 957 
    2.1642   11.8808   10.4425 H   0  0  0  0  0  0  0  0  0  0  0  0  # atno 1886 bound_to 1878
   10.5969    3.2994   -3.3298 H   0  0  0  0  0  0  0  0  0  0  0  0  # atno 2577 bound_to 2569
    8.1409    6.8212    0.6239 H   0  0  0  0  0  0  0  0  0  0  0  0  # atno 2891 bound_to 2887
   18.5702    2.3142   -1.3925 H   0  0  0  0  0  0  0  0  0  0  0  0  # atno 3175 bound_to 3171
   12.8095    9.8910   10.1292 H   0  0  0  0  0  0  0  0  0  0  0  0  # atno 5278 bound_to 5270
   16.8617   13.9778    7.1955 LP  0  0  0  0  0  0  0  0  0  0  0  0  # atno 5914 bound_to 677 
   16.8797   12.8238    6.0402 LP  0  0  0  0  0  0  0  0  0  0  0  0  # atno 5915 bound_to 677 
   20.8458   11.5651   -0.4322 LP  0  0  0  0  0  0  0  0  0  0  0  0  # atno 5920 bound_to 698 
   20.5233   11.6531   -2.0306 LP  0  0  0  0  0  0  0  0  0  0  0  0  # atno 5921 bound_to 698 
   10.6764    2.0055   -2.4052 LP  0  0  0  0  0  0  0  0  0  0  0  0  # atno 5950 bound_to 2569
    9.2365    2.5848   -2.9129 LP  0  0  0  0  0  0  0  0  0  0  0  0  # atno 5951 bound_to 2569
    7.9605    5.2453    0.4808 LP  0  0  0  0  0  0  0  0  0  0  0  0  # atno 5982 bound_to 2887
    7.1465    6.0807    1.6237 LP  0  0  0  0  0  0  0  0  0  0  0  0  # atno 5983 bound_to 2887
   19.3270    3.0525   -0.2018 LP  0  0  0  0  0  0  0  0  0  0  0  0  # atno 6000 bound_to 3171
   18.0177    2.1207    0.0883 LP  0  0  0  0  0  0  0  0  0  0  0  0  # atno 6001 bound_to 3171
   14.3946    9.9276    9.9781 LP  0  0  0  0  0  0  0  0  0  0  0  0  # atno 6004 bound_to 5270
   13.4245   10.2327    8.7003 LP  0  0  0  0  0  0  0  0  0  0  0  0  # atno 6005 bound_to 5270
   10.2396   19.7884    8.8677 LP  0  0  0  0  0  0  0  0  0  0  0  0  # atno 6055 bound_to 637 
    9.7936   19.0939    7.4587 LP  0  0  0  0  0  0  0  0  0  0  0  0  # atno 6056 bound_to 637 
    1.3929   10.4932   10.5649 LP  0  0  0  0  0  0  0  0  0  0  0  0  # atno 6063 bound_to 1878
    0.7142   11.8785   11.1004 LP  0  0  0  0  0  0  0  0  0  0  0  0  # atno 6064 bound_to 1878
   -6.4944   15.7642   -1.5267 LP  0  0  0  0  0  0  0  0  0  0  0  0  # atno 6067 bound_to 957 
   -6.7967   17.2109   -0.8322 LP  0  0  0  0  0  0  0  0  0  0  0  0  # atno 6068 bound_to 957 

>  <STRIFE_LigEff_Score>  (200) 
2.6320823529411763

$$$$
unknown|pharmsElabsTestPreDocking|sdf|201|dock1
     RDKit          3D

 16 16  0  0  0  0  0  0  0  0999 V2000
    3.6020   10.0908    5.0259 C   0  0  0  0  0  0  0  0  0  0  0  0
    5.0736    9.7998    5.2978 C   0  0  0  0  0  0  0  0  0  0  0  0
    5.8464    9.6595    4.0036 C   0  0  0  0  0  0  0  0  0  0  0  0
    4.9816    9.7854    2.6166 S   0  0  0  0  0  0  0  0  0  0  0  0
    7.2385    9.2446    3.9382 N   0  0  0  0  0  0  0  0  0  0  0  0
    7.9785    9.1097    2.7063 C   0  0  0  0  0  0  0  0  0  0  0  0
    7.3862    9.2094    1.6074 O   0  0  0  0  0  0  0  0  0  0  0  0
    9.4533    8.8568    2.5893 C   0  0  0  0  0  0  0  0  0  0  0  0
    9.8857    7.4165    2.8785 C   0  0  0  0  0  0  0  0  0  0  0  0
   11.4134    7.2066    2.9167 C   0  0  0  0  0  0  0  0  0  0  0  0
   12.1402    8.2649    2.0716 C   0  0  0  0  0  0  0  0  0  0  0  0
   13.6305    7.9980    1.6952 C   0  0  0  0  0  0  0  0  0  0  0  0
   14.4901    9.2113    1.3827 C   0  0  0  0  0  0  0  0  0  0  0  0
   13.9165    6.8200    0.8834 N   0  0  0  0  0  0  0  0  0  0  0  0
   11.8915    9.6655    2.6693 C   0  0  0  0  0  0  0  0  0  0  0  0
   10.3989   10.0161    2.8524 C   0  0  0  0  0  0  0  0  0  0  0  0
  1  2  1  0
  2  3  1  0
  3  4  2  0
  3  5  1  0
  5  6  1  0
  6  7  2  0
  6  8  1  0
  8  9  1  0
  9 10  1  0
 10 11  1  0
 11 12  1  0
 12 13  1  0
 12 14  1  0
 11 15  1  0
 15 16  1  0
 16  8  1  0
M  CHG  1  14   1
M  END
>  <EmbedRMS>  (201) 
0.26587366078586644

>  <Gold.Version>  (201) 
2020.3.0

>  <Gold.Id.Protein>  (201) 
unknown|1q8t_protein|pdb

>  <Gold.PLP.Fitness>  (201) 
46.9570

>  <Gold.PLP.PLP>  (201) 
-38.6756

>  <Gold.PLP.part.hbond>  (201) 
-2.4039

>  <Gold.PLP.part.metal>  (201) 
0.0000

>  <Gold.PLP.part.buried>  (201) 
-3.2188

>  <Gold.PLP.part.nonpolar>  (201) 
-33.8471

>  <Gold.PLP.part.repulsive>  (201) 
0.0878

>  <Gold.PLP.ligand.clash>  (201) 
0.0000

>  <Gold.PLP.ligand.torsion>  (201) 
0.8384

>  <Gold.PLP.Chemscore.Hbond>  (201) 
2.9833

>  <Gold.PLP.Chemscore.CHOScore>  (201) 
0.0000

>  <Gold.PLP.Chemscore.Metal>  (201) 
0.0000

>  <Gold.Chemscore.Hbonds>  (201) 
donor molecule, donor type, donor heavy atom, donor atom, acceptor molecule, acceptor atom, score
      L1  H    14    33       P1  2902  2.00
      L1  H    14    34       P1  2691  0.98

>  <Gold.PLP.Chemscore.Internal.Correction>  (201) 
1.0083

>  <Gold.PLP.Constraint>  (201) 
-0.0000

>  <Gold.Protein.RotatedTorsions>  (201) 
[  681  677  676  673 ] final  117.01 input -179.99 | X-H torsion
[  702  698  697  694 ] final  139.13 input  179.99 | X-H torsion
[ 2577 2569 2568 2566 ] final -152.16 input   -0.13 | X-H torsion
[ 2891 2887 2886 2883 ] final  -65.31 input  179.98 | X-H torsion
[ 3175 3171 3170 3167 ] final   42.49 input -179.99 | X-H torsion
[ 5278 5270 5269 5267 ] final -155.75 input    0.55 | X-H torsion
[  641  637  636  633 ] final  153.38 input  179.99 | X-H torsion
[ 1886 1878 1877 1875 ] final  -77.11 input    1.60 | X-H torsion
[  965  957  956  954 ] final -176.06 input    0.45 | X-H torsion

>  <Gold.Protein.ActiveResidues>  (201) 
 LYS47   THR48   LEU49   GLY50   THR51   GLY52   SER53   PHE54   GLY55   ARG56  
 VAL57   MET58   LEU59   TYR69   ALA70   MET71   LYS72   ILE73   LEU74   GLU91  
 LEU95   VAL104  LYS105  MET118  VAL119  MET120  GLU121  TYR122  VAL123  PRO124 
 GLY125  GLY126  GLU127  MET128  PHE129  TYR164  ASP166  LEU167  LYS168  PRO169 
 GLU170  ASN171  LEU172  LEU173  ILE174  GLN181  VAL182  THR183  ASP184  PHE185 
 GLY186  PHE187  GLY200  THR201  ASN326  PHE327  TYR330  ARG18   ARG19   ASN20  
 ALA21   ILE22   HIS23  

>  <Gold.Protein.RotatedAtoms>  (201) 
   11.1923   19.5550    8.5511 H   0  0  0  0  0  0  0  0  0  0  0  0  # atno 641  bound_to 637 
   17.2195   13.3390    6.3149 H   0  0  0  0  0  0  0  0  0  0  0  0  # atno 681  bound_to 677 
   20.4730   11.6782   -1.9981 H   0  0  0  0  0  0  0  0  0  0  0  0  # atno 702  bound_to 698 
   -6.8677   17.1483   -0.6380 H   0  0  0  0  0  0  0  0  0  0  0  0  # atno 965  bound_to 957 
    1.4570   10.5467   10.5268 H   0  0  0  0  0  0  0  0  0  0  0  0  # atno 1886 bound_to 1878
   10.9164    2.2461   -2.5751 H   0  0  0  0  0  0  0  0  0  0  0  0  # atno 2577 bound_to 2569
    7.4415    5.2369    1.0544 H   0  0  0  0  0  0  0  0  0  0  0  0  # atno 2891 bound_to 2887
   18.6444    2.3676   -1.4042 H   0  0  0  0  0  0  0  0  0  0  0  0  # atno 3175 bound_to 3171
   14.4142    9.9992    9.7584 H   0  0  0  0  0  0  0  0  0  0  0  0  # atno 5278 bound_to 5270
   15.8152   12.6074    6.4851 LP  0  0  0  0  0  0  0  0  0  0  0  0  # atno 5914 bound_to 677 
   16.2350   13.8504    7.4574 LP  0  0  0  0  0  0  0  0  0  0  0  0  # atno 5915 bound_to 677 
   19.3299   11.8428   -0.9010 LP  0  0  0  0  0  0  0  0  0  0  0  0  # atno 5920 bound_to 698 
   20.8771   11.5601   -0.4618 LP  0  0  0  0  0  0  0  0  0  0  0  0  # atno 5921 bound_to 698 
    9.3290    2.2798   -2.6944 LP  0  0  0  0  0  0  0  0  0  0  0  0  # atno 5950 bound_to 2569
   10.2475    3.4194   -3.4184 LP  0  0  0  0  0  0  0  0  0  0  0  0  # atno 5951 bound_to 2569
    7.4569    6.7839    1.4326 LP  0  0  0  0  0  0  0  0  0  0  0  0  # atno 5982 bound_to 2887
    8.3861    6.2095    0.2188 LP  0  0  0  0  0  0  0  0  0  0  0  0  # atno 5983 bound_to 2887
   19.2914    3.0378   -0.1128 LP  0  0  0  0  0  0  0  0  0  0  0  0  # atno 6000 bound_to 3171
   17.9753    2.0792    0.0117 LP  0  0  0  0  0  0  0  0  0  0  0  0  # atno 6001 bound_to 3171
   13.1986   10.2174    8.7525 LP  0  0  0  0  0  0  0  0  0  0  0  0  # atno 6004 bound_to 5270
   12.9320    9.8290   10.3161 LP  0  0  0  0  0  0  0  0  0  0  0  0  # atno 6005 bound_to 5270
    9.6094   19.5750    8.3808 LP  0  0  0  0  0  0  0  0  0  0  0  0  # atno 6055 bound_to 637 
   10.5678   18.9317    7.2257 LP  0  0  0  0  0  0  0  0  0  0  0  0  # atno 6056 bound_to 637 
    0.6773   11.8089   11.1048 LP  0  0  0  0  0  0  0  0  0  0  0  0  # atno 6063 bound_to 1878
    2.1742   11.9672   10.4718 LP  0  0  0  0  0  0  0  0  0  0  0  0  # atno 6064 bound_to 1878
   -7.1210   15.6533   -0.1523 LP  0  0  0  0  0  0  0  0  0  0  0  0  # atno 6067 bound_to 957 
   -6.4540   15.9582   -1.6114 LP  0  0  0  0  0  0  0  0  0  0  0  0  # atno 6068 bound_to 957 

>  <STRIFE_LigEff_Score>  (201) 
2.9348125

$$$$
unknown|pharmsElabsTestPreDocking|sdf|202|dock3
     RDKit          3D

 16 16  0  0  0  0  0  0  0  0999 V2000
   15.0058    8.0008    3.0355 C   0  0  0  0  0  0  0  0  0  0  0  0
   13.9258    8.1184    1.9467 C   0  0  0  0  0  0  0  0  0  0  0  0
   14.0576    7.0194    0.9855 N   0  0  0  0  0  0  0  0  0  0  0  0
   12.4487    8.3069    2.4472 C   0  0  0  0  0  0  0  0  0  0  0  0
   11.3956    7.6940    1.5251 C   0  0  0  0  0  0  0  0  0  0  0  0
    9.9592    7.8204    2.0099 C   0  0  0  0  0  0  0  0  0  0  0  0
    9.6548    9.1705    2.6148 C   0  0  0  0  0  0  0  0  0  0  0  0
    8.1894    9.4316    2.8207 C   0  0  0  0  0  0  0  0  0  0  0  0
    7.5416    9.5297    1.7546 O   0  0  0  0  0  0  0  0  0  0  0  0
    7.5090    9.5544    4.0890 N   0  0  0  0  0  0  0  0  0  0  0  0
    6.1208    9.9708    4.2207 C   0  0  0  0  0  0  0  0  0  0  0  0
    5.1910   10.1063    2.8769 S   0  0  0  0  0  0  0  0  0  0  0  0
    5.4090   10.0992    5.5479 C   0  0  0  0  0  0  0  0  0  0  0  0
    3.6085   10.0967    5.2965 S   0  0  0  0  0  0  0  0  0  0  0  0
   10.6279    9.7134    3.6354 C   0  0  0  0  0  0  0  0  0  0  0  0
   12.0788    9.6374    3.1328 C   0  0  0  0  0  0  0  0  0  0  0  0
  1  2  1  0
  2  3  1  0
  2  4  1  0
  4  5  1  0
  5  6  1  0
  6  7  1  0
  7  8  1  0
  8  9  2  0
  8 10  1  0
 10 11  1  0
 11 12  2  0
 11 13  1  0
 13 14  1  0
  7 15  1  0
 15 16  1  0
 16  4  1  0
M  CHG  1   3   1
M  END
>  <EmbedRMS>  (202) 
0.2776559693615689

>  <Gold.Version>  (202) 
2020.3.0

>  <Gold.Id.Protein>  (202) 
unknown|1q8t_protein|pdb

>  <Gold.PLP.Fitness>  (202) 
45.1999

>  <Gold.PLP.PLP>  (202) 
-37.6577

>  <Gold.PLP.part.hbond>  (202) 
-2.0000

>  <Gold.PLP.part.metal>  (202) 
0.0000

>  <Gold.PLP.part.buried>  (202) 
-3.6774

>  <Gold.PLP.part.nonpolar>  (202) 
-32.7629

>  <Gold.PLP.part.repulsive>  (202) 
0.0717

>  <Gold.PLP.ligand.clash>  (202) 
0.0000

>  <Gold.PLP.ligand.torsion>  (202) 
1.1594

>  <Gold.PLP.Chemscore.Hbond>  (202) 
3.0000

>  <Gold.PLP.Chemscore.CHOScore>  (202) 
0.0000

>  <Gold.PLP.Chemscore.Metal>  (202) 
0.0000

>  <Gold.Chemscore.Hbonds>  (202) 
donor molecule, donor type, donor heavy atom, donor atom, acceptor molecule, acceptor atom, score
      L1  H     3    21       P1  2902  2.00
      L1  H     3    22       P1  2691  1.00

>  <Gold.PLP.Chemscore.Internal.Correction>  (202) 
0.8610

>  <Gold.PLP.Constraint>  (202) 
-0.0000

>  <Gold.Protein.RotatedTorsions>  (202) 
[  681  677  676  673 ] final  -21.08 input -179.99 | X-H torsion
[  702  698  697  694 ] final   94.40 input  179.99 | X-H torsion
[ 2577 2569 2568 2566 ] final   68.07 input   -0.13 | X-H torsion
[ 2891 2887 2886 2883 ] final  -86.75 input  179.98 | X-H torsion
[ 3175 3171 3170 3167 ] final -125.68 input -179.99 | X-H torsion
[ 5278 5270 5269 5267 ] final   21.23 input    0.55 | X-H torsion
[  641  637  636  633 ] final -129.23 input  179.99 | X-H torsion
[ 1886 1878 1877 1875 ] final   77.56 input    1.60 | X-H torsion
[  965  957  956  954 ] final    9.33 input    0.45 | X-H torsion

>  <Gold.Protein.ActiveResidues>  (202) 
 LYS47   THR48   LEU49   GLY50   THR51   GLY52   SER53   PHE54   GLY55   ARG56  
 VAL57   MET58   LEU59   TYR69   ALA70   MET71   LYS72   ILE73   LEU74   GLU91  
 LEU95   VAL104  LYS105  MET118  VAL119  MET120  GLU121  TYR122  VAL123  PRO124 
 GLY125  GLY126  GLU127  MET128  PHE129  TYR164  ASP166  LEU167  LYS168  PRO169 
 GLU170  ASN171  LEU172  LEU173  ILE174  GLN181  VAL182  THR183  ASP184  PHE185 
 GLY186  PHE187  GLY200  THR201  ASN326  PHE327  TYR330  ARG18   ARG19   ASN20  
 ALA21   ILE22   HIS23  

>  <Gold.Protein.RotatedAtoms>  (202) 
   11.1395   19.0488    7.5540 H   0  0  0  0  0  0  0  0  0  0  0  0  # atno 641  bound_to 637 
   15.6931   12.7700    6.6963 H   0  0  0  0  0  0  0  0  0  0  0  0  # atno 681  bound_to 677 
   19.8058   11.7949   -1.9178 H   0  0  0  0  0  0  0  0  0  0  0  0  # atno 702  bound_to 698 
   -6.7778   15.3774   -0.8728 H   0  0  0  0  0  0  0  0  0  0  0  0  # atno 965  bound_to 957 
    1.7607   12.2603   10.6851 H   0  0  0  0  0  0  0  0  0  0  0  0  # atno 1886 bound_to 1878
    9.2889    2.5287   -2.8905 H   0  0  0  0  0  0  0  0  0  0  0  0  # atno 2577 bound_to 2569
    7.2764    5.4094    1.2870 H   0  0  0  0  0  0  0  0  0  0  0  0  # atno 2891 bound_to 2887
   18.7914    2.7048    0.3392 H   0  0  0  0  0  0  0  0  0  0  0  0  # atno 3175 bound_to 3171
   12.6398   10.0406    9.5154 H   0  0  0  0  0  0  0  0  0  0  0  0  # atno 5278 bound_to 5270
   16.5054   13.9512    7.3898 LP  0  0  0  0  0  0  0  0  0  0  0  0  # atno 5914 bound_to 677 
   17.1513   13.1055    6.1512 LP  0  0  0  0  0  0  0  0  0  0  0  0  # atno 5915 bound_to 677 
   19.7507   11.7571   -0.3263 LP  0  0  0  0  0  0  0  0  0  0  0  0  # atno 5920 bound_to 698 
   21.1580   11.5230   -1.1209 LP  0  0  0  0  0  0  0  0  0  0  0  0  # atno 5921 bound_to 698 
   10.5607    3.3651   -3.3577 LP  0  0  0  0  0  0  0  0  0  0  0  0  # atno 5950 bound_to 2569
   10.7293    2.0367   -2.4230 LP  0  0  0  0  0  0  0  0  0  0  0  0  # atno 5951 bound_to 2569
    7.6781    6.9488    1.2159 LP  0  0  0  0  0  0  0  0  0  0  0  0  # atno 5982 bound_to 2887
    8.3387    5.8630    0.1906 LP  0  0  0  0  0  0  0  0  0  0  0  0  # atno 5983 bound_to 2887
   17.9118    1.9336   -0.7412 LP  0  0  0  0  0  0  0  0  0  0  0  0  # atno 6000 bound_to 3171
   19.2002    2.8286   -1.1948 LP  0  0  0  0  0  0  0  0  0  0  0  0  # atno 6001 bound_to 3171
   13.9081    9.8062   10.4498 LP  0  0  0  0  0  0  0  0  0  0  0  0  # atno 6004 bound_to 5270
   14.0895   10.1966    8.8745 LP  0  0  0  0  0  0  0  0  0  0  0  0  # atno 6005 bound_to 5270
   10.6557   19.7745    8.8860 LP  0  0  0  0  0  0  0  0  0  0  0  0  # atno 6055 bound_to 637 
    9.5771   19.2653    7.7707 LP  0  0  0  0  0  0  0  0  0  0  0  0  # atno 6056 bound_to 637 
    1.9522   10.7142   10.3560 LP  0  0  0  0  0  0  0  0  0  0  0  0  # atno 6063 bound_to 1878
    0.5796   11.2581   11.0538 LP  0  0  0  0  0  0  0  0  0  0  0  0  # atno 6064 bound_to 1878
   -6.4975   16.8147   -1.4978 LP  0  0  0  0  0  0  0  0  0  0  0  0  # atno 6067 bound_to 957 
   -7.1722   16.6619   -0.0186 LP  0  0  0  0  0  0  0  0  0  0  0  0  # atno 6068 bound_to 957 

>  <STRIFE_LigEff_Score>  (202) 
2.82499375

$$$$
unknown|pharmsElabsTestPreDocking|sdf|203|dock1
     RDKit          3D

 18 19  0  0  0  0  0  0  0  0999 V2000
   14.4713    9.4620    1.1019 C   0  0  0  0  0  0  0  0  0  0  0  0
   13.6829    8.2315    1.5180 C   0  0  0  0  0  0  0  0  0  0  0  0
   13.9851    7.0245    0.7566 N   0  0  0  0  0  0  0  0  0  0  0  0
   12.2010    8.4542    1.9488 C   0  0  0  0  0  0  0  0  0  0  0  0
   11.5105    7.3341    2.7428 C   0  0  0  0  0  0  0  0  0  0  0  0
    9.9815    7.5250    2.7559 C   0  0  0  0  0  0  0  0  0  0  0  0
    9.5278    8.9764    2.5802 C   0  0  0  0  0  0  0  0  0  0  0  0
    8.0544    9.1907    2.7363 C   0  0  0  0  0  0  0  0  0  0  0  0
    7.5094    9.6501    1.7091 O   0  0  0  0  0  0  0  0  0  0  0  0
    7.2697    8.9148    3.9199 N   0  0  0  0  0  0  0  0  0  0  0  0
    5.8598    9.2562    4.0739 C   0  0  0  0  0  0  0  0  0  0  0  0
    4.9874    9.0913    2.9807 C   0  0  0  0  0  0  0  0  0  0  0  0
    3.6240    9.3978    3.0975 C   0  0  0  0  0  0  0  0  0  0  0  0
    3.1101    9.8821    4.3011 C   0  0  0  0  0  0  0  0  0  0  0  0
    3.9508   10.0513    5.3933 C   0  0  0  0  0  0  0  0  0  0  0  0
    5.3011    9.7321    5.2922 C   0  0  0  0  0  0  0  0  0  0  0  0
   10.4628   10.1293    2.8931 C   0  0  0  0  0  0  0  0  0  0  0  0
   11.9526    9.8115    2.6416 C   0  0  0  0  0  0  0  0  0  0  0  0
  1  2  1  0
  2  3  1  0
  2  4  1  0
  4  5  1  0
  5  6  1  0
  6  7  1  0
  7  8  1  0
  8  9  2  0
  8 10  1  0
 10 11  1  0
 11 12  2  0
 12 13  1  0
 13 14  2  0
 14 15  1  0
 15 16  2  0
  7 17  1  0
 17 18  1  0
 18  4  1  0
 16 11  1  0
M  CHG  1   3   1
M  END
>  <EmbedRMS>  (203) 
0.24964892458419108

>  <Gold.Version>  (203) 
2020.3.0

>  <Gold.Id.Protein>  (203) 
unknown|1q8t_protein|pdb

>  <Gold.PLP.Fitness>  (203) 
55.5965

>  <Gold.PLP.PLP>  (203) 
-47.5001

>  <Gold.PLP.part.hbond>  (203) 
-2.0000

>  <Gold.PLP.part.metal>  (203) 
0.0000

>  <Gold.PLP.part.buried>  (203) 
-1.6682

>  <Gold.PLP.part.nonpolar>  (203) 
-44.5416

>  <Gold.PLP.part.repulsive>  (203) 
0.0755

>  <Gold.PLP.ligand.clash>  (203) 
0.0000

>  <Gold.PLP.ligand.torsion>  (203) 
0.9135

>  <Gold.PLP.Chemscore.Hbond>  (203) 
2.9920

>  <Gold.PLP.Chemscore.CHOScore>  (203) 
0.0000

>  <Gold.PLP.Chemscore.Metal>  (203) 
0.0000

>  <Gold.Chemscore.Hbonds>  (203) 
donor molecule, donor type, donor heavy atom, donor atom, acceptor molecule, acceptor atom, score
      L1  H     3    23       P1  2902  2.00
      L1  H     3    24       P1  2691  0.99

>  <Gold.PLP.Chemscore.Internal.Correction>  (203) 
0.9473

>  <Gold.PLP.Constraint>  (203) 
-0.0000

>  <Gold.Protein.RotatedTorsions>  (203) 
[  681  677  676  673 ] final  153.08 input -179.99 | X-H torsion
[  702  698  697  694 ] final  161.10 input  179.99 | X-H torsion
[ 2577 2569 2568 2566 ] final  112.46 input   -0.13 | X-H torsion
[ 2891 2887 2886 2883 ] final   59.29 input  179.98 | X-H torsion
[ 3175 3171 3170 3167 ] final  169.27 input -179.99 | X-H torsion
[ 5278 5270 5269 5267 ] final  135.94 input    0.55 | X-H torsion
[  641  637  636  633 ] final  -13.69 input  179.99 | X-H torsion
[ 1886 1878 1877 1875 ] final   31.19 input    1.60 | X-H torsion
[  965  957  956  954 ] final   62.01 input    0.45 | X-H torsion

>  <Gold.Protein.ActiveResidues>  (203) 
 LYS47   THR48   LEU49   GLY50   THR51   GLY52   SER53   PHE54   GLY55   ARG56  
 VAL57   MET58   LEU59   TYR69   ALA70   MET71   LYS72   ILE73   LEU74   GLU91  
 LEU95   VAL104  LYS105  MET118  VAL119  MET120  GLU121  TYR122  VAL123  PRO124 
 GLY125  GLY126  GLU127  MET128  PHE129  TYR164  ASP166  LEU167  LYS168  PRO169 
 GLU170  ASN171  LEU172  LEU173  ILE174  GLN181  VAL182  THR183  ASP184  PHE185 
 GLY186  PHE187  GLY200  THR201  ASN326  PHE327  TYR330  ARG18   ARG19   ASN20  
 ALA21   ILE22   HIS23  

>  <Gold.Protein.RotatedAtoms>  (203) 
    9.6459   19.2248    7.7353 H   0  0  0  0  0  0  0  0  0  0  0  0  # atno 641  bound_to 637 
   17.2042   13.7280    6.7100 H   0  0  0  0  0  0  0  0  0  0  0  0  # atno 681  bound_to 677 
   20.7732   11.6220   -1.8452 H   0  0  0  0  0  0  0  0  0  0  0  0  # atno 702  bound_to 698 
   -7.0828   15.6616   -0.1966 H   0  0  0  0  0  0  0  0  0  0  0  0  # atno 965  bound_to 957 
    2.2036   11.7862   10.4090 H   0  0  0  0  0  0  0  0  0  0  0  0  # atno 1886 bound_to 1878
    9.6073    2.0496   -2.5345 H   0  0  0  0  0  0  0  0  0  0  0  0  # atno 2577 bound_to 2569
    8.3416    6.2743    0.2604 H   0  0  0  0  0  0  0  0  0  0  0  0  # atno 2891 bound_to 2887
   18.0654    2.1319    0.0703 H   0  0  0  0  0  0  0  0  0  0  0  0  # atno 3175 bound_to 3171
   13.9929   10.2139    8.8703 H   0  0  0  0  0  0  0  0  0  0  0  0  # atno 5278 bound_to 5270
   16.2859   12.5568    6.1434 LP  0  0  0  0  0  0  0  0  0  0  0  0  # atno 5914 bound_to 677 
   15.7805   13.4916    7.3833 LP  0  0  0  0  0  0  0  0  0  0  0  0  # atno 5915 bound_to 677 
   19.3100   11.8533   -1.2596 LP  0  0  0  0  0  0  0  0  0  0  0  0  # atno 5920 bound_to 698 
   20.5811   11.6087   -0.2640 LP  0  0  0  0  0  0  0  0  0  0  0  0  # atno 5921 bound_to 698 
    9.8501    3.3598   -3.4061 LP  0  0  0  0  0  0  0  0  0  0  0  0  # atno 5950 bound_to 2569
   11.1047    2.5465   -2.7495 LP  0  0  0  0  0  0  0  0  0  0  0  0  # atno 5951 bound_to 2569
    7.4818    5.1672    1.0165 LP  0  0  0  0  0  0  0  0  0  0  0  0  # atno 5982 bound_to 2887
    7.4140    6.7343    1.4705 LP  0  0  0  0  0  0  0  0  0  0  0  0  # atno 5983 bound_to 2887
   18.5444    2.3110   -1.4377 LP  0  0  0  0  0  0  0  0  0  0  0  0  # atno 6000 bound_to 3171
   19.3317    3.0542   -0.2152 LP  0  0  0  0  0  0  0  0  0  0  0  0  # atno 6001 bound_to 3171
   12.5878   10.0044    9.5905 LP  0  0  0  0  0  0  0  0  0  0  0  0  # atno 6004 bound_to 5270
   13.9861    9.8162   10.4126 LP  0  0  0  0  0  0  0  0  0  0  0  0  # atno 6005 bound_to 5270
   11.2221   19.0714    7.5709 LP  0  0  0  0  0  0  0  0  0  0  0  0  # atno 6055 bound_to 637 
   10.5835   19.7830    8.8947 LP  0  0  0  0  0  0  0  0  0  0  0  0  # atno 6056 bound_to 637 
    1.2895   10.4983   10.6113 LP  0  0  0  0  0  0  0  0  0  0  0  0  # atno 6063 bound_to 1878
    0.7761   11.9730   11.0892 LP  0  0  0  0  0  0  0  0  0  0  0  0  # atno 6064 bound_to 1878
   -6.4496   15.9886   -1.6204 LP  0  0  0  0  0  0  0  0  0  0  0  0  # atno 6067 bound_to 957 
   -6.8989   17.1886   -0.6081 LP  0  0  0  0  0  0  0  0  0  0  0  0  # atno 6068 bound_to 957 

>  <STRIFE_LigEff_Score>  (203) 
3.088694444444444

$$$$
unknown|pharmsElabsTestPreDocking|sdf|204|dock10
     RDKit          3D

 17 17  0  0  0  0  0  0  0  0999 V2000
    3.3170    8.6435    2.1365 C   0  0  0  0  0  0  0  0  0  0  0  0
    4.6276    8.8968    2.1067 C   0  0  0  0  0  0  0  0  0  0  0  0
    5.4908    9.1439    3.2875 C   0  0  0  0  0  0  0  0  0  0  0  0
    4.9717    9.7433    4.3864 C   0  0  0  0  0  0  0  0  0  0  0  0
    5.7692   10.1015    5.6033 C   0  0  0  0  0  0  0  0  0  0  0  0
    6.9148    8.8717    3.2412 N   0  0  0  0  0  0  0  0  0  0  0  0
    7.9683    9.2747    2.3347 C   0  0  0  0  0  0  0  0  0  0  0  0
    7.6534   10.0777    1.4190 O   0  0  0  0  0  0  0  0  0  0  0  0
    9.4353    8.9420    2.3625 C   0  0  0  0  0  0  0  0  0  0  0  0
    9.7415    7.4894    2.6860 C   0  0  0  0  0  0  0  0  0  0  0  0
   11.1881    7.1052    2.4532 C   0  0  0  0  0  0  0  0  0  0  0  0
   12.2592    8.1664    2.7251 C   0  0  0  0  0  0  0  0  0  0  0  0
   13.5983    7.8650    2.0078 C   0  0  0  0  0  0  0  0  0  0  0  0
   14.5850    9.0137    1.7984 C   0  0  0  0  0  0  0  0  0  0  0  0
   13.4197    7.0599    0.7985 N   0  0  0  0  0  0  0  0  0  0  0  0
   11.8528    9.6425    2.4913 C   0  0  0  0  0  0  0  0  0  0  0  0
   10.4053   10.0144    2.7834 C   0  0  0  0  0  0  0  0  0  0  0  0
  1  2  2  0
  2  3  1  0
  3  4  2  0
  4  5  1  0
  3  6  1  0
  6  7  1  0
  7  8  2  0
  7  9  1  0
  9 10  1  0
 10 11  1  0
 11 12  1  0
 12 13  1  0
 13 14  1  0
 13 15  1  0
 12 16  1  0
 16 17  1  0
 17  9  1  0
M  CHG  1  15   1
M  END
>  <EmbedRMS>  (204) 
0.29216731409503444

>  <Gold.Version>  (204) 
2020.3.0

>  <Gold.Id.Protein>  (204) 
unknown|1q8t_protein|pdb

>  <Gold.PLP.Fitness>  (204) 
45.1985

>  <Gold.PLP.PLP>  (204) 
-39.3248

>  <Gold.PLP.part.hbond>  (204) 
-1.6881

>  <Gold.PLP.part.metal>  (204) 
0.0000

>  <Gold.PLP.part.buried>  (204) 
-2.0315

>  <Gold.PLP.part.nonpolar>  (204) 
-35.3454

>  <Gold.PLP.part.repulsive>  (204) 
0.0552

>  <Gold.PLP.ligand.clash>  (204) 
0.0000

>  <Gold.PLP.ligand.torsion>  (204) 
1.9213

>  <Gold.PLP.Chemscore.Hbond>  (204) 
2.9280

>  <Gold.PLP.Chemscore.CHOScore>  (204) 
0.0000

>  <Gold.PLP.Chemscore.Metal>  (204) 
0.0000

>  <Gold.Chemscore.Hbonds>  (204) 
donor molecule, donor type, donor heavy atom, donor atom, acceptor molecule, acceptor atom, score
      L1  H    15    37       P1  2902  2.00
      L1  H    15    38       P1  2691  0.93

>  <Gold.PLP.Chemscore.Internal.Correction>  (204) 
0.9322

>  <Gold.PLP.Constraint>  (204) 
-0.0000

>  <Gold.Protein.RotatedTorsions>  (204) 
[  681  677  676  673 ] final   47.12 input -179.99 | X-H torsion
[  702  698  697  694 ] final  131.62 input  179.99 | X-H torsion
[ 2577 2569 2568 2566 ] final   39.50 input   -0.13 | X-H torsion
[ 2891 2887 2886 2883 ] final -133.52 input  179.98 | X-H torsion
[ 3175 3171 3170 3167 ] final   28.29 input -179.99 | X-H torsion
[ 5278 5270 5269 5267 ] final -130.24 input    0.55 | X-H torsion
[  641  637  636  633 ] final    3.72 input  179.99 | X-H torsion
[ 1886 1878 1877 1875 ] final   12.77 input    1.60 | X-H torsion
[  965  957  956  954 ] final -117.88 input    0.45 | X-H torsion

>  <Gold.Protein.ActiveResidues>  (204) 
 LYS47   THR48   LEU49   GLY50   THR51   GLY52   SER53   PHE54   GLY55   ARG56  
 VAL57   MET58   LEU59   TYR69   ALA70   MET71   LYS72   ILE73   LEU74   GLU91  
 LEU95   VAL104  LYS105  MET118  VAL119  MET120  GLU121  TYR122  VAL123  PRO124 
 GLY125  GLY126  GLU127  MET128  PHE129  TYR164  ASP166  LEU167  LYS168  PRO169 
 GLU170  ASN171  LEU172  LEU173  ILE174  GLN181  VAL182  THR183  ASP184  PHE185 
 GLY186  PHE187  GLY200  THR201  ASN326  PHE327  TYR330  ARG18   ARG19   ASN20  
 ALA21   ILE22   HIS23  

>  <Gold.Protein.RotatedAtoms>  (204) 
    9.5789   19.3471    7.9675 H   0  0  0  0  0  0  0  0  0  0  0  0  # atno 641  bound_to 637 
   16.4869   12.6560    6.0916 H   0  0  0  0  0  0  0  0  0  0  0  0  # atno 681  bound_to 677 
   20.3599   11.6987   -2.0222 H   0  0  0  0  0  0  0  0  0  0  0  0  # atno 702  bound_to 698 
   -6.5276   16.8746   -1.3911 H   0  0  0  0  0  0  0  0  0  0  0  0  # atno 965  bound_to 957 
    2.2530   11.5123   10.3405 H   0  0  0  0  0  0  0  0  0  0  0  0  # atno 1886 bound_to 1878
    9.3530    2.8900   -3.1367 H   0  0  0  0  0  0  0  0  0  0  0  0  # atno 2577 bound_to 2569
    7.1609    6.0496    1.5742 H   0  0  0  0  0  0  0  0  0  0  0  0  # atno 2891 bound_to 2887
   18.8216    2.5002   -1.3938 H   0  0  0  0  0  0  0  0  0  0  0  0  # atno 3175 bound_to 3171
   14.2649    9.9100   10.1138 H   0  0  0  0  0  0  0  0  0  0  0  0  # atno 5278 bound_to 5270
   15.6649   13.3189    7.2836 LP  0  0  0  0  0  0  0  0  0  0  0  0  # atno 5914 bound_to 677 
   17.1563   13.8578    6.8939 LP  0  0  0  0  0  0  0  0  0  0  0  0  # atno 5915 bound_to 677 
   19.3673   11.8339   -0.7837 LP  0  0  0  0  0  0  0  0  0  0  0  0  # atno 5920 bound_to 698 
   20.9585   11.5474   -0.5538 LP  0  0  0  0  0  0  0  0  0  0  0  0  # atno 5921 bound_to 698 
   10.9250    3.1404   -3.1750 LP  0  0  0  0  0  0  0  0  0  0  0  0  # atno 5950 bound_to 2569
   10.2976    1.8809   -2.3464 LP  0  0  0  0  0  0  0  0  0  0  0  0  # atno 5951 bound_to 2569
    8.1561    6.8756    0.6447 LP  0  0  0  0  0  0  0  0  0  0  0  0  # atno 5982 bound_to 2887
    7.9823    5.2625    0.4596 LP  0  0  0  0  0  0  0  0  0  0  0  0  # atno 5983 bound_to 2887
   19.1780    2.9793    0.0824 LP  0  0  0  0  0  0  0  0  0  0  0  0  # atno 6000 bound_to 3171
   17.9023    1.9982   -0.1944 LP  0  0  0  0  0  0  0  0  0  0  0  0  # atno 6001 bound_to 3171
   13.6111   10.2351    8.6984 LP  0  0  0  0  0  0  0  0  0  0  0  0  # atno 6004 bound_to 5270
   12.6766    9.9052    9.9962 LP  0  0  0  0  0  0  0  0  0  0  0  0  # atno 6005 bound_to 5270
   11.0184   18.9897    7.3887 LP  0  0  0  0  0  0  0  0  0  0  0  0  # atno 6055 bound_to 637 
   10.8579   19.7359    8.8324 LP  0  0  0  0  0  0  0  0  0  0  0  0  # atno 6056 bound_to 637 
    1.0280   10.5768   10.7400 LP  0  0  0  0  0  0  0  0  0  0  0  0  # atno 6063 bound_to 1878
    0.9855   12.1828   11.0326 LP  0  0  0  0  0  0  0  0  0  0  0  0  # atno 6064 bound_to 1878
   -7.1907   16.5510    0.0198 LP  0  0  0  0  0  0  0  0  0  0  0  0  # atno 6067 bound_to 957 
   -6.7425   15.3487   -0.9903 LP  0  0  0  0  0  0  0  0  0  0  0  0  # atno 6068 bound_to 957 

>  <STRIFE_LigEff_Score>  (204) 
2.658735294117647

$$$$
unknown|pharmsElabsTestPreDocking|sdf|205|dock7
     RDKit          3D

 16 16  0  0  0  0  0  0  0  0999 V2000
    4.6768    9.8035    2.7283 C   0  0  0  0  0  0  0  0  0  0  0  0
    5.4527    9.9913    4.0080 C   0  0  0  0  0  0  0  0  0  0  0  0
    4.6304    9.9109    5.3005 C   0  0  0  0  0  0  0  0  0  0  0  0
    3.5948    8.8976    5.0989 N   0  0  0  0  0  0  0  0  0  0  0  0
    6.7995    9.4383    3.9914 N   0  0  0  0  0  0  0  0  0  0  0  0
    7.7455    9.4158    2.9235 C   0  0  0  0  0  0  0  0  0  0  0  0
    7.5378   10.0990    1.8858 O   0  0  0  0  0  0  0  0  0  0  0  0
    9.0920    8.7754    3.1594 C   0  0  0  0  0  0  0  0  0  0  0  0
    9.4651    7.8495    2.0033 C   0  0  0  0  0  0  0  0  0  0  0  0
   10.7579    7.0929    2.2818 C   0  0  0  0  0  0  0  0  0  0  0  0
   11.9219    7.9393    2.8636 C   0  0  0  0  0  0  0  0  0  0  0  0
   13.2702    8.0046    2.1177 C   0  0  0  0  0  0  0  0  0  0  0  0
   14.5532    8.0119    2.9485 C   0  0  0  0  0  0  0  0  0  0  0  0
   13.2953    9.0682    1.1039 N   0  0  0  0  0  0  0  0  0  0  0  0
   11.5456    9.2616    3.5975 C   0  0  0  0  0  0  0  0  0  0  0  0
   10.1680    9.8509    3.3002 C   0  0  0  0  0  0  0  0  0  0  0  0
  1  2  1  0
  2  3  1  0
  3  4  1  0
  2  5  1  0
  5  6  1  0
  6  7  2  0
  6  8  1  0
  8  9  1  0
  9 10  1  0
 10 11  1  0
 11 12  1  0
 12 13  1  0
 12 14  1  0
 11 15  1  0
 15 16  1  0
 16  8  1  0
M  CHG  2   4   1  14   1
M  END
>  <EmbedRMS>  (205) 
0.3005344476337905

>  <Gold.Version>  (205) 
2020.3.0

>  <Gold.Id.Protein>  (205) 
unknown|1q8t_protein|pdb

>  <Gold.PLP.Fitness>  (205) 
40.8886

>  <Gold.PLP.PLP>  (205) 
-33.5029

>  <Gold.PLP.part.hbond>  (205) 
-2.0000

>  <Gold.PLP.part.metal>  (205) 
0.0000

>  <Gold.PLP.part.buried>  (205) 
-3.0079

>  <Gold.PLP.part.nonpolar>  (205) 
-28.1961

>  <Gold.PLP.part.repulsive>  (205) 
0.0970

>  <Gold.PLP.ligand.clash>  (205) 
0.0000

>  <Gold.PLP.ligand.torsion>  (205) 
1.2649

>  <Gold.PLP.Chemscore.Hbond>  (205) 
3.0000

>  <Gold.PLP.Chemscore.CHOScore>  (205) 
0.0000

>  <Gold.PLP.Chemscore.Metal>  (205) 
0.0000

>  <Gold.Chemscore.Hbonds>  (205) 
donor molecule, donor type, donor heavy atom, donor atom, acceptor molecule, acceptor atom, score
      L1  H     4    24       P1  1891  1.00
      L1  H    14    39       P1  2902  2.00

>  <Gold.PLP.Chemscore.Internal.Correction>  (205) 
0.9155

>  <Gold.PLP.Constraint>  (205) 
-0.0000

>  <Gold.Protein.RotatedTorsions>  (205) 
[  681  677  676  673 ] final -112.20 input -179.99 | X-H torsion
[  702  698  697  694 ] final -105.28 input  179.99 | X-H torsion
[ 2577 2569 2568 2566 ] final   20.56 input   -0.13 | X-H torsion
[ 2891 2887 2886 2883 ] final   19.32 input  179.98 | X-H torsion
[ 3175 3171 3170 3167 ] final  -34.83 input -179.99 | X-H torsion
[ 5278 5270 5269 5267 ] final  -29.62 input    0.55 | X-H torsion
[  641  637  636  633 ] final  113.43 input  179.99 | X-H torsion
[ 1886 1878 1877 1875 ] final -137.03 input    1.60 | X-H torsion
[  965  957  956  954 ] final  131.34 input    0.45 | X-H torsion

>  <Gold.Protein.ActiveResidues>  (205) 
 LYS47   THR48   LEU49   GLY50   THR51   GLY52   SER53   PHE54   GLY55   ARG56  
 VAL57   MET58   LEU59   TYR69   ALA70   MET71   LYS72   ILE73   LEU74   GLU91  
 LEU95   VAL104  LYS105  MET118  VAL119  MET120  GLU121  TYR122  VAL123  PRO124 
 GLY125  GLY126  GLU127  MET128  PHE129  TYR164  ASP166  LEU167  LYS168  PRO169 
 GLU170  ASN171  LEU172  LEU173  ILE174  GLN181  VAL182  THR183  ASP184  PHE185 
 GLY186  PHE187  GLY200  THR201  ASN326  PHE327  TYR330  ARG18   ARG19   ASN20  
 ALA21   ILE22   HIS23  

>  <Gold.Protein.RotatedAtoms>  (205) 
   10.6861   19.7331    8.8445 H   0  0  0  0  0  0  0  0  0  0  0  0  # atno 641  bound_to 637 
   16.0927   13.7476    7.4180 H   0  0  0  0  0  0  0  0  0  0  0  0  # atno 681  bound_to 677 
   20.8948   11.5754   -0.5448 H   0  0  0  0  0  0  0  0  0  0  0  0  # atno 702  bound_to 698 
   -7.1338   16.6701   -0.0634 H   0  0  0  0  0  0  0  0  0  0  0  0  # atno 965  bound_to 957 
    0.7343   10.9107   10.9075 H   0  0  0  0  0  0  0  0  0  0  0  0  # atno 1886 bound_to 1878
    9.5094    3.1004   -3.2714 H   0  0  0  0  0  0  0  0  0  0  0  0  # atno 2577 bound_to 2569
    8.2268    5.6728    0.2493 H   0  0  0  0  0  0  0  0  0  0  0  0  # atno 2891 bound_to 2887
   19.3483    2.9711   -0.7776 H   0  0  0  0  0  0  0  0  0  0  0  0  # atno 3175 bound_to 3171
   12.8908    9.8689   10.2221 H   0  0  0  0  0  0  0  0  0  0  0  0  # atno 5278 bound_to 5270
   17.2982   13.4649    6.4165 LP  0  0  0  0  0  0  0  0  0  0  0  0  # atno 5914 bound_to 677 
   15.9379   12.5629    6.3650 LP  0  0  0  0  0  0  0  0  0  0  0  0  # atno 5915 bound_to 677 
   20.4132   11.6732   -2.0600 LP  0  0  0  0  0  0  0  0  0  0  0  0  # atno 5920 bound_to 698 
   19.3500   11.8379   -0.8315 LP  0  0  0  0  0  0  0  0  0  0  0  0  # atno 5921 bound_to 698 
   11.0699    2.9201   -3.0115 LP  0  0  0  0  0  0  0  0  0  0  0  0  # atno 5950 bound_to 2569
    9.9881    1.8796   -2.3682 LP  0  0  0  0  0  0  0  0  0  0  0  0  # atno 5951 bound_to 2569
    7.1867    5.5437    1.4485 LP  0  0  0  0  0  0  0  0  0  0  0  0  # atno 5982 bound_to 2887
    7.8298    6.9909    1.0503 LP  0  0  0  0  0  0  0  0  0  0  0  0  # atno 5983 bound_to 2887
   18.4069    2.4493    0.3959 LP  0  0  0  0  0  0  0  0  0  0  0  0  # atno 6000 bound_to 3171
   18.1189    2.0327   -1.1565 LP  0  0  0  0  0  0  0  0  0  0  0  0  # atno 6001 bound_to 3171
   14.4387    9.9578    9.8575 LP  0  0  0  0  0  0  0  0  0  0  0  0  # atno 6004 bound_to 5270
   13.2948   10.2256    8.7233 LP  0  0  0  0  0  0  0  0  0  0  0  0  # atno 6005 bound_to 5270
    9.5641   19.2849    7.8076 LP  0  0  0  0  0  0  0  0  0  0  0  0  # atno 6055 bound_to 637 
   11.1461   19.0343    7.4899 LP  0  0  0  0  0  0  0  0  0  0  0  0  # atno 6056 bound_to 637 
    1.4112   12.3515   10.8737 LP  0  0  0  0  0  0  0  0  0  0  0  0  # atno 6063 bound_to 1878
    2.2011   11.0415   10.3021 LP  0  0  0  0  0  0  0  0  0  0  0  0  # atno 6064 bound_to 1878
   -6.8048   15.3277   -0.8539 LP  0  0  0  0  0  0  0  0  0  0  0  0  # atno 6067 bound_to 957 
   -6.4900   16.7874   -1.5149 LP  0  0  0  0  0  0  0  0  0  0  0  0  # atno 6068 bound_to 957 

>  <STRIFE_LigEff_Score>  (205) 
2.5555375

$$$$
unknown|pharmsElabsTestPreDocking|sdf|206|dock10
     RDKit          3D

 18 19  0  0  0  0  0  0  0  0999 V2000
    4.5103    9.2015    1.6470 C   0  0  0  0  0  0  0  0  0  0  0  0
    4.4035    9.3958    3.1254 C   0  0  0  0  0  0  0  0  0  0  0  0
    3.3346    9.9587    3.7911 C   0  0  0  0  0  0  0  0  0  0  0  0
    3.6544   10.0738    5.0925 N   0  0  0  0  0  0  0  0  0  0  0  0
    4.8768    9.6107    5.2982 N   0  0  0  0  0  0  0  0  0  0  0  0
    5.3481    9.1682    4.1174 C   0  0  0  0  0  0  0  0  0  0  0  0
    6.6904    8.6935    3.9567 N   0  0  0  0  0  0  0  0  0  0  0  0
    7.6478    9.2386    3.0421 C   0  0  0  0  0  0  0  0  0  0  0  0
    7.2828   10.0288    2.1267 O   0  0  0  0  0  0  0  0  0  0  0  0
    9.1000    8.8456    3.1669 C   0  0  0  0  0  0  0  0  0  0  0  0
    9.5254    8.0660    1.9277 C   0  0  0  0  0  0  0  0  0  0  0  0
   10.9443    7.5367    2.0296 C   0  0  0  0  0  0  0  0  0  0  0  0
   11.9521    8.4981    2.6875 C   0  0  0  0  0  0  0  0  0  0  0  0
   13.4475    8.3329    2.2398 C   0  0  0  0  0  0  0  0  0  0  0  0
   14.4544    7.9900    3.3481 C   0  0  0  0  0  0  0  0  0  0  0  0
   13.5934    7.3970    1.1191 N   0  0  0  0  0  0  0  0  0  0  0  0
   11.4806    9.8784    3.1916 C   0  0  0  0  0  0  0  0  0  0  0  0
    9.9630   10.1000    3.3415 C   0  0  0  0  0  0  0  0  0  0  0  0
  1  2  1  0
  2  3  2  0
  3  4  1  0
  4  5  1  0
  5  6  2  0
  6  7  1  0
  7  8  1  0
  8  9  2  0
  8 10  1  0
 10 11  1  0
 11 12  1  0
 12 13  1  0
 13 14  1  0
 14 15  1  0
 14 16  1  0
 13 17  1  0
 17 18  1  0
  6  2  1  0
 18 10  1  0
M  CHG  1  16   1
M  END
>  <EmbedRMS>  (206) 
0.16376755241934868

>  <Gold.Version>  (206) 
2020.3.0

>  <Gold.Id.Protein>  (206) 
unknown|1q8t_protein|pdb

>  <Gold.PLP.Fitness>  (206) 
47.4023

>  <Gold.PLP.PLP>  (206) 
-38.1208

>  <Gold.PLP.part.hbond>  (206) 
-2.0000

>  <Gold.PLP.part.metal>  (206) 
0.0000

>  <Gold.PLP.part.buried>  (206) 
-5.6054

>  <Gold.PLP.part.nonpolar>  (206) 
-31.0368

>  <Gold.PLP.part.repulsive>  (206) 
0.1610

>  <Gold.PLP.ligand.clash>  (206) 
0.0000

>  <Gold.PLP.ligand.torsion>  (206) 
1.6429

>  <Gold.PLP.Chemscore.Hbond>  (206) 
3.0000

>  <Gold.PLP.Chemscore.CHOScore>  (206) 
0.9969

>  <Gold.PLP.Chemscore.Metal>  (206) 
0.0000

>  <Gold.Chemscore.Hbonds>  (206) 
donor molecule, donor type, donor heavy atom, donor atom, acceptor molecule, acceptor atom, score
      L1  H    16    35       P1  2902  2.00
      L1  H    16    37       P1  2691  1.00
      L1  C     3    22       P1  1855  1.00

>  <Gold.PLP.Chemscore.Internal.Correction>  (206) 
0.5765

>  <Gold.PLP.Constraint>  (206) 
-0.0000

>  <Gold.Protein.RotatedTorsions>  (206) 
[  681  677  676  673 ] final  105.96 input -179.99 | X-H torsion
[  702  698  697  694 ] final  118.25 input  179.99 | X-H torsion
[ 2577 2569 2568 2566 ] final -175.80 input   -0.13 | X-H torsion
[ 2891 2887 2886 2883 ] final  -98.14 input  179.98 | X-H torsion
[ 3175 3171 3170 3167 ] final -135.90 input -179.99 | X-H torsion
[ 5278 5270 5269 5267 ] final  167.58 input    0.55 | X-H torsion
[  641  637  636  633 ] final  -44.89 input  179.99 | X-H torsion
[ 1886 1878 1877 1875 ] final -131.71 input    1.60 | X-H torsion
[  965  957  956  954 ] final -156.26 input    0.45 | X-H torsion

>  <Gold.Protein.ActiveResidues>  (206) 
 LYS47   THR48   LEU49   GLY50   THR51   GLY52   SER53   PHE54   GLY55   ARG56  
 VAL57   MET58   LEU59   TYR69   ALA70   MET71   LYS72   ILE73   LEU74   GLU91  
 LEU95   VAL104  LYS105  MET118  VAL119  MET120  GLU121  TYR122  VAL123  PRO124 
 GLY125  GLY126  GLU127  MET128  PHE129  TYR164  ASP166  LEU167  LYS168  PRO169 
 GLU170  ASN171  LEU172  LEU173  ILE174  GLN181  VAL182  THR183  ASP184  PHE185 
 GLY186  PHE187  GLY200  THR201  ASN326  PHE327  TYR330  ARG18   ARG19   ASN20  
 ALA21   ILE22   HIS23  

>  <Gold.Protein.RotatedAtoms>  (206) 
    9.9464   19.0404    7.4071 H   0  0  0  0  0  0  0  0  0  0  0  0  # atno 641  bound_to 637 
   17.1607   13.2071    6.2205 H   0  0  0  0  0  0  0  0  0  0  0  0  # atno 681  bound_to 677 
   20.1546   11.7352   -2.0273 H   0  0  0  0  0  0  0  0  0  0  0  0  # atno 702  bound_to 698 
   -6.7402   17.1529   -0.9181 H   0  0  0  0  0  0  0  0  0  0  0  0  # atno 965  bound_to 957 
    0.7774   10.8463   10.8775 H   0  0  0  0  0  0  0  0  0  0  0  0  # atno 1886 bound_to 1878
   10.6524    2.0282   -2.4431 H   0  0  0  0  0  0  0  0  0  0  0  0  # atno 2577 bound_to 2569
    7.2141    5.5399    1.3904 H   0  0  0  0  0  0  0  0  0  0  0  0  # atno 2891 bound_to 2887
   18.6637    2.6142    0.3698 H   0  0  0  0  0  0  0  0  0  0  0  0  # atno 3175 bound_to 3171
   14.3266   10.1317    9.2175 H   0  0  0  0  0  0  0  0  0  0  0  0  # atno 5278 bound_to 5270
   15.7125   12.6770    6.6177 LP  0  0  0  0  0  0  0  0  0  0  0  0  # atno 5914 bound_to 677 
   16.3995   13.9197    7.4242 LP  0  0  0  0  0  0  0  0  0  0  0  0  # atno 5915 bound_to 677 
   19.4701   11.8120   -0.5910 LP  0  0  0  0  0  0  0  0  0  0  0  0  # atno 5920 bound_to 698 
   21.0717   11.5310   -0.7410 LP  0  0  0  0  0  0  0  0  0  0  0  0  # atno 5921 bound_to 698 
    9.2365    2.5847   -2.9129 LP  0  0  0  0  0  0  0  0  0  0  0  0  # atno 5950 bound_to 2569
   10.6179    3.3441   -3.3389 LP  0  0  0  0  0  0  0  0  0  0  0  0  # atno 5951 bound_to 2569
    7.8023    6.9873    1.0813 LP  0  0  0  0  0  0  0  0  0  0  0  0  # atno 5982 bound_to 2887
    8.2801    5.6872    0.2164 LP  0  0  0  0  0  0  0  0  0  0  0  0  # atno 5983 bound_to 2887
   17.9654    1.9526   -0.8992 LP  0  0  0  0  0  0  0  0  0  0  0  0  # atno 6000 bound_to 3171
   19.2811    2.9049   -1.0689 LP  0  0  0  0  0  0  0  0  0  0  0  0  # atno 6001 bound_to 3171
   12.7373   10.1236    9.1133 LP  0  0  0  0  0  0  0  0  0  0  0  0  # atno 6004 bound_to 5270
   13.4855    9.7834   10.5244 LP  0  0  0  0  0  0  0  0  0  0  0  0  # atno 6005 bound_to 5270
   11.4065   19.2780    7.9958 LP  0  0  0  0  0  0  0  0  0  0  0  0  # atno 6055 bound_to 637 
   10.0828   19.7705    8.8155 LP  0  0  0  0  0  0  0  0  0  0  0  0  # atno 6056 bound_to 637 
    1.3313   12.3389   10.9068 LP  0  0  0  0  0  0  0  0  0  0  0  0  # atno 6063 bound_to 1878
    2.2357   11.1218   10.3005 LP  0  0  0  0  0  0  0  0  0  0  0  0  # atno 6064 bound_to 1878
   -7.1877   15.9316    0.0001 LP  0  0  0  0  0  0  0  0  0  0  0  0  # atno 6067 bound_to 957 
   -6.5217   15.6750   -1.4687 LP  0  0  0  0  0  0  0  0  0  0  0  0  # atno 6068 bound_to 957 

>  <STRIFE_LigEff_Score>  (206) 
2.633461111111111

$$$$
unknown|pharmsElabsTestPreDocking|sdf|207|dock1
     RDKit          3D

 18 19  0  0  0  0  0  0  0  0999 V2000
   14.8381    7.7389    3.3843 C   0  0  0  0  0  0  0  0  0  0  0  0
   13.8939    8.1741    2.2535 C   0  0  0  0  0  0  0  0  0  0  0  0
   14.0351    7.2735    1.1038 N   0  0  0  0  0  0  0  0  0  0  0  0
   12.3931    8.4002    2.6511 C   0  0  0  0  0  0  0  0  0  0  0  0
   11.3847    7.4017    2.0531 C   0  0  0  0  0  0  0  0  0  0  0  0
    9.9823    7.9461    1.8671 C   0  0  0  0  0  0  0  0  0  0  0  0
    9.5397    8.8298    3.0283 C   0  0  0  0  0  0  0  0  0  0  0  0
    8.1043    9.2360    2.8198 C   0  0  0  0  0  0  0  0  0  0  0  0
    7.7939    9.8753    1.7789 O   0  0  0  0  0  0  0  0  0  0  0  0
    7.1262    8.9152    3.8206 N   0  0  0  0  0  0  0  0  0  0  0  0
    5.7143    9.2049    3.7819 C   0  0  0  0  0  0  0  0  0  0  0  0
    5.0738    9.5659    4.9770 C   0  0  0  0  0  0  0  0  0  0  0  0
    3.7118    9.8608    4.9878 C   0  0  0  0  0  0  0  0  0  0  0  0
    2.9894    9.7940    3.7985 C   0  0  0  0  0  0  0  0  0  0  0  0
    3.6117    9.4445    2.6456 N   0  0  0  0  0  0  0  0  0  0  0  0
    4.9354    9.1519    2.6044 C   0  0  0  0  0  0  0  0  0  0  0  0
   10.4199   10.0810    3.1274 C   0  0  0  0  0  0  0  0  0  0  0  0
   11.9354    9.8264    3.0214 C   0  0  0  0  0  0  0  0  0  0  0  0
  1  2  1  0
  2  3  1  0
  2  4  1  0
  4  5  1  0
  5  6  1  0
  6  7  1  0
  7  8  1  0
  8  9  2  0
  8 10  1  0
 10 11  1  0
 11 12  2  0
 12 13  1  0
 13 14  2  0
 14 15  1  0
 15 16  2  0
  7 17  1  0
 17 18  1  0
 18  4  1  0
 16 11  1  0
M  CHG  1   3   1
M  END
>  <EmbedRMS>  (207) 
0.16496192233382964

>  <Gold.Version>  (207) 
2020.3.0

>  <Gold.Id.Protein>  (207) 
unknown|1q8t_protein|pdb

>  <Gold.PLP.Fitness>  (207) 
52.0755

>  <Gold.PLP.PLP>  (207) 
-42.6249

>  <Gold.PLP.part.hbond>  (207) 
-2.0000

>  <Gold.PLP.part.metal>  (207) 
0.0000

>  <Gold.PLP.part.buried>  (207) 
-2.6657

>  <Gold.PLP.part.nonpolar>  (207) 
-37.7998

>  <Gold.PLP.part.repulsive>  (207) 
0.1312

>  <Gold.PLP.ligand.clash>  (207) 
0.0000

>  <Gold.PLP.ligand.torsion>  (207) 
1.4874

>  <Gold.PLP.Chemscore.Hbond>  (207) 
3.0000

>  <Gold.PLP.Chemscore.CHOScore>  (207) 
0.9486

>  <Gold.PLP.Chemscore.Metal>  (207) 
0.0000

>  <Gold.Chemscore.Hbonds>  (207) 
donor molecule, donor type, donor heavy atom, donor atom, acceptor molecule, acceptor atom, score
      L1  H     3    23       P1  2902  2.00
      L1  H     3    24       P1  2691  1.00
      L1  C    14    35       P1  1855  0.95

>  <Gold.PLP.Chemscore.Internal.Correction>  (207) 
0.5795

>  <Gold.PLP.Constraint>  (207) 
-0.0000

>  <Gold.Protein.RotatedTorsions>  (207) 
[  681  677  676  673 ] final   -2.65 input -179.99 | X-H torsion
[  702  698  697  694 ] final  -24.24 input  179.99 | X-H torsion
[ 2577 2569 2568 2566 ] final  -86.30 input   -0.13 | X-H torsion
[ 2891 2887 2886 2883 ] final    7.48 input  179.98 | X-H torsion
[ 3175 3171 3170 3167 ] final    4.92 input -179.99 | X-H torsion
[ 5278 5270 5269 5267 ] final  -46.32 input    0.55 | X-H torsion
[  641  637  636  633 ] final   82.75 input  179.99 | X-H torsion
[ 1886 1878 1877 1875 ] final -150.31 input    1.60 | X-H torsion
[  965  957  956  954 ] final   72.19 input    0.45 | X-H torsion

>  <Gold.Protein.ActiveResidues>  (207) 
 LYS47   THR48   LEU49   GLY50   THR51   GLY52   SER53   PHE54   GLY55   ARG56  
 VAL57   MET58   LEU59   TYR69   ALA70   MET71   LYS72   ILE73   LEU74   GLU91  
 LEU95   VAL104  LYS105  MET118  VAL119  MET120  GLU121  TYR122  VAL123  PRO124 
 GLY125  GLY126  GLU127  MET128  PHE129  TYR164  ASP166  LEU167  LYS168  PRO169 
 GLU170  ASN171  LEU172  LEU173  ILE174  GLN181  VAL182  THR183  ASP184  PHE185 
 GLY186  PHE187  GLY200  THR201  ASN326  PHE327  TYR330  ARG18   ARG19   ASN20  
 ALA21   ILE22   HIS23  

>  <Gold.Protein.RotatedAtoms>  (207) 
   10.2130   19.7492    8.8244 H   0  0  0  0  0  0  0  0  0  0  0  0  # atno 641  bound_to 637 
   15.8430   12.6492    6.4837 H   0  0  0  0  0  0  0  0  0  0  0  0  # atno 681  bound_to 677 
   19.7594   11.7734   -0.3771 H   0  0  0  0  0  0  0  0  0  0  0  0  # atno 702  bound_to 698 
   -7.1220   15.7876   -0.1078 H   0  0  0  0  0  0  0  0  0  0  0  0  # atno 965  bound_to 957 
    0.6534   11.0896   10.9736 H   0  0  0  0  0  0  0  0  0  0  0  0  # atno 1886 bound_to 1878
   10.9396    3.0464   -3.1291 H   0  0  0  0  0  0  0  0  0  0  0  0  # atno 2577 bound_to 2569
    8.1442    5.5183    0.3079 H   0  0  0  0  0  0  0  0  0  0  0  0  # atno 2891 bound_to 2887
   19.0845    2.7123   -1.2616 H   0  0  0  0  0  0  0  0  0  0  0  0  # atno 3175 bound_to 3171
   13.0982    9.8333   10.3753 H   0  0  0  0  0  0  0  0  0  0  0  0  # atno 5278 bound_to 5270
   16.2300   13.8479    7.4580 LP  0  0  0  0  0  0  0  0  0  0  0  0  # atno 5914 bound_to 677 
   17.2689   13.3360    6.3068 LP  0  0  0  0  0  0  0  0  0  0  0  0  # atno 5915 bound_to 677 
   21.1573   11.5227   -1.0985 LP  0  0  0  0  0  0  0  0  0  0  0  0  # atno 5920 bound_to 698 
   19.8002   11.7801   -1.9695 LP  0  0  0  0  0  0  0  0  0  0  0  0  # atno 5921 bound_to 698 
   10.2027    1.8715   -2.3469 LP  0  0  0  0  0  0  0  0  0  0  0  0  # atno 5950 bound_to 2569
    9.3494    2.9851   -3.1827 LP  0  0  0  0  0  0  0  0  0  0  0  0  # atno 5951 bound_to 2569
    7.1475    5.7135    1.5346 LP  0  0  0  0  0  0  0  0  0  0  0  0  # atno 5982 bound_to 2887
    7.9560    6.9837    0.9024 LP  0  0  0  0  0  0  0  0  0  0  0  0  # atno 5983 bound_to 2887
   18.9231    2.8215    0.3188 LP  0  0  0  0  0  0  0  0  0  0  0  0  # atno 6000 bound_to 3171
   17.8805    1.9328   -0.5700 LP  0  0  0  0  0  0  0  0  0  0  0  0  # atno 6001 bound_to 3171
   14.4729   10.0232    9.5937 LP  0  0  0  0  0  0  0  0  0  0  0  0  # atno 6004 bound_to 5270
   13.0424   10.1977    8.8258 LP  0  0  0  0  0  0  0  0  0  0  0  0  # atno 6005 bound_to 5270
    9.8228   19.0795    7.4337 LP  0  0  0  0  0  0  0  0  0  0  0  0  # atno 6055 bound_to 637 
   11.3856   19.2226    7.8850 LP  0  0  0  0  0  0  0  0  0  0  0  0  # atno 6056 bound_to 637 
    1.6106   12.3480   10.7852 LP  0  0  0  0  0  0  0  0  0  0  0  0  # atno 6063 bound_to 1878
    2.0869   10.8566   10.3209 LP  0  0  0  0  0  0  0  0  0  0  0  0  # atno 6064 bound_to 1878
   -6.4773   15.8338   -1.5629 LP  0  0  0  0  0  0  0  0  0  0  0  0  # atno 6067 bound_to 957 
   -6.8300   17.2108   -0.7591 LP  0  0  0  0  0  0  0  0  0  0  0  0  # atno 6068 bound_to 957 

>  <STRIFE_LigEff_Score>  (207) 
2.8930833333333332

$$$$
unknown|pharmsElabsTestPreDocking|sdf|208|dock2
     RDKit          3D

 19 20  0  0  0  0  0  0  0  0999 V2000
    6.3111   10.1006    5.9003 C   0  0  0  0  0  0  0  0  0  0  0  0
    5.4658    9.7606    4.7055 C   0  0  0  0  0  0  0  0  0  0  0  0
    4.0885   10.0531    4.7546 C   0  0  0  0  0  0  0  0  0  0  0  0
    3.2573    9.7624    3.6765 C   0  0  0  0  0  0  0  0  0  0  0  0
    3.7857    9.1897    2.5320 C   0  0  0  0  0  0  0  0  0  0  0  0
    5.1440    8.9114    2.4527 C   0  0  0  0  0  0  0  0  0  0  0  0
    6.0279    9.1700    3.5383 C   0  0  0  0  0  0  0  0  0  0  0  0
    7.4615    8.8752    3.4655 N   0  0  0  0  0  0  0  0  0  0  0  0
    8.2906    9.0908    2.2971 C   0  0  0  0  0  0  0  0  0  0  0  0
    7.7791    9.4287    1.2090 O   0  0  0  0  0  0  0  0  0  0  0  0
    9.7762    8.9188    2.2146 C   0  0  0  0  0  0  0  0  0  0  0  0
   10.1963    7.5229    1.7802 C   0  0  0  0  0  0  0  0  0  0  0  0
   11.6900    7.2565    1.9077 C   0  0  0  0  0  0  0  0  0  0  0  0
   12.5541    8.5254    1.7924 C   0  0  0  0  0  0  0  0  0  0  0  0
   14.0639    8.1174    1.8247 C   0  0  0  0  0  0  0  0  0  0  0  0
   14.4513    7.5952    3.2202 C   0  0  0  0  0  0  0  0  0  0  0  0
   14.3920    7.0977    0.8191 N   0  0  0  0  0  0  0  0  0  0  0  0
   12.1701    9.5058    2.9317 C   0  0  0  0  0  0  0  0  0  0  0  0
   10.6580    9.7775    3.0955 C   0  0  0  0  0  0  0  0  0  0  0  0
  1  2  1  0
  2  3  2  0
  3  4  1  0
  4  5  2  0
  5  6  1  0
  6  7  2  0
  7  8  1  0
  8  9  1  0
  9 10  2  0
  9 11  1  0
 11 12  1  0
 12 13  1  0
 13 14  1  0
 14 15  1  0
 15 16  1  0
 15 17  1  0
 14 18  1  0
 18 19  1  0
  7  2  1  0
 19 11  1  0
M  CHG  1  17   1
M  END
>  <EmbedRMS>  (208) 
0.17064538222927092

>  <Gold.Version>  (208) 
2020.3.0

>  <Gold.Id.Protein>  (208) 
unknown|1q8t_protein|pdb

>  <Gold.PLP.Fitness>  (208) 
57.2895

>  <Gold.PLP.PLP>  (208) 
-49.1051

>  <Gold.PLP.part.hbond>  (208) 
-2.1124

>  <Gold.PLP.part.metal>  (208) 
0.0000

>  <Gold.PLP.part.buried>  (208) 
-1.4505

>  <Gold.PLP.part.nonpolar>  (208) 
-45.3879

>  <Gold.PLP.part.repulsive>  (208) 
0.0757

>  <Gold.PLP.ligand.clash>  (208) 
0.0000

>  <Gold.PLP.ligand.torsion>  (208) 
0.7349

>  <Gold.PLP.Chemscore.Hbond>  (208) 
3.0000

>  <Gold.PLP.Chemscore.CHOScore>  (208) 
0.0000

>  <Gold.PLP.Chemscore.Metal>  (208) 
0.0000

>  <Gold.Chemscore.Hbonds>  (208) 
donor molecule, donor type, donor heavy atom, donor atom, acceptor molecule, acceptor atom, score
      L1  H    17    38       P1  2902  2.00
      L1  H    17    40       P1  2691  1.00

>  <Gold.PLP.Chemscore.Internal.Correction>  (208) 
0.6542

>  <Gold.PLP.Constraint>  (208) 
-0.0000

>  <Gold.Protein.RotatedTorsions>  (208) 
[  681  677  676  673 ] final  103.04 input -179.99 | X-H torsion
[  702  698  697  694 ] final  -52.91 input  179.99 | X-H torsion
[ 2577 2569 2568 2566 ] final  -55.43 input   -0.13 | X-H torsion
[ 2891 2887 2886 2883 ] final -111.92 input  179.98 | X-H torsion
[ 3175 3171 3170 3167 ] final  -62.85 input -179.99 | X-H torsion
[ 5278 5270 5269 5267 ] final    2.69 input    0.55 | X-H torsion
[  641  637  636  633 ] final  -31.78 input  179.99 | X-H torsion
[ 1886 1878 1877 1875 ] final   18.70 input    1.60 | X-H torsion
[  965  957  956  954 ] final -113.20 input    0.45 | X-H torsion

>  <Gold.Protein.ActiveResidues>  (208) 
 LYS47   THR48   LEU49   GLY50   THR51   GLY52   SER53   PHE54   GLY55   ARG56  
 VAL57   MET58   LEU59   TYR69   ALA70   MET71   LYS72   ILE73   LEU74   GLU91  
 LEU95   VAL104  LYS105  MET118  VAL119  MET120  GLU121  TYR122  VAL123  PRO124 
 GLY125  GLY126  GLU127  MET128  PHE129  TYR164  ASP166  LEU167  LYS168  PRO169 
 GLU170  ASN171  LEU172  LEU173  ILE174  GLN181  VAL182  THR183  ASP184  PHE185 
 GLY186  PHE187  GLY200  THR201  ASN326  PHE327  TYR330  ARG18   ARG19   ASN20  
 ALA21   ILE22   HIS23  

>  <Gold.Protein.RotatedAtoms>  (208) 
    9.7953   19.1097    7.5263 H   0  0  0  0  0  0  0  0  0  0  0  0  # atno 641  bound_to 637 
   17.1406   13.1725    6.1986 H   0  0  0  0  0  0  0  0  0  0  0  0  # atno 681  bound_to 677 
   20.1749   11.6971   -0.2407 H   0  0  0  0  0  0  0  0  0  0  0  0  # atno 702  bound_to 698 
   -6.5085   16.8188   -1.4343 H   0  0  0  0  0  0  0  0  0  0  0  0  # atno 965  bound_to 957 
    2.2462   11.6029   10.3590 H   0  0  0  0  0  0  0  0  0  0  0  0  # atno 1886 bound_to 1878
   10.5917    3.3015   -3.3317 H   0  0  0  0  0  0  0  0  0  0  0  0  # atno 2577 bound_to 2569
    7.1670    5.7249    1.4893 H   0  0  0  0  0  0  0  0  0  0  0  0  # atno 2891 bound_to 2887
   19.3400    3.0213   -0.3469 H   0  0  0  0  0  0  0  0  0  0  0  0  # atno 3175 bound_to 3171
   12.6543    9.9717    9.7953 H   0  0  0  0  0  0  0  0  0  0  0  0  # atno 5278 bound_to 5270
   15.6898   12.6991    6.6537 LP  0  0  0  0  0  0  0  0  0  0  0  0  # atno 5914 bound_to 677 
   16.4434   13.9340    7.4112 LP  0  0  0  0  0  0  0  0  0  0  0  0  # atno 5915 bound_to 677 
   21.0625   11.5483   -1.5550 LP  0  0  0  0  0  0  0  0  0  0  0  0  # atno 5920 bound_to 698 
   19.4580   11.8347   -1.6565 LP  0  0  0  0  0  0  0  0  0  0  0  0  # atno 5921 bound_to 698 
   10.6816    2.0084   -2.4069 LP  0  0  0  0  0  0  0  0  0  0  0  0  # atno 5950 bound_to 2569
    9.2367    2.5797   -2.9094 LP  0  0  0  0  0  0  0  0  0  0  0  0  # atno 5951 bound_to 2569
    7.9498    6.9850    0.9099 LP  0  0  0  0  0  0  0  0  0  0  0  0  # atno 5982 bound_to 2887
    8.1821    5.4948    0.2838 LP  0  0  0  0  0  0  0  0  0  0  0  0  # atno 5983 bound_to 2887
   18.0928    2.1897    0.1903 LP  0  0  0  0  0  0  0  0  0  0  0  0  # atno 6000 bound_to 3171
   18.4419    2.2395   -1.4042 LP  0  0  0  0  0  0  0  0  0  0  0  0  # atno 6001 bound_to 3171
   14.1632    9.8482   10.2902 LP  0  0  0  0  0  0  0  0  0  0  0  0  # atno 6004 bound_to 5270
   13.8192   10.2271    8.7395 LP  0  0  0  0  0  0  0  0  0  0  0  0  # atno 6005 bound_to 5270
   11.3607   19.1844    7.8074 LP  0  0  0  0  0  0  0  0  0  0  0  0  # atno 6055 bound_to 637 
   10.2876   19.7912    8.8784 LP  0  0  0  0  0  0  0  0  0  0  0  0  # atno 6056 bound_to 637 
    1.1089   10.5415   10.6983 LP  0  0  0  0  0  0  0  0  0  0  0  0  # atno 6063 bound_to 1878
    0.9118   12.1228   11.0549 LP  0  0  0  0  0  0  0  0  0  0  0  0  # atno 6064 bound_to 1878
   -7.1794   16.6234   -0.0036 LP  0  0  0  0  0  0  0  0  0  0  0  0  # atno 6067 bound_to 957 
   -6.7740   15.3350   -0.9214 LP  0  0  0  0  0  0  0  0  0  0  0  0  # atno 6068 bound_to 957 

>  <STRIFE_LigEff_Score>  (208) 
3.015236842105263

$$$$
unknown|pharmsElabsTestPreDocking|sdf|209|dock2
     RDKit          3D

 18 19  0  0  0  0  0  0  0  0999 V2000
   14.2089    8.8351    1.5750 C   0  0  0  0  0  0  0  0  0  0  0  0
   13.4863    7.9307    2.5587 C   0  0  0  0  0  0  0  0  0  0  0  0
   13.8942    6.5318    2.5309 N   0  0  0  0  0  0  0  0  0  0  0  0
   11.9787    8.2284    2.8049 C   0  0  0  0  0  0  0  0  0  0  0  0
   11.1917    7.3007    3.7479 C   0  0  0  0  0  0  0  0  0  0  0  0
    9.6940    7.4869    3.4559 C   0  0  0  0  0  0  0  0  0  0  0  0
    9.2755    8.9545    3.6649 C   0  0  0  0  0  0  0  0  0  0  0  0
    7.8295    9.1486    3.3112 C   0  0  0  0  0  0  0  0  0  0  0  0
    7.4918    9.3193    2.1080 O   0  0  0  0  0  0  0  0  0  0  0  0
    6.8593    9.1643    4.3646 N   0  0  0  0  0  0  0  0  0  0  0  0
    5.4474    9.3150    4.1918 C   0  0  0  0  0  0  0  0  0  0  0  0
    4.8132    9.2807    2.9696 C   0  0  0  0  0  0  0  0  0  0  0  0
    3.4896    9.4588    3.3058 C   0  0  0  0  0  0  0  0  0  0  0  0
    2.4058    9.5001    2.3843 N   0  0  0  0  0  0  0  0  0  0  0  0
    3.3398    9.5904    4.6365 N   0  0  0  0  0  0  0  0  0  0  0  0
    4.5422    9.5020    5.1759 N   0  0  0  0  0  0  0  0  0  0  0  0
   10.1540    9.9478    2.8805 C   0  0  0  0  0  0  0  0  0  0  0  0
   11.6475    9.6959    3.1278 C   0  0  0  0  0  0  0  0  0  0  0  0
  1  2  1  0
  2  3  1  0
  2  4  1  0
  4  5  1  0
  5  6  1  0
  6  7  1  0
  7  8  1  0
  8  9  2  0
  8 10  1  0
 10 11  1  0
 11 12  2  0
 12 13  1  0
 13 14  1  0
 13 15  2  0
 15 16  1  0
  7 17  1  0
 17 18  1  0
 18  4  1  0
 16 11  1  0
M  CHG  1   3   1
M  END
>  <EmbedRMS>  (209) 
0.18315233489621047

>  <Gold.Version>  (209) 
2020.3.0

>  <Gold.Id.Protein>  (209) 
unknown|1q8t_protein|pdb

>  <Gold.PLP.Fitness>  (209) 
41.0828

>  <Gold.PLP.PLP>  (209) 
-35.1451

>  <Gold.PLP.part.hbond>  (209) 
-1.7710

>  <Gold.PLP.part.metal>  (209) 
0.0000

>  <Gold.PLP.part.buried>  (209) 
-7.0188

>  <Gold.PLP.part.nonpolar>  (209) 
-27.2556

>  <Gold.PLP.part.repulsive>  (209) 
0.3655

>  <Gold.PLP.ligand.clash>  (209) 
0.0000

>  <Gold.PLP.ligand.torsion>  (209) 
0.7518

>  <Gold.PLP.Chemscore.Hbond>  (209) 
2.3501

>  <Gold.PLP.Chemscore.CHOScore>  (209) 
0.0000

>  <Gold.PLP.Chemscore.Metal>  (209) 
0.0000

>  <Gold.Chemscore.Hbonds>  (209) 
donor molecule, donor type, donor heavy atom, donor atom, acceptor molecule, acceptor atom, score
      L1  H     3    25       P1  2691  1.00
      L1  H    14    35       P1  1855  0.36
      P1  H  1888  1903       L1    15  0.99

>  <Gold.PLP.Chemscore.Internal.Correction>  (209) 
0.3911

>  <Gold.PLP.Constraint>  (209) 
-0.0000

>  <Gold.Protein.RotatedTorsions>  (209) 
[  681  677  676  673 ] final -176.98 input -179.99 | X-H torsion
[  702  698  697  694 ] final   59.82 input  179.99 | X-H torsion
[ 2577 2569 2568 2566 ] final   22.74 input   -0.13 | X-H torsion
[ 2891 2887 2886 2883 ] final  133.14 input  179.98 | X-H torsion
[ 3175 3171 3170 3167 ] final   41.44 input -179.99 | X-H torsion
[ 5278 5270 5269 5267 ] final   89.97 input    0.55 | X-H torsion
[  641  637  636  633 ] final -166.05 input  179.99 | X-H torsion
[ 1886 1878 1877 1875 ] final -105.19 input    1.60 | X-H torsion
[  965  957  956  954 ] final  -25.60 input    0.45 | X-H torsion

>  <Gold.Protein.ActiveResidues>  (209) 
 LYS47   THR48   LEU49   GLY50   THR51   GLY52   SER53   PHE54   GLY55   ARG56  
 VAL57   MET58   LEU59   TYR69   ALA70   MET71   LYS72   ILE73   LEU74   GLU91  
 LEU95   VAL104  LYS105  MET118  VAL119  MET120  GLU121  TYR122  VAL123  PRO124 
 GLY125  GLY126  GLU127  MET128  PHE129  TYR164  ASP166  LEU167  LYS168  PRO169 
 GLU170  ASN171  LEU172  LEU173  ILE174  GLN181  VAL182  THR183  ASP184  PHE185 
 GLY186  PHE187  GLY200  THR201  ASN326  PHE327  TYR330  ARG18   ARG19   ASN20  
 ALA21   ILE22   HIS23  

>  <Gold.Protein.RotatedAtoms>  (209) 
   11.3601   19.2757    8.0225 H   0  0  0  0  0  0  0  0  0  0  0  0  # atno 641  bound_to 637 
   16.9629   13.9233    7.0532 H   0  0  0  0  0  0  0  0  0  0  0  0  # atno 681  bound_to 677 
   19.4429   11.8518   -1.5320 H   0  0  0  0  0  0  0  0  0  0  0  0  # atno 702  bound_to 698 
   -6.5709   15.5860   -1.3229 H   0  0  0  0  0  0  0  0  0  0  0  0  # atno 965  bound_to 957 
    1.0678   10.6094   10.7091 H   0  0  0  0  0  0  0  0  0  0  0  0  # atno 1886 bound_to 1878
    9.4873    3.0784   -3.2577 H   0  0  0  0  0  0  0  0  0  0  0  0  # atno 2577 bound_to 2569
    7.8774    6.9483    0.9596 H   0  0  0  0  0  0  0  0  0  0  0  0  # atno 2891 bound_to 2887
   18.6577    2.3773   -1.4053 H   0  0  0  0  0  0  0  0  0  0  0  0  # atno 3175 bound_to 3171
   13.3000   10.2307    8.7728 H   0  0  0  0  0  0  0  0  0  0  0  0  # atno 5278 bound_to 5270
   16.7301   12.7229    6.0329 LP  0  0  0  0  0  0  0  0  0  0  0  0  # atno 5914 bound_to 677 
   15.5902   13.1199    7.1326 LP  0  0  0  0  0  0  0  0  0  0  0  0  # atno 5915 bound_to 677 
   20.2867   11.6596   -0.1947 LP  0  0  0  0  0  0  0  0  0  0  0  0  # atno 5920 bound_to 698 
   21.0038   11.5607   -1.6584 LP  0  0  0  0  0  0  0  0  0  0  0  0  # atno 5921 bound_to 698 
   11.0579    2.9475   -3.0313 LP  0  0  0  0  0  0  0  0  0  0  0  0  # atno 5950 bound_to 2569
   10.0233    1.8755   -2.3628 LP  0  0  0  0  0  0  0  0  0  0  0  0  # atno 5951 bound_to 2569
    8.2213    5.5622    0.2546 LP  0  0  0  0  0  0  0  0  0  0  0  0  # atno 5982 bound_to 2887
    7.1631    5.6300    1.4965 LP  0  0  0  0  0  0  0  0  0  0  0  0  # atno 5983 bound_to 2887
   19.2843    3.0346   -0.0973 LP  0  0  0  0  0  0  0  0  0  0  0  0  # atno 6000 bound_to 3171
   17.9684    2.0723   -0.0026 LP  0  0  0  0  0  0  0  0  0  0  0  0  # atno 6001 bound_to 3171
   12.8624    9.8435   10.2545 LP  0  0  0  0  0  0  0  0  0  0  0  0  # atno 6004 bound_to 5270
   14.4405    9.9594    9.8511 LP  0  0  0  0  0  0  0  0  0  0  0  0  # atno 6005 bound_to 5270
   10.0654   19.7676    8.8079 LP  0  0  0  0  0  0  0  0  0  0  0  0  # atno 6055 bound_to 637 
    9.9350   19.0332    7.3552 LP  0  0  0  0  0  0  0  0  0  0  0  0  # atno 6056 bound_to 637 
    0.9595   12.1630   11.0407 LP  0  0  0  0  0  0  0  0  0  0  0  0  # atno 6063 bound_to 1878
    2.3018   11.5471   10.3439 LP  0  0  0  0  0  0  0  0  0  0  0  0  # atno 6064 bound_to 1878
   -6.6817   17.1566   -1.0860 LP  0  0  0  0  0  0  0  0  0  0  0  0  # atno 6067 bound_to 957 
   -7.2059   16.1003    0.0437 LP  0  0  0  0  0  0  0  0  0  0  0  0  # atno 6068 bound_to 957 

>  <STRIFE_LigEff_Score>  (209) 
2.2823777777777776

$$$$
unknown|pharmsElabsTestPreDocking|sdf|210|dock10
     RDKit          3D

 15 15  0  0  0  0  0  0  0  0999 V2000
   14.3787    9.2869    1.4930 C   0  0  0  0  0  0  0  0  0  0  0  0
   13.4503    8.1034    1.7051 C   0  0  0  0  0  0  0  0  0  0  0  0
   13.6754    6.9706    0.8163 N   0  0  0  0  0  0  0  0  0  0  0  0
   11.9765    8.4296    2.0846 C   0  0  0  0  0  0  0  0  0  0  0  0
   11.0464    7.2698    2.4839 C   0  0  0  0  0  0  0  0  0  0  0  0
    9.5939    7.7525    2.3347 C   0  0  0  0  0  0  0  0  0  0  0  0
    9.3354    8.9848    3.2205 C   0  0  0  0  0  0  0  0  0  0  0  0
    7.9341    9.4949    3.0306 C   0  0  0  0  0  0  0  0  0  0  0  0
    7.5792   10.0225    1.9387 O   0  0  0  0  0  0  0  0  0  0  0  0
    7.0124    9.3890    4.1150 N   0  0  0  0  0  0  0  0  0  0  0  0
    5.6340    9.8505    4.0067 C   0  0  0  0  0  0  0  0  0  0  0  0
    4.9159    9.7165    5.3521 C   0  0  0  0  0  0  0  0  0  0  0  0
    3.6056    9.0840    5.1931 N   0  0  0  0  0  0  0  0  0  0  0  0
   10.3557   10.1162    2.9918 C   0  0  0  0  0  0  0  0  0  0  0  0
   11.7988    9.5980    3.0702 C   0  0  0  0  0  0  0  0  0  0  0  0
  1  2  1  0
  2  3  1  0
  2  4  1  0
  4  5  1  0
  5  6  1  0
  6  7  1  0
  7  8  1  0
  8  9  2  0
  8 10  1  0
 10 11  1  0
 11 12  1  0
 12 13  1  0
  7 14  1  0
 14 15  1  0
 15  4  1  0
M  CHG  2   3   1  13   1
M  END
>  <EmbedRMS>  (210) 
0.20020147470283797

>  <Gold.Version>  (210) 
2020.3.0

>  <Gold.Id.Protein>  (210) 
unknown|1q8t_protein|pdb

>  <Gold.PLP.Fitness>  (210) 
40.3989

>  <Gold.PLP.PLP>  (210) 
-29.2735

>  <Gold.PLP.part.hbond>  (210) 
-2.8764

>  <Gold.PLP.part.metal>  (210) 
0.0000

>  <Gold.PLP.part.buried>  (210) 
-3.7560

>  <Gold.PLP.part.nonpolar>  (210) 
-23.4502

>  <Gold.PLP.part.repulsive>  (210) 
0.1668

>  <Gold.PLP.ligand.clash>  (210) 
0.0000

>  <Gold.PLP.ligand.torsion>  (210) 
0.5765

>  <Gold.PLP.Chemscore.Hbond>  (210) 
3.9673

>  <Gold.PLP.Chemscore.CHOScore>  (210) 
0.0000

>  <Gold.PLP.Chemscore.Metal>  (210) 
0.0000

>  <Gold.Chemscore.Hbonds>  (210) 
donor molecule, donor type, donor heavy atom, donor atom, acceptor molecule, acceptor atom, score
      L1  H     3    20       P1  2691  0.98
      L1  H     3    21       P1  2902  2.00
      L1  H    13    36       P1  1891  0.99

>  <Gold.PLP.Chemscore.Internal.Correction>  (210) 
0.3767

>  <Gold.PLP.Constraint>  (210) 
-0.0000

>  <Gold.Protein.RotatedTorsions>  (210) 
[  681  677  676  673 ] final  -70.21 input -179.99 | X-H torsion
[  702  698  697  694 ] final  107.73 input  179.99 | X-H torsion
[ 2577 2569 2568 2566 ] final  152.53 input   -0.13 | X-H torsion
[ 2891 2887 2886 2883 ] final  130.23 input  179.98 | X-H torsion
[ 3175 3171 3170 3167 ] final  -64.20 input -179.99 | X-H torsion
[ 5278 5270 5269 5267 ] final   30.15 input    0.55 | X-H torsion
[  641  637  636  633 ] final  150.22 input  179.99 | X-H torsion
[ 1886 1878 1877 1875 ] final  155.04 input    1.60 | X-H torsion
[  965  957  956  954 ] final  -64.39 input    0.45 | X-H torsion

>  <Gold.Protein.ActiveResidues>  (210) 
 LYS47   THR48   LEU49   GLY50   THR51   GLY52   SER53   PHE54   GLY55   ARG56  
 VAL57   MET58   LEU59   TYR69   ALA70   MET71   LYS72   ILE73   LEU74   GLU91  
 LEU95   VAL104  LYS105  MET118  VAL119  MET120  GLU121  TYR122  VAL123  PRO124 
 GLY125  GLY126  GLU127  MET128  PHE129  TYR164  ASP166  LEU167  LYS168  PRO169 
 GLU170  ASN171  LEU172  LEU173  ILE174  GLN181  VAL182  THR183  ASP184  PHE185 
 GLY186  PHE187  GLY200  THR201  ASN326  PHE327  TYR330  ARG18   ARG19   ASN20  
 ALA21   ILE22   HIS23  

>  <Gold.Protein.RotatedAtoms>  (210) 
   11.1622   19.5741    8.5852 H   0  0  0  0  0  0  0  0  0  0  0  0  # atno 641  bound_to 637 
   15.6808   13.2951    7.2245 H   0  0  0  0  0  0  0  0  0  0  0  0  # atno 681  bound_to 677 
   19.9953   11.7629   -1.9973 H   0  0  0  0  0  0  0  0  0  0  0  0  # atno 702  bound_to 698 
   -6.4426   16.0993   -1.5941 H   0  0  0  0  0  0  0  0  0  0  0  0  # atno 965  bound_to 957 
    0.7685   11.8989   11.0610 H   0  0  0  0  0  0  0  0  0  0  0  0  # atno 1886 bound_to 1878
   10.1841    1.9000   -2.3884 H   0  0  0  0  0  0  0  0  0  0  0  0  # atno 2577 bound_to 2569
    7.9066    6.9453    0.9249 H   0  0  0  0  0  0  0  0  0  0  0  0  # atno 2891 bound_to 2887
   19.3353    3.0205   -0.3264 H   0  0  0  0  0  0  0  0  0  0  0  0  # atno 3175 bound_to 3171
   12.6660   10.0737    9.3825 H   0  0  0  0  0  0  0  0  0  0  0  0  # atno 5278 bound_to 5270
   17.1332   13.8761    6.9264 LP  0  0  0  0  0  0  0  0  0  0  0  0  # atno 5914 bound_to 677 
   16.5365   12.6280    6.0587 LP  0  0  0  0  0  0  0  0  0  0  0  0  # atno 5915 bound_to 677 
   19.5803   11.7899   -0.4596 LP  0  0  0  0  0  0  0  0  0  0  0  0  # atno 5920 bound_to 698 
   21.1290   11.5240   -0.9041 LP  0  0  0  0  0  0  0  0  0  0  0  0  # atno 5921 bound_to 698 
    9.3588    2.9993   -3.1918 LP  0  0  0  0  0  0  0  0  0  0  0  0  # atno 5950 bound_to 2569
   10.9888    3.0644   -3.1176 LP  0  0  0  0  0  0  0  0  0  0  0  0  # atno 5951 bound_to 2569
    8.1992    5.5230    0.2708 LP  0  0  0  0  0  0  0  0  0  0  0  0  # atno 5982 bound_to 2887
    7.1543    5.6724    1.5168 LP  0  0  0  0  0  0  0  0  0  0  0  0  # atno 5983 bound_to 2887
   18.0804    2.1786    0.1756 LP  0  0  0  0  0  0  0  0  0  0  0  0  # atno 6000 bound_to 3171
   18.4592    2.2514   -1.4111 LP  0  0  0  0  0  0  0  0  0  0  0  0  # atno 6001 bound_to 3171
   13.7696    9.7933   10.4962 LP  0  0  0  0  0  0  0  0  0  0  0  0  # atno 6004 bound_to 5270
   14.2005   10.1747    8.9679 LP  0  0  0  0  0  0  0  0  0  0  0  0  # atno 6005 bound_to 5270
    9.5896   19.5541    8.3376 LP  0  0  0  0  0  0  0  0  0  0  0  0  # atno 6055 bound_to 637 
   10.6192   18.9325    7.2330 LP  0  0  0  0  0  0  0  0  0  0  0  0  # atno 6056 bound_to 637 
    2.2294   11.8589   10.4290 LP  0  0  0  0  0  0  0  0  0  0  0  0  # atno 6063 bound_to 1878
    1.3470   10.4938   10.5852 LP  0  0  0  0  0  0  0  0  0  0  0  0  # atno 6064 bound_to 1878
   -6.9410   17.1598   -0.5161 LP  0  0  0  0  0  0  0  0  0  0  0  0  # atno 6067 bound_to 957 
   -7.0817   15.5564   -0.2406 LP  0  0  0  0  0  0  0  0  0  0  0  0  # atno 6068 bound_to 957 

>  <STRIFE_LigEff_Score>  (210) 
2.69326

$$$$
unknown|pharmsElabsTestPreDocking|sdf|211|dock8
     RDKit          3D

 19 20  0  0  0  0  0  0  0  0999 V2000
   13.9126    9.1462    1.3904 C   0  0  0  0  0  0  0  0  0  0  0  0
   13.6203    8.2032    2.5564 C   0  0  0  0  0  0  0  0  0  0  0  0
   14.1090    6.8458    2.3055 N   0  0  0  0  0  0  0  0  0  0  0  0
   12.2020    8.2171    3.1785 C   0  0  0  0  0  0  0  0  0  0  0  0
   11.2606    7.1556    2.5911 C   0  0  0  0  0  0  0  0  0  0  0  0
    9.7720    7.3829    2.7971 C   0  0  0  0  0  0  0  0  0  0  0  0
    9.3724    8.8258    2.6172 C   0  0  0  0  0  0  0  0  0  0  0  0
    7.8922    9.0388    2.4932 C   0  0  0  0  0  0  0  0  0  0  0  0
    7.1917    8.0363    2.7768 O   0  0  0  0  0  0  0  0  0  0  0  0
    7.2367   10.2494    2.0748 N   0  0  0  0  0  0  0  0  0  0  0  0
    5.7745   10.2298    1.9119 C   0  0  0  0  0  0  0  0  0  0  0  0
    5.0716    9.9349    3.1984 C   0  0  0  0  0  0  0  0  0  0  0  0
    5.3912   10.4536    4.4326 C   0  0  0  0  0  0  0  0  0  0  0  0
    4.5144    9.9890    5.3466 N   0  0  0  0  0  0  0  0  0  0  0  0
    3.6769    9.1955    4.6441 C   0  0  0  0  0  0  0  0  0  0  0  0
    3.9886    9.1503    3.3350 N   0  0  0  0  0  0  0  0  0  0  0  0
    3.3058    8.3834    2.2991 C   0  0  0  0  0  0  0  0  0  0  0  0
   10.1497    9.8404    3.4082 C   0  0  0  0  0  0  0  0  0  0  0  0
   11.6583    9.6690    3.2437 C   0  0  0  0  0  0  0  0  0  0  0  0
  1  2  1  0
  2  3  1  0
  2  4  1  0
  4  5  1  0
  5  6  1  0
  6  7  1  0
  7  8  1  0
  8  9  2  0
  8 10  1  0
 10 11  1  0
 11 12  1  0
 12 13  2  0
 13 14  1  0
 14 15  2  0
 15 16  1  0
 16 17  1  0
  7 18  1  0
 18 19  1  0
 19  4  1  0
 16 12  1  0
M  CHG  1   3   1
M  END
>  <EmbedRMS>  (211) 
0.28482549143865477

>  <Gold.Version>  (211) 
2020.3.0

>  <Gold.Id.Protein>  (211) 
unknown|1q8t_protein|pdb

>  <Gold.PLP.Fitness>  (211) 
51.8091

>  <Gold.PLP.PLP>  (211) 
-44.0639

>  <Gold.PLP.part.hbond>  (211) 
-2.0000

>  <Gold.PLP.part.metal>  (211) 
0.0000

>  <Gold.PLP.part.buried>  (211) 
-1.2769

>  <Gold.PLP.part.nonpolar>  (211) 
-41.1604

>  <Gold.PLP.part.repulsive>  (211) 
0.0851

>  <Gold.PLP.ligand.clash>  (211) 
0.0000

>  <Gold.PLP.ligand.torsion>  (211) 
0.9246

>  <Gold.PLP.Chemscore.Hbond>  (211) 
2.0000

>  <Gold.PLP.Chemscore.CHOScore>  (211) 
1.0000

>  <Gold.PLP.Chemscore.Metal>  (211) 
0.0000

>  <Gold.Chemscore.Hbonds>  (211) 
donor molecule, donor type, donor heavy atom, donor atom, acceptor molecule, acceptor atom, score
      L1  H     3    25       P1  2691  1.00
      P1  H  2887  2891       L1     9  1.00
      L1  C    15    37       P1  1891  1.00

>  <Gold.PLP.Chemscore.Internal.Correction>  (211) 
0.5945

>  <Gold.PLP.Constraint>  (211) 
-0.0000

>  <Gold.Protein.RotatedTorsions>  (211) 
[  681  677  676  673 ] final -141.76 input -179.99 | X-H torsion
[  702  698  697  694 ] final   30.07 input  179.99 | X-H torsion
[ 2577 2569 2568 2566 ] final   50.34 input   -0.13 | X-H torsion
[ 2891 2887 2886 2883 ] final -177.12 input  179.98 | X-H torsion
[ 3175 3171 3170 3167 ] final -130.75 input -179.99 | X-H torsion
[ 5278 5270 5269 5267 ] final  131.81 input    0.55 | X-H torsion
[  641  637  636  633 ] final  118.96 input  179.99 | X-H torsion
[ 1886 1878 1877 1875 ] final    7.98 input    1.60 | X-H torsion
[  965  957  956  954 ] final  -97.91 input    0.45 | X-H torsion

>  <Gold.Protein.ActiveResidues>  (211) 
 LYS47   THR48   LEU49   GLY50   THR51   GLY52   SER53   PHE54   GLY55   ARG56  
 VAL57   MET58   LEU59   TYR69   ALA70   MET71   LYS72   ILE73   LEU74   GLU91  
 LEU95   VAL104  LYS105  MET118  VAL119  MET120  GLU121  TYR122  VAL123  PRO124 
 GLY125  GLY126  GLU127  MET128  PHE129  TYR164  ASP166  LEU167  LYS168  PRO169 
 GLU170  ASN171  LEU172  LEU173  ILE174  GLN181  VAL182  THR183  ASP184  PHE185 
 GLY186  PHE187  GLY200  THR201  ASN326  PHE327  TYR330  ARG18   ARG19   ASN20  
 ALA21   ILE22   HIS23  

>  <Gold.Protein.RotatedAtoms>  (211) 
   10.7686   19.7181    8.8241 H   0  0  0  0  0  0  0  0  0  0  0  0  # atno 641  bound_to 637 
   16.5052   13.9301    7.3433 H   0  0  0  0  0  0  0  0  0  0  0  0  # atno 681  bound_to 677 
   19.3517   11.8593   -1.0810 H   0  0  0  0  0  0  0  0  0  0  0  0  # atno 702  bound_to 698 
   -6.4604   16.6130   -1.5443 H   0  0  0  0  0  0  0  0  0  0  0  0  # atno 965  bound_to 957 
    2.2521   11.4384   10.3283 H   0  0  0  0  0  0  0  0  0  0  0  0  # atno 1886 bound_to 1878
    9.3030    2.7557   -3.0471 H   0  0  0  0  0  0  0  0  0  0  0  0  # atno 2577 bound_to 2569
    7.3886    6.6639    1.4576 H   0  0  0  0  0  0  0  0  0  0  0  0  # atno 2891 bound_to 2887
   18.7284    2.6606    0.3579 H   0  0  0  0  0  0  0  0  0  0  0  0  # atno 3175 bound_to 3171
   13.9364   10.2208    8.8397 H   0  0  0  0  0  0  0  0  0  0  0  0  # atno 5278 bound_to 5270
   17.1454   13.0971    6.1465 LP  0  0  0  0  0  0  0  0  0  0  0  0  # atno 5914 bound_to 677 
   15.6566   12.7387    6.7135 LP  0  0  0  0  0  0  0  0  0  0  0  0  # atno 5915 bound_to 677 
   20.7390   11.5824   -0.3489 LP  0  0  0  0  0  0  0  0  0  0  0  0  # atno 5920 bound_to 698 
   20.6475   11.6301   -1.9786 LP  0  0  0  0  0  0  0  0  0  0  0  0  # atno 5921 bound_to 698 
   10.8043    3.2436   -3.2555 LP  0  0  0  0  0  0  0  0  0  0  0  0  # atno 5950 bound_to 2569
   10.4709    1.9192   -2.3603 LP  0  0  0  0  0  0  0  0  0  0  0  0  # atno 5951 bound_to 2569
    8.3813    6.3389    0.2553 LP  0  0  0  0  0  0  0  0  0  0  0  0  # atno 5982 bound_to 2887
    7.5175    5.1526    0.9717 LP  0  0  0  0  0  0  0  0  0  0  0  0  # atno 5983 bound_to 2887
   17.9356    1.9408   -0.8207 LP  0  0  0  0  0  0  0  0  0  0  0  0  # atno 6000 bound_to 3171
   19.2427    2.8679   -1.1349 LP  0  0  0  0  0  0  0  0  0  0  0  0  # atno 6001 bound_to 3171
   12.5890    9.9881    9.6564 LP  0  0  0  0  0  0  0  0  0  0  0  0  # atno 6004 bound_to 5270
   14.0444    9.8251   10.3787 LP  0  0  0  0  0  0  0  0  0  0  0  0  # atno 6005 bound_to 5270
    9.5434   19.3260    7.8859 LP  0  0  0  0  0  0  0  0  0  0  0  0  # atno 6055 bound_to 637 
   11.0799   19.0089    7.4330 LP  0  0  0  0  0  0  0  0  0  0  0  0  # atno 6056 bound_to 637 
    0.9659   10.6120   10.7734 LP  0  0  0  0  0  0  0  0  0  0  0  0  # atno 6063 bound_to 1878
    1.0486   12.2254   11.0121 LP  0  0  0  0  0  0  0  0  0  0  0  0  # atno 6064 bound_to 1878
   -7.1261   16.8413   -0.1161 LP  0  0  0  0  0  0  0  0  0  0  0  0  # atno 6067 bound_to 957 
   -6.8779   15.3339   -0.6930 LP  0  0  0  0  0  0  0  0  0  0  0  0  # atno 6068 bound_to 957 

>  <STRIFE_LigEff_Score>  (211) 
2.7267947368421055

$$$$
unknown|pharmsElabsTestPreDocking|sdf|212|dock5
     RDKit          3D

 19 20  0  0  0  0  0  0  0  0999 V2000
   14.5937    9.0753    1.7082 C   0  0  0  0  0  0  0  0  0  0  0  0
   13.6411    7.8925    1.7516 C   0  0  0  0  0  0  0  0  0  0  0  0
   14.0114    6.7768    0.8874 N   0  0  0  0  0  0  0  0  0  0  0  0
   12.1211    8.2131    1.8973 C   0  0  0  0  0  0  0  0  0  0  0  0
   11.1578    7.0357    2.1160 C   0  0  0  0  0  0  0  0  0  0  0  0
    9.6962    7.4565    1.8583 C   0  0  0  0  0  0  0  0  0  0  0  0
    9.4245    8.9506    2.0529 C   0  0  0  0  0  0  0  0  0  0  0  0
    7.9787    9.3452    1.9771 C   0  0  0  0  0  0  0  0  0  0  0  0
    7.3679    8.9393    0.9568 O   0  0  0  0  0  0  0  0  0  0  0  0
    7.2703   10.1484    2.9363 N   0  0  0  0  0  0  0  0  0  0  0  0
    5.8804   10.5270    2.6396 C   0  0  0  0  0  0  0  0  0  0  0  0
    4.9209    9.9468    3.6282 C   0  0  0  0  0  0  0  0  0  0  0  0
    4.9765   10.1977    4.9502 N   0  0  0  0  0  0  0  0  0  0  0  0
    3.9146    9.5048    5.4182 C   0  0  0  0  0  0  0  0  0  0  0  0
    3.2422    8.8655    4.4400 N   0  0  0  0  0  0  0  0  0  0  0  0
    3.8796    9.1538    3.3210 N   0  0  0  0  0  0  0  0  0  0  0  0
    3.4972    8.6567    2.0049 C   0  0  0  0  0  0  0  0  0  0  0  0
   10.3455    9.7958    2.9180 C   0  0  0  0  0  0  0  0  0  0  0  0
   11.8167    9.3276    2.9193 C   0  0  0  0  0  0  0  0  0  0  0  0
  1  2  1  0
  2  3  1  0
  2  4  1  0
  4  5  1  0
  5  6  1  0
  6  7  1  0
  7  8  1  0
  8  9  2  0
  8 10  1  0
 10 11  1  0
 11 12  1  0
 12 13  2  0
 13 14  1  0
 14 15  2  0
 15 16  1  0
 16 17  1  0
  7 18  1  0
 18 19  1  0
 19  4  1  0
 16 12  1  0
M  CHG  1   3   1
M  END
>  <EmbedRMS>  (212) 
0.24309368491659913

>  <Gold.Version>  (212) 
2020.3.0

>  <Gold.Id.Protein>  (212) 
unknown|1q8t_protein|pdb

>  <Gold.PLP.Fitness>  (212) 
54.0860

>  <Gold.PLP.PLP>  (212) 
-38.3145

>  <Gold.PLP.part.hbond>  (212) 
-3.8991

>  <Gold.PLP.part.metal>  (212) 
0.0000

>  <Gold.PLP.part.buried>  (212) 
2.2844

>  <Gold.PLP.part.nonpolar>  (212) 
-37.8798

>  <Gold.PLP.part.repulsive>  (212) 
0.2493

>  <Gold.PLP.ligand.clash>  (212) 
0.0000

>  <Gold.PLP.ligand.torsion>  (212) 
0.5558

>  <Gold.PLP.Chemscore.Hbond>  (212) 
4.6428

>  <Gold.PLP.Chemscore.CHOScore>  (212) 
0.6449

>  <Gold.PLP.Chemscore.Metal>  (212) 
0.0000

>  <Gold.Chemscore.Hbonds>  (212) 
donor molecule, donor type, donor heavy atom, donor atom, acceptor molecule, acceptor atom, score
      L1  H     3    24       P1  2691  1.00
      L1  H     3    26       P1  2902  2.00
      P1  H  2887  2891       L1     9  0.82
      P1  H  1888  1903       L1    15  0.83
      L1  C    14    36       P1  1891  0.64

>  <Gold.PLP.Chemscore.Internal.Correction>  (212) 
1.0200

>  <Gold.PLP.Constraint>  (212) 
-0.0000

>  <Gold.Protein.RotatedTorsions>  (212) 
[  681  677  676  673 ] final -146.75 input -179.99 | X-H torsion
[  702  698  697  694 ] final   64.54 input  179.99 | X-H torsion
[ 2577 2569 2568 2566 ] final  176.43 input   -0.13 | X-H torsion
[ 2891 2887 2886 2883 ] final  144.66 input  179.98 | X-H torsion
[ 3175 3171 3170 3167 ] final  118.09 input -179.99 | X-H torsion
[ 5278 5270 5269 5267 ] final  -51.49 input    0.55 | X-H torsion
[  641  637  636  633 ] final  -78.60 input  179.99 | X-H torsion
[ 1886 1878 1877 1875 ] final    5.81 input    1.60 | X-H torsion
[  965  957  956  954 ] final -164.05 input    0.45 | X-H torsion

>  <Gold.Protein.ActiveResidues>  (212) 
 LYS47   THR48   LEU49   GLY50   THR51   GLY52   SER53   PHE54   GLY55   ARG56  
 VAL57   MET58   LEU59   TYR69   ALA70   MET71   LYS72   ILE73   LEU74   GLU91  
 LEU95   VAL104  LYS105  MET118  VAL119  MET120  GLU121  TYR122  VAL123  PRO124 
 GLY125  GLY126  GLU127  MET128  PHE129  TYR164  ASP166  LEU167  LYS168  PRO169 
 GLU170  ASN171  LEU172  LEU173  ILE174  GLN181  VAL182  THR183  ASP184  PHE185 
 GLY186  PHE187  GLY200  THR201  ASN326  PHE327  TYR330  ARG18   ARG19   ASN20  
 ALA21   ILE22   HIS23  

>  <Gold.Protein.RotatedAtoms>  (212) 
   10.4370   18.9423    7.2685 H   0  0  0  0  0  0  0  0  0  0  0  0  # atno 641  bound_to 637 
   16.5759   13.9447    7.3140 H   0  0  0  0  0  0  0  0  0  0  0  0  # atno 681  bound_to 677 
   19.4779   11.8469   -1.5967 H   0  0  0  0  0  0  0  0  0  0  0  0  # atno 702  bound_to 698 
   -6.7903   17.1638   -0.8077 H   0  0  0  0  0  0  0  0  0  0  0  0  # atno 965  bound_to 957 
    2.2498   11.4050   10.3236 H   0  0  0  0  0  0  0  0  0  0  0  0  # atno 1886 bound_to 1878
   10.5457    1.9775   -2.4157 H   0  0  0  0  0  0  0  0  0  0  0  0  # atno 2577 bound_to 2569
    7.7588    6.9379    1.0944 H   0  0  0  0  0  0  0  0  0  0  0  0  # atno 2891 bound_to 2887
   17.9448    1.9455   -0.6709 H   0  0  0  0  0  0  0  0  0  0  0  0  # atno 3175 bound_to 3171
   13.1706    9.8255   10.4101 H   0  0  0  0  0  0  0  0  0  0  0  0  # atno 5278 bound_to 5270
   17.0997   13.0368    6.1151 LP  0  0  0  0  0  0  0  0  0  0  0  0  # atno 5914 bound_to 677 
   15.6279   12.7836    6.7759 LP  0  0  0  0  0  0  0  0  0  0  0  0  # atno 5915 bound_to 677 
   20.2103   11.6731   -0.1929 LP  0  0  0  0  0  0  0  0  0  0  0  0  # atno 5920 bound_to 698 
   21.0434   11.5524   -1.5921 LP  0  0  0  0  0  0  0  0  0  0  0  0  # atno 5921 bound_to 698 
    9.2405    2.6897   -2.9855 LP  0  0  0  0  0  0  0  0  0  0  0  0  # atno 5950 bound_to 2569
   10.7263    3.2925   -3.2952 LP  0  0  0  0  0  0  0  0  0  0  0  0  # atno 5951 bound_to 2569
    8.2965    5.7293    0.2075 LP  0  0  0  0  0  0  0  0  0  0  0  0  # atno 5982 bound_to 2887
    7.2126    5.4738    1.4018 LP  0  0  0  0  0  0  0  0  0  0  0  0  # atno 5983 bound_to 2887
   19.1656    2.7975   -1.2361 LP  0  0  0  0  0  0  0  0  0  0  0  0  # atno 6000 bound_to 3171
   18.8374    2.7638    0.3632 LP  0  0  0  0  0  0  0  0  0  0  0  0  # atno 6001 bound_to 3171
   14.4674   10.0435    9.5114 LP  0  0  0  0  0  0  0  0  0  0  0  0  # atno 6004 bound_to 5270
   12.9717   10.1857    8.8715 LP  0  0  0  0  0  0  0  0  0  0  0  0  # atno 6005 bound_to 5270
   11.3013   19.5267    8.4712 LP  0  0  0  0  0  0  0  0  0  0  0  0  # atno 6055 bound_to 637 
    9.6713   19.6253    8.4860 LP  0  0  0  0  0  0  0  0  0  0  0  0  # atno 6056 bound_to 637 
    0.9389   10.6298   10.7883 LP  0  0  0  0  0  0  0  0  0  0  0  0  # atno 6063 bound_to 1878
    1.0780   12.2428   11.0021 LP  0  0  0  0  0  0  0  0  0  0  0  0  # atno 6064 bound_to 1878
   -7.1663   15.8152   -0.0494 LP  0  0  0  0  0  0  0  0  0  0  0  0  # atno 6067 bound_to 957 
   -6.4903   15.7798   -1.5355 LP  0  0  0  0  0  0  0  0  0  0  0  0  # atno 6068 bound_to 957 

>  <STRIFE_LigEff_Score>  (212) 
2.846631578947368

$$$$
unknown|pharmsElabsTestPreDocking|sdf|213|dock7
     RDKit          3D

 18 19  0  0  0  0  0  0  0  0999 V2000
   14.5521    9.1819    1.3893 C   0  0  0  0  0  0  0  0  0  0  0  0
   13.6846    7.9744    1.7026 C   0  0  0  0  0  0  0  0  0  0  0  0
   13.9473    6.8010    0.8767 N   0  0  0  0  0  0  0  0  0  0  0  0
   12.2027    8.2530    2.0999 C   0  0  0  0  0  0  0  0  0  0  0  0
   11.4614    7.1716    2.9016 C   0  0  0  0  0  0  0  0  0  0  0  0
    9.9393    7.4117    2.8812 C   0  0  0  0  0  0  0  0  0  0  0  0
    9.5364    8.8732    2.6689 C   0  0  0  0  0  0  0  0  0  0  0  0
    8.0681    9.1377    2.7921 C   0  0  0  0  0  0  0  0  0  0  0  0
    7.5662    9.6338    1.7600 O   0  0  0  0  0  0  0  0  0  0  0  0
    7.2441    8.8702    3.9506 N   0  0  0  0  0  0  0  0  0  0  0  0
    5.8438    9.2596    4.0755 C   0  0  0  0  0  0  0  0  0  0  0  0
    4.9945    9.1456    2.9580 C   0  0  0  0  0  0  0  0  0  0  0  0
    3.6403    9.4990    3.0462 C   0  0  0  0  0  0  0  0  0  0  0  0
    3.1133    9.9802    4.2453 C   0  0  0  0  0  0  0  0  0  0  0  0
    3.9311   10.0995    5.3612 C   0  0  0  0  0  0  0  0  0  0  0  0
    5.2713    9.7337    5.2881 C   0  0  0  0  0  0  0  0  0  0  0  0
   10.5023   10.0014    2.9779 C   0  0  0  0  0  0  0  0  0  0  0  0
   11.9855    9.6310    2.7617 C   0  0  0  0  0  0  0  0  0  0  0  0
  1  2  1  0
  2  3  1  0
  2  4  1  0
  4  5  1  0
  5  6  1  0
  6  7  1  0
  7  8  1  0
  8  9  2  0
  8 10  1  0
 10 11  1  0
 11 12  2  0
 12 13  1  0
 13 14  2  0
 14 15  1  0
 15 16  2  0
  7 17  1  0
 17 18  1  0
 18  4  1  0
 16 11  1  0
M  CHG  1   3   1
M  END
>  <EmbedRMS>  (213) 
0.24964892458419108

>  <Gold.Version>  (213) 
2020.3.0

>  <Gold.Id.Protein>  (213) 
unknown|1q8t_protein|pdb

>  <Gold.PLP.Fitness>  (213) 
55.1079

>  <Gold.PLP.PLP>  (213) 
-47.2243

>  <Gold.PLP.part.hbond>  (213) 
-1.8440

>  <Gold.PLP.part.metal>  (213) 
0.0000

>  <Gold.PLP.part.buried>  (213) 
-1.7753

>  <Gold.PLP.part.nonpolar>  (213) 
-44.6770

>  <Gold.PLP.part.repulsive>  (213) 
0.0903

>  <Gold.PLP.ligand.clash>  (213) 
0.0000

>  <Gold.PLP.ligand.torsion>  (213) 
1.0014

>  <Gold.PLP.Chemscore.Hbond>  (213) 
2.9833

>  <Gold.PLP.Chemscore.CHOScore>  (213) 
0.0000

>  <Gold.PLP.Chemscore.Metal>  (213) 
0.0000

>  <Gold.Chemscore.Hbonds>  (213) 
donor molecule, donor type, donor heavy atom, donor atom, acceptor molecule, acceptor atom, score
      L1  H     3    24       P1  2902  2.00
      L1  H     3    25       P1  2691  0.98

>  <Gold.PLP.Chemscore.Internal.Correction>  (213) 
0.9365

>  <Gold.PLP.Constraint>  (213) 
-0.0000

>  <Gold.Protein.RotatedTorsions>  (213) 
[  681  677  676  673 ] final  -38.44 input -179.99 | X-H torsion
[  702  698  697  694 ] final -139.44 input  179.99 | X-H torsion
[ 2577 2569 2568 2566 ] final  -63.92 input   -0.13 | X-H torsion
[ 2891 2887 2886 2883 ] final  -99.12 input  179.98 | X-H torsion
[ 3175 3171 3170 3167 ] final   41.16 input -179.99 | X-H torsion
[ 5278 5270 5269 5267 ] final -156.28 input    0.55 | X-H torsion
[  641  637  636  633 ] final   22.90 input  179.99 | X-H torsion
[ 1886 1878 1877 1875 ] final -115.95 input    1.60 | X-H torsion
[  965  957  956  954 ] final    0.94 input    0.45 | X-H torsion

>  <Gold.Protein.ActiveResidues>  (213) 
 LYS47   THR48   LEU49   GLY50   THR51   GLY52   SER53   PHE54   GLY55   ARG56  
 VAL57   MET58   LEU59   TYR69   ALA70   MET71   LYS72   ILE73   LEU74   GLU91  
 LEU95   VAL104  LYS105  MET118  VAL119  MET120  GLU121  TYR122  VAL123  PRO124 
 GLY125  GLY126  GLU127  MET128  PHE129  TYR164  ASP166  LEU167  LYS168  PRO169 
 GLU170  ASN171  LEU172  LEU173  ILE174  GLN181  VAL182  THR183  ASP184  PHE185 
 GLY186  PHE187  GLY200  THR201  ASN326  PHE327  TYR330  ARG18   ARG19   ASN20  
 ALA21   ILE22   HIS23  

>  <Gold.Protein.RotatedAtoms>  (213) 
    9.5994   19.4816    8.2331 H   0  0  0  0  0  0  0  0  0  0  0  0  # atno 641  bound_to 637 
   15.6210   12.9314    6.9009 H   0  0  0  0  0  0  0  0  0  0  0  0  # atno 681  bound_to 677 
   21.1082   11.5468   -1.0252 H   0  0  0  0  0  0  0  0  0  0  0  0  # atno 702  bound_to 698 
   -6.7241   15.3992   -0.9903 H   0  0  0  0  0  0  0  0  0  0  0  0  # atno 965  bound_to 957 
    0.9368   10.6869   10.7800 H   0  0  0  0  0  0  0  0  0  0  0  0  # atno 1886 bound_to 1878
   10.7041    3.2480   -3.2863 H   0  0  0  0  0  0  0  0  0  0  0  0  # atno 2577 bound_to 2569
    7.2097    5.5521    1.3984 H   0  0  0  0  0  0  0  0  0  0  0  0  # atno 2891 bound_to 2887
   18.6612    2.3799   -1.4056 H   0  0  0  0  0  0  0  0  0  0  0  0  # atno 3175 bound_to 3171
   14.4155   10.0012    9.7504 H   0  0  0  0  0  0  0  0  0  0  0  0  # atno 5278 bound_to 5270
   16.7591   13.9841    7.2652 LP  0  0  0  0  0  0  0  0  0  0  0  0  # atno 5914 bound_to 677 
   16.9734   12.9028    6.0605 LP  0  0  0  0  0  0  0  0  0  0  0  0  # atno 5915 bound_to 677 
   19.8706   11.7683   -2.0033 LP  0  0  0  0  0  0  0  0  0  0  0  0  # atno 5920 bound_to 698 
   19.6682   11.7729   -0.3829 LP  0  0  0  0  0  0  0  0  0  0  0  0  # atno 5921 bound_to 698 
   10.5589    1.9501   -2.3754 LP  0  0  0  0  0  0  0  0  0  0  0  0  # atno 5950 bound_to 2569
    9.2411    2.6943   -2.9887 LP  0  0  0  0  0  0  0  0  0  0  0  0  # atno 5951 bound_to 2569
    7.8129    6.9889    1.0694 LP  0  0  0  0  0  0  0  0  0  0  0  0  # atno 5982 bound_to 2887
    8.2741    5.6728    0.2199 LP  0  0  0  0  0  0  0  0  0  0  0  0  # atno 5983 bound_to 2887
   19.2824    3.0337   -0.0932 LP  0  0  0  0  0  0  0  0  0  0  0  0  # atno 6000 bound_to 3171
   17.9666    2.0705   -0.0065 LP  0  0  0  0  0  0  0  0  0  0  0  0  # atno 6001 bound_to 3171
   13.1905   10.2166    8.7555 LP  0  0  0  0  0  0  0  0  0  0  0  0  # atno 6004 bound_to 5270
   12.9388    9.8277   10.3214 LP  0  0  0  0  0  0  0  0  0  0  0  0  # atno 6005 bound_to 5270
   10.7365   18.9395    7.2594 LP  0  0  0  0  0  0  0  0  0  0  0  0  # atno 6055 bound_to 637 
   11.1182   19.6445    8.6820 LP  0  0  0  0  0  0  0  0  0  0  0  0  # atno 6056 bound_to 637 
    1.1022   12.2560   10.9937 LP  0  0  0  0  0  0  0  0  0  0  0  0  # atno 6063 bound_to 1878
    2.2969   11.3726   10.3163 LP  0  0  0  0  0  0  0  0  0  0  0  0  # atno 6064 bound_to 1878
   -6.5331   16.9211   -1.4174 LP  0  0  0  0  0  0  0  0  0  0  0  0  # atno 6067 bound_to 957 
   -7.1932   16.5325    0.0248 LP  0  0  0  0  0  0  0  0  0  0  0  0  # atno 6068 bound_to 957 

>  <STRIFE_LigEff_Score>  (213) 
3.06155

$$$$
unknown|pharmsElabsTestPreDocking|sdf|214|dock3
     RDKit          3D

 17 18  0  0  0  0  0  0  0  0999 V2000
   14.5212    8.0503    2.9768 C   0  0  0  0  0  0  0  0  0  0  0  0
   13.1887    7.9034    2.2438 C   0  0  0  0  0  0  0  0  0  0  0  0
   13.0858    8.8082    1.0971 N   0  0  0  0  0  0  0  0  0  0  0  0
   11.8874    7.8587    3.0818 C   0  0  0  0  0  0  0  0  0  0  0  0
   10.7405    7.0997    2.3988 C   0  0  0  0  0  0  0  0  0  0  0  0
    9.3401    7.3852    2.9143 C   0  0  0  0  0  0  0  0  0  0  0  0
    9.1162    8.8466    3.2104 C   0  0  0  0  0  0  0  0  0  0  0  0
    7.6743    9.2174    3.3908 C   0  0  0  0  0  0  0  0  0  0  0  0
    7.4627    9.9475    4.3852 O   0  0  0  0  0  0  0  0  0  0  0  0
    6.5724    8.8150    2.5488 N   0  0  0  0  0  0  0  0  0  0  0  0
    5.1931    9.1274    2.8715 C   0  0  0  0  0  0  0  0  0  0  0  0
    4.6613    9.4750    4.1124 C   0  0  0  0  0  0  0  0  0  0  0  0
    3.3122    9.6601    3.9142 C   0  0  0  0  0  0  0  0  0  0  0  0
    2.9986    9.4405    2.6250 N   0  0  0  0  0  0  0  0  0  0  0  0
    4.1364    9.1147    1.9812 C   0  0  0  0  0  0  0  0  0  0  0  0
   10.1225    9.5169    4.1011 C   0  0  0  0  0  0  0  0  0  0  0  0
   11.5563    9.2704    3.6358 C   0  0  0  0  0  0  0  0  0  0  0  0
  1  2  1  0
  2  3  1  0
  2  4  1  0
  4  5  1  0
  5  6  1  0
  6  7  1  0
  7  8  1  0
  8  9  2  0
  8 10  1  0
 10 11  1  0
 11 12  1  0
 12 13  2  0
 13 14  1  0
 14 15  1  0
  7 16  1  0
 16 17  1  0
 17  4  1  0
 15 11  2  0
M  CHG  1   3   1
M  END
>  <EmbedRMS>  (214) 
0.3005329260886256

>  <Gold.Version>  (214) 
2020.3.0

>  <Gold.Id.Protein>  (214) 
unknown|1q8t_protein|pdb

>  <Gold.PLP.Fitness>  (214) 
49.4865

>  <Gold.PLP.PLP>  (214) 
-40.9199

>  <Gold.PLP.part.hbond>  (214) 
-2.0000

>  <Gold.PLP.part.metal>  (214) 
0.0000

>  <Gold.PLP.part.buried>  (214) 
-4.0427

>  <Gold.PLP.part.nonpolar>  (214) 
-34.8539

>  <Gold.PLP.part.repulsive>  (214) 
0.1170

>  <Gold.PLP.ligand.clash>  (214) 
0.0000

>  <Gold.PLP.ligand.torsion>  (214) 
0.5495

>  <Gold.PLP.Chemscore.Hbond>  (214) 
3.0125

>  <Gold.PLP.Chemscore.CHOScore>  (214) 
0.0000

>  <Gold.PLP.Chemscore.Metal>  (214) 
0.0000

>  <Gold.Chemscore.Hbonds>  (214) 
donor molecule, donor type, donor heavy atom, donor atom, acceptor molecule, acceptor atom, score
      L1  H     3    24       P1  2902  2.00
      L1  H    10    31       P1  2887  0.01
      L1  H    14    34       P1  1855  1.00

>  <Gold.PLP.Chemscore.Internal.Correction>  (214) 
0.6282

>  <Gold.PLP.Constraint>  (214) 
-0.0000

>  <Gold.Protein.RotatedTorsions>  (214) 
[  681  677  676  673 ] final  -35.40 input -179.99 | X-H torsion
[  702  698  697  694 ] final -121.35 input  179.99 | X-H torsion
[ 2577 2569 2568 2566 ] final  139.84 input   -0.13 | X-H torsion
[ 2891 2887 2886 2883 ] final  -86.50 input  179.98 | X-H torsion
[ 3175 3171 3170 3167 ] final -141.41 input -179.99 | X-H torsion
[ 5278 5270 5269 5267 ] final   -8.03 input    0.55 | X-H torsion
[  641  637  636  633 ] final  -56.18 input  179.99 | X-H torsion
[ 1886 1878 1877 1875 ] final -119.37 input    1.60 | X-H torsion
[  965  957  956  954 ] final  141.51 input    0.45 | X-H torsion

>  <Gold.Protein.ActiveResidues>  (214) 
 LYS47   THR48   LEU49   GLY50   THR51   GLY52   SER53   PHE54   GLY55   ARG56  
 VAL57   MET58   LEU59   TYR69   ALA70   MET71   LYS72   ILE73   LEU74   GLU91  
 LEU95   VAL104  LYS105  MET118  VAL119  MET120  GLU121  TYR122  VAL123  PRO124 
 GLY125  GLY126  GLU127  MET128  PHE129  TYR164  ASP166  LEU167  LYS168  PRO169 
 GLU170  ASN171  LEU172  LEU173  ILE174  GLN181  VAL182  THR183  ASP184  PHE185 
 GLY186  PHE187  GLY200  THR201  ASN326  PHE327  TYR330  ARG18   ARG19   ASN20  
 ALA21   ILE22   HIS23  

>  <Gold.Protein.RotatedAtoms>  (214) 
   10.0985   18.9935    7.3319 H   0  0  0  0  0  0  0  0  0  0  0  0  # atno 641  bound_to 637 
   15.6284   12.9004    6.8657 H   0  0  0  0  0  0  0  0  0  0  0  0  # atno 681  bound_to 677 
   21.0304   11.5554   -0.7545 H   0  0  0  0  0  0  0  0  0  0  0  0  # atno 702  bound_to 698 
   -7.0982   16.8051   -0.1389 H   0  0  0  0  0  0  0  0  0  0  0  0  # atno 965  bound_to 957 
    0.8986   10.7171   10.8020 H   0  0  0  0  0  0  0  0  0  0  0  0  # atno 1886 bound_to 1878
    9.9876    1.9101   -2.4098 H   0  0  0  0  0  0  0  0  0  0  0  0  # atno 2577 bound_to 2569
    7.2780    5.4067    1.2845 H   0  0  0  0  0  0  0  0  0  0  0  0  # atno 2891 bound_to 2887
   18.5943    2.5634    0.3747 H   0  0  0  0  0  0  0  0  0  0  0  0  # atno 3175 bound_to 3171
   12.7047    9.9340    9.9505 H   0  0  0  0  0  0  0  0  0  0  0  0  # atno 5278 bound_to 5270
   16.7162   13.9831    7.2908 LP  0  0  0  0  0  0  0  0  0  0  0  0  # atno 5914 bound_to 677 
   17.0086   12.9364    6.0720 LP  0  0  0  0  0  0  0  0  0  0  0  0  # atno 5915 bound_to 677 
   20.1541   11.7194   -2.0746 LP  0  0  0  0  0  0  0  0  0  0  0  0  # atno 5920 bound_to 698 
   19.4664   11.8127   -0.5964 LP  0  0  0  0  0  0  0  0  0  0  0  0  # atno 5921 bound_to 698 
    9.4809    3.1421   -3.2820 LP  0  0  0  0  0  0  0  0  0  0  0  0  # atno 5950 bound_to 2569
   11.0735    2.9110   -3.0049 LP  0  0  0  0  0  0  0  0  0  0  0  0  # atno 5951 bound_to 2569
    7.6754    6.9476    1.2188 LP  0  0  0  0  0  0  0  0  0  0  0  0  # atno 5982 bound_to 2887
    8.3398    5.8670    0.1904 LP  0  0  0  0  0  0  0  0  0  0  0  0  # atno 5983 bound_to 2887
   18.0032    1.9701   -0.9797 LP  0  0  0  0  0  0  0  0  0  0  0  0  # atno 6000 bound_to 3171
   19.3163    2.9409   -0.9935 LP  0  0  0  0  0  0  0  0  0  0  0  0  # atno 6001 bound_to 3171
   14.2821    9.8805   10.1644 LP  0  0  0  0  0  0  0  0  0  0  0  0  # atno 6004 bound_to 5270
   13.6472   10.2345    8.7021 LP  0  0  0  0  0  0  0  0  0  0  0  0  # atno 6005 bound_to 5270
   11.4068   19.3623    8.1609 LP  0  0  0  0  0  0  0  0  0  0  0  0  # atno 6055 bound_to 637 
    9.9222   19.7356    8.7295 LP  0  0  0  0  0  0  0  0  0  0  0  0  # atno 6056 bound_to 637 
    1.1504   12.2796   10.9765 LP  0  0  0  0  0  0  0  0  0  0  0  0  # atno 6063 bound_to 1878
    2.2890   11.3172   10.3103 LP  0  0  0  0  0  0  0  0  0  0  0  0  # atno 6064 bound_to 1878
   -6.8739   15.3327   -0.7018 LP  0  0  0  0  0  0  0  0  0  0  0  0  # atno 6067 bound_to 957 
   -6.4584   16.6402   -1.5875 LP  0  0  0  0  0  0  0  0  0  0  0  0  # atno 6068 bound_to 957 

>  <STRIFE_LigEff_Score>  (214) 
2.910970588235294

$$$$
unknown|pharmsElabsTestPreDocking|sdf|215|dock1
     RDKit          3D

 17 17  0  0  0  0  0  0  0  0999 V2000
    3.6030   10.0910    5.5048 C   0  0  0  0  0  0  0  0  0  0  0  0
    4.8866    9.7954    5.2865 C   0  0  0  0  0  0  0  0  0  0  0  0
    5.4917    9.4750    3.9706 C   0  0  0  0  0  0  0  0  0  0  0  0
    4.7072    9.4098    2.8676 C   0  0  0  0  0  0  0  0  0  0  0  0
    5.2026    9.0274    1.5062 C   0  0  0  0  0  0  0  0  0  0  0  0
    6.8895    9.1031    3.8626 N   0  0  0  0  0  0  0  0  0  0  0  0
    7.9256    9.4237    2.9046 C   0  0  0  0  0  0  0  0  0  0  0  0
    7.6256   10.2394    1.9952 O   0  0  0  0  0  0  0  0  0  0  0  0
    9.3655    8.9890    2.8693 C   0  0  0  0  0  0  0  0  0  0  0  0
    9.5633    7.4931    2.6912 C   0  0  0  0  0  0  0  0  0  0  0  0
   10.9953    7.0991    2.3928 C   0  0  0  0  0  0  0  0  0  0  0  0
   12.1107    7.9214    3.0461 C   0  0  0  0  0  0  0  0  0  0  0  0
   13.4691    7.7763    2.3165 C   0  0  0  0  0  0  0  0  0  0  0  0
   14.7517    7.8734    3.1427 C   0  0  0  0  0  0  0  0  0  0  0  0
   13.5373    8.5735    1.0909 N   0  0  0  0  0  0  0  0  0  0  0  0
   11.8092    9.4169    3.3129 C   0  0  0  0  0  0  0  0  0  0  0  0
   10.3722    9.7795    3.6629 C   0  0  0  0  0  0  0  0  0  0  0  0
  1  2  2  0
  2  3  1  0
  3  4  2  0
  4  5  1  0
  3  6  1  0
  6  7  1  0
  7  8  2  0
  7  9  1  0
  9 10  1  0
 10 11  1  0
 11 12  1  0
 12 13  1  0
 13 14  1  0
 13 15  1  0
 12 16  1  0
 16 17  1  0
 17  9  1  0
M  CHG  1  15   1
M  END
>  <EmbedRMS>  (215) 
0.29216731409503444

>  <Gold.Version>  (215) 
2020.3.0

>  <Gold.Id.Protein>  (215) 
unknown|1q8t_protein|pdb

>  <Gold.PLP.Fitness>  (215) 
44.0706

>  <Gold.PLP.PLP>  (215) 
-39.2770

>  <Gold.PLP.part.hbond>  (215) 
-1.0000

>  <Gold.PLP.part.metal>  (215) 
0.0000

>  <Gold.PLP.part.buried>  (215) 
-2.4568

>  <Gold.PLP.part.nonpolar>  (215) 
-36.2409

>  <Gold.PLP.part.repulsive>  (215) 
0.0000

>  <Gold.PLP.ligand.clash>  (215) 
0.0000

>  <Gold.PLP.ligand.torsion>  (215) 
1.0938

>  <Gold.PLP.Chemscore.Hbond>  (215) 
1.9840

>  <Gold.PLP.Chemscore.CHOScore>  (215) 
0.0000

>  <Gold.PLP.Chemscore.Metal>  (215) 
0.0000

>  <Gold.Chemscore.Hbonds>  (215) 
donor molecule, donor type, donor heavy atom, donor atom, acceptor molecule, acceptor atom, score
      L1  H    15    36       P1  2902  1.98

>  <Gold.PLP.Chemscore.Internal.Correction>  (215) 
1.0292

>  <Gold.PLP.Constraint>  (215) 
-0.0000

>  <Gold.Protein.RotatedTorsions>  (215) 
[  681  677  676  673 ] final   87.49 input -179.99 | X-H torsion
[  702  698  697  694 ] final -103.52 input  179.99 | X-H torsion
[ 2577 2569 2568 2566 ] final -123.39 input   -0.13 | X-H torsion
[ 2891 2887 2886 2883 ] final  156.02 input  179.98 | X-H torsion
[ 3175 3171 3170 3167 ] final   53.81 input -179.99 | X-H torsion
[ 5278 5270 5269 5267 ] final  -26.64 input    0.55 | X-H torsion
[  641  637  636  633 ] final  128.56 input  179.99 | X-H torsion
[ 1886 1878 1877 1875 ] final  150.83 input    1.60 | X-H torsion
[  965  957  956  954 ] final  -89.05 input    0.45 | X-H torsion

>  <Gold.Protein.ActiveResidues>  (215) 
 LYS47   THR48   LEU49   GLY50   THR51   GLY52   SER53   PHE54   GLY55   ARG56  
 VAL57   MET58   LEU59   TYR69   ALA70   MET71   LYS72   ILE73   LEU74   GLU91  
 LEU95   VAL104  LYS105  MET118  VAL119  MET120  GLU121  TYR122  VAL123  PRO124 
 GLY125  GLY126  GLU127  MET128  PHE129  TYR164  ASP166  LEU167  LYS168  PRO169 
 GLU170  ASN171  LEU172  LEU173  ILE174  GLN181  VAL182  THR183  ASP184  PHE185 
 GLY186  PHE187  GLY200  THR201  ASN326  PHE327  TYR330  ARG18   ARG19   ASN20  
 ALA21   ILE22   HIS23  

>  <Gold.Protein.RotatedAtoms>  (215) 
   10.9050   19.6839    8.7721 H   0  0  0  0  0  0  0  0  0  0  0  0  # atno 641  bound_to 637 
   17.0039   12.9946    6.1070 H   0  0  0  0  0  0  0  0  0  0  0  0  # atno 681  bound_to 677 
   20.8765   11.5782   -0.5243 H   0  0  0  0  0  0  0  0  0  0  0  0  # atno 702  bound_to 698 
   -6.4435   16.4816   -1.5840 H   0  0  0  0  0  0  0  0  0  0  0  0  # atno 965  bound_to 957 
    0.8058   11.9526   11.0537 H   0  0  0  0  0  0  0  0  0  0  0  0  # atno 1886 bound_to 1878
   11.0676    2.5949   -2.8062 H   0  0  0  0  0  0  0  0  0  0  0  0  # atno 2577 bound_to 2569
    7.6415    6.8932    1.2196 H   0  0  0  0  0  0  0  0  0  0  0  0  # atno 2891 bound_to 2887
   18.5028    2.2667   -1.3736 H   0  0  0  0  0  0  0  0  0  0  0  0  # atno 3175 bound_to 3171
   12.8591    9.8768   10.1889 H   0  0  0  0  0  0  0  0  0  0  0  0  # atno 5278 bound_to 5270
   15.6025   12.8401    6.8476 LP  0  0  0  0  0  0  0  0  0  0  0  0  # atno 5914 bound_to 677 
   16.6746   13.9802    7.3138 LP  0  0  0  0  0  0  0  0  0  0  0  0  # atno 5915 bound_to 677 
   20.4411   11.6681   -2.0540 LP  0  0  0  0  0  0  0  0  0  0  0  0  # atno 5920 bound_to 698 
   19.3413   11.8400   -0.8591 LP  0  0  0  0  0  0  0  0  0  0  0  0  # atno 5921 bound_to 698 
    9.6301    1.9958   -2.4751 LP  0  0  0  0  0  0  0  0  0  0  0  0  # atno 5950 bound_to 2569
    9.7871    3.3362   -3.3944 LP  0  0  0  0  0  0  0  0  0  0  0  0  # atno 5951 bound_to 2569
    8.3496    5.9072    0.1886 LP  0  0  0  0  0  0  0  0  0  0  0  0  # atno 5982 bound_to 2887
    7.2830    5.3430    1.2889 LP  0  0  0  0  0  0  0  0  0  0  0  0  # atno 5983 bound_to 2887
   19.3533    3.0608   -0.2865 LP  0  0  0  0  0  0  0  0  0  0  0  0  # atno 6000 bound_to 3171
   18.0625    2.1624    0.1532 LP  0  0  0  0  0  0  0  0  0  0  0  0  # atno 6001 bound_to 3171
   14.4244    9.9465    9.9029 LP  0  0  0  0  0  0  0  0  0  0  0  0  # atno 6004 bound_to 5270
   13.3425   10.2287    8.7127 LP  0  0  0  0  0  0  0  0  0  0  0  0  # atno 6005 bound_to 5270
    9.5280   19.3982    8.0255 LP  0  0  0  0  0  0  0  0  0  0  0  0  # atno 6055 bound_to 637 
   10.9517   18.9728    7.3483 LP  0  0  0  0  0  0  0  0  0  0  0  0  # atno 6056 bound_to 637 
    2.2530   11.7972   10.4081 LP  0  0  0  0  0  0  0  0  0  0  0  0  # atno 6063 bound_to 1878
    1.2840   10.4989   10.6138 LP  0  0  0  0  0  0  0  0  0  0  0  0  # atno 6064 bound_to 1878
   -7.0851   16.9498   -0.2041 LP  0  0  0  0  0  0  0  0  0  0  0  0  # atno 6067 bound_to 957 
   -6.9367   15.3637   -0.5632 LP  0  0  0  0  0  0  0  0  0  0  0  0  # atno 6068 bound_to 957 

>  <STRIFE_LigEff_Score>  (215) 
2.5923882352941177

$$$$
unknown|pharmsElabsTestPreDocking|sdf|216|dock6
     RDKit          3D

 18 19  0  0  0  0  0  0  0  0999 V2000
   14.5152    9.4557    1.0956 C   0  0  0  0  0  0  0  0  0  0  0  0
   13.7377    8.2272    1.5372 C   0  0  0  0  0  0  0  0  0  0  0  0
   14.0602    7.0045    0.8098 N   0  0  0  0  0  0  0  0  0  0  0  0
   12.2496    8.4433    1.9499 C   0  0  0  0  0  0  0  0  0  0  0  0
   11.5418    7.3031    2.6985 C   0  0  0  0  0  0  0  0  0  0  0  0
   10.0135    7.5002    2.6922 C   0  0  0  0  0  0  0  0  0  0  0  0
    9.5684    8.9582    2.5525 C   0  0  0  0  0  0  0  0  0  0  0  0
    8.0934    9.1742    2.6907 C   0  0  0  0  0  0  0  0  0  0  0  0
    7.5568    9.6073    1.6478 O   0  0  0  0  0  0  0  0  0  0  0  0
    7.2990    8.9264    3.8739 N   0  0  0  0  0  0  0  0  0  0  0  0
    5.8874    9.2696    4.0074 C   0  0  0  0  0  0  0  0  0  0  0  0
    5.0280    9.0923    2.9059 C   0  0  0  0  0  0  0  0  0  0  0  0
    3.6632    9.4001    3.0031 C   0  0  0  0  0  0  0  0  0  0  0  0
    3.1353    9.8980    4.1950 C   0  0  0  0  0  0  0  0  0  0  0  0
    3.9630   10.0795    5.2951 C   0  0  0  0  0  0  0  0  0  0  0  0
    5.3144    9.7592    5.2136 C   0  0  0  0  0  0  0  0  0  0  0  0
   10.5026   10.0971    2.9152 C   0  0  0  0  0  0  0  0  0  0  0  0
   11.9951    9.7804    2.6789 C   0  0  0  0  0  0  0  0  0  0  0  0
  1  2  1  0
  2  3  1  0
  2  4  1  0
  4  5  1  0
  5  6  1  0
  6  7  1  0
  7  8  1  0
  8  9  2  0
  8 10  1  0
 10 11  1  0
 11 12  2  0
 12 13  1  0
 13 14  2  0
 14 15  1  0
 15 16  2  0
  7 17  1  0
 17 18  1  0
 18  4  1  0
 16 11  1  0
M  CHG  1   3   1
M  END
>  <EmbedRMS>  (216) 
0.24964892458419108

>  <Gold.Version>  (216) 
2020.3.0

>  <Gold.Id.Protein>  (216) 
unknown|1q8t_protein|pdb

>  <Gold.PLP.Fitness>  (216) 
55.8197

>  <Gold.PLP.PLP>  (216) 
-47.7042

>  <Gold.PLP.part.hbond>  (216) 
-2.0000

>  <Gold.PLP.part.metal>  (216) 
0.0000

>  <Gold.PLP.part.buried>  (216) 
-1.9494

>  <Gold.PLP.part.nonpolar>  (216) 
-44.2024

>  <Gold.PLP.part.repulsive>  (216) 
0.0776

>  <Gold.PLP.ligand.clash>  (216) 
0.0000

>  <Gold.PLP.ligand.torsion>  (216) 
0.8729

>  <Gold.PLP.Chemscore.Hbond>  (216) 
2.9760

>  <Gold.PLP.Chemscore.CHOScore>  (216) 
0.0000

>  <Gold.PLP.Chemscore.Metal>  (216) 
0.0000

>  <Gold.Chemscore.Hbonds>  (216) 
donor molecule, donor type, donor heavy atom, donor atom, acceptor molecule, acceptor atom, score
      L1  H     3    23       P1  2902  1.98
      L1  H     3    24       P1  2691  0.99

>  <Gold.PLP.Chemscore.Internal.Correction>  (216) 
0.9334

>  <Gold.PLP.Constraint>  (216) 
-0.0000

>  <Gold.Protein.RotatedTorsions>  (216) 
[  681  677  676  673 ] final  -61.36 input -179.99 | X-H torsion
[  702  698  697  694 ] final  137.24 input  179.99 | X-H torsion
[ 2577 2569 2568 2566 ] final  167.01 input   -0.13 | X-H torsion
[ 2891 2887 2886 2883 ] final  154.94 input  179.98 | X-H torsion
[ 3175 3171 3170 3167 ] final  -77.51 input -179.99 | X-H torsion
[ 5278 5270 5269 5267 ] final  -78.74 input    0.55 | X-H torsion
[  641  637  636  633 ] final  -24.28 input  179.99 | X-H torsion
[ 1886 1878 1877 1875 ] final -122.95 input    1.60 | X-H torsion
[  965  957  956  954 ] final   13.27 input    0.45 | X-H torsion

>  <Gold.Protein.ActiveResidues>  (216) 
 LYS47   THR48   LEU49   GLY50   THR51   GLY52   SER53   PHE54   GLY55   ARG56  
 VAL57   MET58   LEU59   TYR69   ALA70   MET71   LYS72   ILE73   LEU74   GLU91  
 LEU95   VAL104  LYS105  MET118  VAL119  MET120  GLU121  TYR122  VAL123  PRO124 
 GLY125  GLY126  GLU127  MET128  PHE129  TYR164  ASP166  LEU167  LYS168  PRO169 
 GLU170  ASN171  LEU172  LEU173  ILE174  GLN181  VAL182  THR183  ASP184  PHE185 
 GLY186  PHE187  GLY200  THR201  ASN326  PHE327  TYR330  ARG18   ARG19   ASN20  
 ALA21   ILE22   HIS23  

>  <Gold.Protein.RotatedAtoms>  (216) 
    9.7243   19.1552    7.6076 H   0  0  0  0  0  0  0  0  0  0  0  0  # atno 641  bound_to 637 
   15.6393   13.1895    7.1455 H   0  0  0  0  0  0  0  0  0  0  0  0  # atno 681  bound_to 677 
   20.4448   11.6833   -2.0056 H   0  0  0  0  0  0  0  0  0  0  0  0  # atno 702  bound_to 698 
   -6.8033   15.3737   -0.8168 H   0  0  0  0  0  0  0  0  0  0  0  0  # atno 965  bound_to 957 
    0.8606   10.7514   10.8246 H   0  0  0  0  0  0  0  0  0  0  0  0  # atno 1886 bound_to 1878
   10.4074    1.9323   -2.3944 H   0  0  0  0  0  0  0  0  0  0  0  0  # atno 2577 bound_to 2569
    7.6525    6.8989    1.2082 H   0  0  0  0  0  0  0  0  0  0  0  0  # atno 2891 bound_to 2887
   19.2688    2.9969   -0.1310 H   0  0  0  0  0  0  0  0  0  0  0  0  # atno 3175 bound_to 3171
   13.5864    9.8120   10.4826 H   0  0  0  0  0  0  0  0  0  0  0  0  # atno 5278 bound_to 5270
   17.0460   13.9272    7.0311 LP  0  0  0  0  0  0  0  0  0  0  0  0  # atno 5914 bound_to 677 
   16.6672   12.6881    6.0372 LP  0  0  0  0  0  0  0  0  0  0  0  0  # atno 5915 bound_to 677 
   19.3379   11.8408   -0.8710 LP  0  0  0  0  0  0  0  0  0  0  0  0  # atno 5920 bound_to 698 
   20.8986   11.5567   -0.4839 LP  0  0  0  0  0  0  0  0  0  0  0  0  # atno 5921 bound_to 698 
    9.2685    2.8157   -3.0709 LP  0  0  0  0  0  0  0  0  0  0  0  0  # atno 5950 bound_to 2569
   10.8439    3.2141   -3.2321 LP  0  0  0  0  0  0  0  0  0  0  0  0  # atno 5951 bound_to 2569
    8.3455    5.8899    0.1892 LP  0  0  0  0  0  0  0  0  0  0  0  0  # atno 5982 bound_to 2887
    7.2754    5.3543    1.3003 LP  0  0  0  0  0  0  0  0  0  0  0  0  # atno 5983 bound_to 2887
   17.9753    2.0793    0.0117 LP  0  0  0  0  0  0  0  0  0  0  0  0  # atno 6000 bound_to 3171
   18.6343    2.3756   -1.4527 LP  0  0  0  0  0  0  0  0  0  0  0  0  # atno 6001 bound_to 3171
   14.3157   10.1420    9.1056 LP  0  0  0  0  0  0  0  0  0  0  0  0  # atno 6004 bound_to 5270
   12.6860   10.1015    9.2010 LP  0  0  0  0  0  0  0  0  0  0  0  0  # atno 6005 bound_to 5270
   11.3133   19.1347    7.7049 LP  0  0  0  0  0  0  0  0  0  0  0  0  # atno 6055 bound_to 637 
   10.4098   19.7930    8.8953 LP  0  0  0  0  0  0  0  0  0  0  0  0  # atno 6056 bound_to 637 
    1.2018   12.3010   10.9574 LP  0  0  0  0  0  0  0  0  0  0  0  0  # atno 6063 bound_to 1878
    2.2775   11.2596   10.3056 LP  0  0  0  0  0  0  0  0  0  0  0  0  # atno 6064 bound_to 1878
   -6.4832   16.7606   -1.5305 LP  0  0  0  0  0  0  0  0  0  0  0  0  # atno 6067 bound_to 957 
   -7.1597   16.7198   -0.0448 LP  0  0  0  0  0  0  0  0  0  0  0  0  # atno 6068 bound_to 957 

>  <STRIFE_LigEff_Score>  (216) 
3.101094444444444

$$$$
unknown|pharmsElabsTestPreDocking|sdf|217|dock6
     RDKit          3D

 17 18  0  0  0  0  0  0  0  0999 V2000
   14.4850    7.4739    3.3668 C   0  0  0  0  0  0  0  0  0  0  0  0
   13.5082    7.9733    2.2916 C   0  0  0  0  0  0  0  0  0  0  0  0
   13.5685    7.1024    1.1121 N   0  0  0  0  0  0  0  0  0  0  0  0
   12.0343    8.2383    2.7619 C   0  0  0  0  0  0  0  0  0  0  0  0
   10.9463    7.4010    2.0635 C   0  0  0  0  0  0  0  0  0  0  0  0
    9.5767    8.0524    2.0011 C   0  0  0  0  0  0  0  0  0  0  0  0
    9.2232    8.7955    3.2840 C   0  0  0  0  0  0  0  0  0  0  0  0
    7.8070    9.3114    3.1936 C   0  0  0  0  0  0  0  0  0  0  0  0
    7.4785   10.0996    2.2617 O   0  0  0  0  0  0  0  0  0  0  0  0
    6.8526    8.9188    4.1868 N   0  0  0  0  0  0  0  0  0  0  0  0
    5.4804    9.3274    4.1946 C   0  0  0  0  0  0  0  0  0  0  0  0
    4.6720    9.2920    3.1133 N   0  0  0  0  0  0  0  0  0  0  0  0
    3.4970    9.7631    3.5776 C   0  0  0  0  0  0  0  0  0  0  0  0
    3.6185   10.0697    4.9151 C   0  0  0  0  0  0  0  0  0  0  0  0
    4.8723    9.7931    5.3000 N   0  0  0  0  0  0  0  0  0  0  0  0
   10.1893    9.9619    3.5207 C   0  0  0  0  0  0  0  0  0  0  0  0
   11.6823    9.6246    3.3414 C   0  0  0  0  0  0  0  0  0  0  0  0
  1  2  1  0
  2  3  1  0
  2  4  1  0
  4  5  1  0
  5  6  1  0
  6  7  1  0
  7  8  1  0
  8  9  2  0
  8 10  1  0
 10 11  1  0
 11 12  2  0
 12 13  1  0
 13 14  2  0
 14 15  1  0
  7 16  1  0
 16 17  1  0
 17  4  1  0
 15 11  1  0
M  CHG  1   3   1
M  END
>  <EmbedRMS>  (217) 
0.16863194066678772

>  <Gold.Version>  (217) 
2020.3.0

>  <Gold.Id.Protein>  (217) 
unknown|1q8t_protein|pdb

>  <Gold.PLP.Fitness>  (217) 
47.5925

>  <Gold.PLP.PLP>  (217) 
-38.1205

>  <Gold.PLP.part.hbond>  (217) 
-2.0000

>  <Gold.PLP.part.metal>  (217) 
0.0000

>  <Gold.PLP.part.buried>  (217) 
-6.0700

>  <Gold.PLP.part.nonpolar>  (217) 
-30.5354

>  <Gold.PLP.part.repulsive>  (217) 
0.0911

>  <Gold.PLP.ligand.clash>  (217) 
0.0000

>  <Gold.PLP.ligand.torsion>  (217) 
1.5513

>  <Gold.PLP.Chemscore.Hbond>  (217) 
3.0000

>  <Gold.PLP.Chemscore.CHOScore>  (217) 
1.0000

>  <Gold.PLP.Chemscore.Metal>  (217) 
0.0000

>  <Gold.Chemscore.Hbonds>  (217) 
donor molecule, donor type, donor heavy atom, donor atom, acceptor molecule, acceptor atom, score
      L1  H     3    23       P1  2902  2.00
      L1  H     3    24       P1  2691  1.00
      L1  C    13    32       P1  1855  1.00

>  <Gold.PLP.Chemscore.Internal.Correction>  (217) 
0.5745

>  <Gold.PLP.Constraint>  (217) 
-0.0000

>  <Gold.Protein.RotatedTorsions>  (217) 
[  681  677  676  673 ] final  137.65 input -179.99 | X-H torsion
[  702  698  697  694 ] final   17.79 input  179.99 | X-H torsion
[ 2577 2569 2568 2566 ] final    3.72 input   -0.13 | X-H torsion
[ 2891 2887 2886 2883 ] final  -38.47 input  179.98 | X-H torsion
[ 3175 3171 3170 3167 ] final  -88.97 input -179.99 | X-H torsion
[ 5278 5270 5269 5267 ] final -109.90 input    0.55 | X-H torsion
[  641  637  636  633 ] final -163.28 input  179.99 | X-H torsion
[ 1886 1878 1877 1875 ] final  -36.64 input    1.60 | X-H torsion
[  965  957  956  954 ] final   22.37 input    0.45 | X-H torsion

>  <Gold.Protein.ActiveResidues>  (217) 
 LYS47   THR48   LEU49   GLY50   THR51   GLY52   SER53   PHE54   GLY55   ARG56  
 VAL57   MET58   LEU59   TYR69   ALA70   MET71   LYS72   ILE73   LEU74   GLU91  
 LEU95   VAL104  LYS105  MET118  VAL119  MET120  GLU121  TYR122  VAL123  PRO124 
 GLY125  GLY126  GLU127  MET128  PHE129  TYR164  ASP166  LEU167  LYS168  PRO169 
 GLU170  ASN171  LEU172  LEU173  ILE174  GLN181  VAL182  THR183  ASP184  PHE185 
 GLY186  PHE187  GLY200  THR201  ASN326  PHE327  TYR330  ARG18   ARG19   ASN20  
 ALA21   ILE22   HIS23  

>  <Gold.Protein.RotatedAtoms>  (217) 
   11.3556   19.2564    7.9841 H   0  0  0  0  0  0  0  0  0  0  0  0  # atno 641  bound_to 637 
   17.2501   13.5752    6.5300 H   0  0  0  0  0  0  0  0  0  0  0  0  # atno 681  bound_to 677 
   19.3825   11.8502   -0.8920 H   0  0  0  0  0  0  0  0  0  0  0  0  # atno 702  bound_to 698 
   -6.8619   15.3814   -0.6878 H   0  0  0  0  0  0  0  0  0  0  0  0  # atno 965  bound_to 957 
    1.9839   10.8137   10.3400 H   0  0  0  0  0  0  0  0  0  0  0  0  # atno 1886 bound_to 1878
    9.7099    3.2458   -3.3576 H   0  0  0  0  0  0  0  0  0  0  0  0  # atno 2577 bound_to 2569
    7.7047    5.1837    0.7368 H   0  0  0  0  0  0  0  0  0  0  0  0  # atno 2891 bound_to 2887
   19.1846    2.9544    0.0208 H   0  0  0  0  0  0  0  0  0  0  0  0  # atno 3175 bound_to 3171
   14.0410    9.8543   10.3302 H   0  0  0  0  0  0  0  0  0  0  0  0  # atno 5278 bound_to 5270
   16.0654   12.5439    6.2672 LP  0  0  0  0  0  0  0  0  0  0  0  0  # atno 5914 bound_to 677 
   15.9525   13.6653    7.4489 LP  0  0  0  0  0  0  0  0  0  0  0  0  # atno 5915 bound_to 677 
   20.8924   11.5577   -0.4774 LP  0  0  0  0  0  0  0  0  0  0  0  0  # atno 5920 bound_to 698 
   20.4616   11.6644   -2.0489 LP  0  0  0  0  0  0  0  0  0  0  0  0  # atno 5921 bound_to 698 
   11.1177    2.6984   -2.8540 LP  0  0  0  0  0  0  0  0  0  0  0  0  # atno 5950 bound_to 2569
    9.7291    1.9483   -2.4349 LP  0  0  0  0  0  0  0  0  0  0  0  0  # atno 5951 bound_to 2569
    7.2424    6.4406    1.5988 LP  0  0  0  0  0  0  0  0  0  0  0  0  # atno 5982 bound_to 2887
    8.3237    6.6088    0.3867 LP  0  0  0  0  0  0  0  0  0  0  0  0  # atno 5983 bound_to 2887
   17.9130    2.0117   -0.1525 LP  0  0  0  0  0  0  0  0  0  0  0  0  # atno 6000 bound_to 3171
   18.7851    2.4879   -1.4484 LP  0  0  0  0  0  0  0  0  0  0  0  0  # atno 6001 bound_to 3171
   13.9325   10.2175    8.7832 LP  0  0  0  0  0  0  0  0  0  0  0  0  # atno 6004 bound_to 5270
   12.5909    9.9814    9.6838 LP  0  0  0  0  0  0  0  0  0  0  0  0  # atno 6005 bound_to 5270
   10.1069   19.7742    8.8253 LP  0  0  0  0  0  0  0  0  0  0  0  0  # atno 6055 bound_to 637 
    9.8982   19.0470    7.3782 LP  0  0  0  0  0  0  0  0  0  0  0  0  # atno 6056 bound_to 637 
    0.5938   11.1662   11.0319 LP  0  0  0  0  0  0  0  0  0  0  0  0  # atno 6063 bound_to 1878
    1.7031   12.3288   10.7412 LP  0  0  0  0  0  0  0  0  0  0  0  0  # atno 6064 bound_to 1878
   -6.4562   16.6272   -1.5925 LP  0  0  0  0  0  0  0  0  0  0  0  0  # atno 6067 bound_to 957 
   -7.1249   16.8450   -0.1187 LP  0  0  0  0  0  0  0  0  0  0  0  0  # atno 6068 bound_to 957 

>  <STRIFE_LigEff_Score>  (217) 
2.799558823529412

$$$$
unknown|pharmsElabsTestPreDocking|sdf|218|dock3
     RDKit          3D

 19 20  0  0  0  0  0  0  0  0999 V2000
    4.4572    8.9991    1.1473 C   0  0  0  0  0  0  0  0  0  0  0  0
    4.6781    9.2821    2.5937 C   0  0  0  0  0  0  0  0  0  0  0  0
    3.6964    9.5544    3.4765 N   0  0  0  0  0  0  0  0  0  0  0  0
    4.2980    9.7278    4.6447 N   0  0  0  0  0  0  0  0  0  0  0  0
    3.5967   10.0709    5.8734 C   0  0  0  0  0  0  0  0  0  0  0  0
    5.6139    9.5978    4.5636 N   0  0  0  0  0  0  0  0  0  0  0  0
    5.8808    9.3088    3.2734 C   0  0  0  0  0  0  0  0  0  0  0  0
    7.2045    9.0579    2.7387 N   0  0  0  0  0  0  0  0  0  0  0  0
    8.3854    9.3211    3.5275 C   0  0  0  0  0  0  0  0  0  0  0  0
    8.2653    9.8715    4.6488 O   0  0  0  0  0  0  0  0  0  0  0  0
    9.8033    9.0012    3.1431 C   0  0  0  0  0  0  0  0  0  0  0  0
    9.9836    7.5989    2.5801 C   0  0  0  0  0  0  0  0  0  0  0  0
   11.4382    7.1698    2.4220 C   0  0  0  0  0  0  0  0  0  0  0  0
   12.4104    8.3447    2.2103 C   0  0  0  0  0  0  0  0  0  0  0  0
   13.8467    7.7791    1.9508 C   0  0  0  0  0  0  0  0  0  0  0  0
   14.3363    6.9723    3.1673 C   0  0  0  0  0  0  0  0  0  0  0  0
   13.9098    6.9313    0.7522 N   0  0  0  0  0  0  0  0  0  0  0  0
   12.3453    9.2816    3.4436 C   0  0  0  0  0  0  0  0  0  0  0  0
   10.9252    9.7042    3.8832 C   0  0  0  0  0  0  0  0  0  0  0  0
  1  2  1  0
  2  3  2  0
  3  4  1  0
  4  5  1  0
  4  6  1  0
  6  7  2  0
  7  8  1  0
  8  9  1  0
  9 10  2  0
  9 11  1  0
 11 12  1  0
 12 13  1  0
 13 14  1  0
 14 15  1  0
 15 16  1  0
 15 17  1  0
 14 18  1  0
 18 19  1  0
  7  2  1  0
 19 11  1  0
M  CHG  1  17   1
M  END
>  <EmbedRMS>  (218) 
0.16952440923283876

>  <Gold.Version>  (218) 
2020.3.0

>  <Gold.Id.Protein>  (218) 
unknown|1q8t_protein|pdb

>  <Gold.PLP.Fitness>  (218) 
50.0331

>  <Gold.PLP.PLP>  (218) 
-41.2089

>  <Gold.PLP.part.hbond>  (218) 
-2.0000

>  <Gold.PLP.part.metal>  (218) 
0.0000

>  <Gold.PLP.part.buried>  (218) 
-6.1737

>  <Gold.PLP.part.nonpolar>  (218) 
-33.9352

>  <Gold.PLP.part.repulsive>  (218) 
0.2525

>  <Gold.PLP.ligand.clash>  (218) 
0.0000

>  <Gold.PLP.ligand.torsion>  (218) 
0.4352

>  <Gold.PLP.Chemscore.Hbond>  (218) 
3.0000

>  <Gold.PLP.Chemscore.CHOScore>  (218) 
0.0000

>  <Gold.PLP.Chemscore.Metal>  (218) 
0.0000

>  <Gold.Chemscore.Hbonds>  (218) 
donor molecule, donor type, donor heavy atom, donor atom, acceptor molecule, acceptor atom, score
      L1  H    17    38       P1  2691  1.00
      L1  H    17    39       P1  2902  2.00

>  <Gold.PLP.Chemscore.Internal.Correction>  (218) 
0.6947

>  <Gold.PLP.Constraint>  (218) 
-0.0000

>  <Gold.Protein.RotatedTorsions>  (218) 
[  681  677  676  673 ] final  -26.11 input -179.99 | X-H torsion
[  702  698  697  694 ] final   72.15 input  179.99 | X-H torsion
[ 2577 2569 2568 2566 ] final  137.04 input   -0.13 | X-H torsion
[ 2891 2887 2886 2883 ] final   19.53 input  179.98 | X-H torsion
[ 3175 3171 3170 3167 ] final  139.54 input -179.99 | X-H torsion
[ 5278 5270 5269 5267 ] final  -20.81 input    0.55 | X-H torsion
[  641  637  636  633 ] final  171.76 input  179.99 | X-H torsion
[ 1886 1878 1877 1875 ] final   61.39 input    1.60 | X-H torsion
[  965  957  956  954 ] final   71.76 input    0.45 | X-H torsion

>  <Gold.Protein.ActiveResidues>  (218) 
 LYS47   THR48   LEU49   GLY50   THR51   GLY52   SER53   PHE54   GLY55   ARG56  
 VAL57   MET58   LEU59   TYR69   ALA70   MET71   LYS72   ILE73   LEU74   GLU91  
 LEU95   VAL104  LYS105  MET118  VAL119  MET120  GLU121  TYR122  VAL123  PRO124 
 GLY125  GLY126  GLU127  MET128  PHE129  TYR164  ASP166  LEU167  LYS168  PRO169 
 GLU170  ASN171  LEU172  LEU173  ILE174  GLN181  VAL182  THR183  ASP184  PHE185 
 GLY186  PHE187  GLY200  THR201  ASN326  PHE327  TYR330  ARG18   ARG19   ASN20  
 ALA21   ILE22   HIS23  

>  <Gold.Protein.RotatedAtoms>  (218) 
   11.3211   19.4331    8.3266 H   0  0  0  0  0  0  0  0  0  0  0  0  # atno 641  bound_to 637 
   15.6649   12.8126    6.7561 H   0  0  0  0  0  0  0  0  0  0  0  0  # atno 681  bound_to 677 
   19.5452   11.8368   -1.6944 H   0  0  0  0  0  0  0  0  0  0  0  0  # atno 702  bound_to 698 
   -7.1205   15.7819   -0.1112 H   0  0  0  0  0  0  0  0  0  0  0  0  # atno 965  bound_to 957 
    1.9573   12.1442   10.5787 H   0  0  0  0  0  0  0  0  0  0  0  0  # atno 1886 bound_to 1878
    9.9452    1.9171   -2.4178 H   0  0  0  0  0  0  0  0  0  0  0  0  # atno 2577 bound_to 2569
    8.2281    5.6758    0.2484 H   0  0  0  0  0  0  0  0  0  0  0  0  # atno 2891 bound_to 2887
   17.9274    1.9760   -0.3393 H   0  0  0  0  0  0  0  0  0  0  0  0  # atno 3175 bound_to 3171
   12.8022    9.8933   10.1196 H   0  0  0  0  0  0  0  0  0  0  0  0  # atno 5278 bound_to 5270
   16.5806   13.9674    7.3593 LP  0  0  0  0  0  0  0  0  0  0  0  0  # atno 5914 bound_to 677 
   17.1058   13.0444    6.1188 LP  0  0  0  0  0  0  0  0  0  0  0  0  # atno 5915 bound_to 677 
   20.0874   11.6951   -0.2034 LP  0  0  0  0  0  0  0  0  0  0  0  0  # atno 5920 bound_to 698 
   21.0955   11.5410   -1.4788 LP  0  0  0  0  0  0  0  0  0  0  0  0  # atno 5921 bound_to 698 
    9.5126    3.1705   -3.2994 LP  0  0  0  0  0  0  0  0  0  0  0  0  # atno 5950 bound_to 2569
   11.0864    2.8752   -2.9791 LP  0  0  0  0  0  0  0  0  0  0  0  0  # atno 5951 bound_to 2569
    7.1877    5.5408    1.4467 LP  0  0  0  0  0  0  0  0  0  0  0  0  # atno 5982 bound_to 2887
    7.8275    6.9907    1.0529 LP  0  0  0  0  0  0  0  0  0  0  0  0  # atno 5983 bound_to 2887
   18.9303    2.6009   -1.4068 LP  0  0  0  0  0  0  0  0  0  0  0  0  # atno 6000 bound_to 3171
   19.0910    2.9283    0.1850 LP  0  0  0  0  0  0  0  0  0  0  0  0  # atno 6001 bound_to 3171
   14.3893    9.9247    9.9895 LP  0  0  0  0  0  0  0  0  0  0  0  0  # atno 6004 bound_to 5270
   13.4374   10.2331    8.6990 LP  0  0  0  0  0  0  0  0  0  0  0  0  # atno 6005 bound_to 5270
    9.7741   19.6824    8.6090 LP  0  0  0  0  0  0  0  0  0  0  0  0  # atno 6055 bound_to 637 
   10.2674   18.9527    7.2339 LP  0  0  0  0  0  0  0  0  0  0  0  0  # atno 6056 bound_to 637 
    1.7381   10.5745   10.4265 LP  0  0  0  0  0  0  0  0  0  0  0  0  # atno 6063 bound_to 1878
    0.5867   11.5199   11.0954 LP  0  0  0  0  0  0  0  0  0  0  0  0  # atno 6064 bound_to 1878
   -6.4759   15.8401   -1.5658 LP  0  0  0  0  0  0  0  0  0  0  0  0  # atno 6067 bound_to 957 
   -6.8329   17.2105   -0.7527 LP  0  0  0  0  0  0  0  0  0  0  0  0  # atno 6068 bound_to 957 

>  <STRIFE_LigEff_Score>  (218) 
2.6333210526315787

$$$$
unknown|pharmsElabsTestPreDocking|sdf|219|dock1
     RDKit          3D

 18 19  0  0  0  0  0  0  0  0999 V2000
   14.8471    7.8126    3.4456 C   0  0  0  0  0  0  0  0  0  0  0  0
   13.8886    8.1573    2.2957 C   0  0  0  0  0  0  0  0  0  0  0  0
   14.0385    7.1864    1.2058 N   0  0  0  0  0  0  0  0  0  0  0  0
   12.3866    8.3833    2.6885 C   0  0  0  0  0  0  0  0  0  0  0  0
   11.3765    7.4040    2.0622 C   0  0  0  0  0  0  0  0  0  0  0  0
    9.9785    7.9604    1.8792 C   0  0  0  0  0  0  0  0  0  0  0  0
    9.5333    8.8210    3.0566 C   0  0  0  0  0  0  0  0  0  0  0  0
    8.1015    9.2399    2.8479 C   0  0  0  0  0  0  0  0  0  0  0  0
    7.8027    9.9091    1.8225 O   0  0  0  0  0  0  0  0  0  0  0  0
    7.1138    8.8968    3.8316 N   0  0  0  0  0  0  0  0  0  0  0  0
    5.7037    9.1944    3.7896 C   0  0  0  0  0  0  0  0  0  0  0  0
    5.0634    9.5635    4.9824 C   0  0  0  0  0  0  0  0  0  0  0  0
    3.7031    9.8663    4.9898 C   0  0  0  0  0  0  0  0  0  0  0  0
    2.9822    9.7995    3.7996 C   0  0  0  0  0  0  0  0  0  0  0  0
    3.6043    9.4421    2.6490 N   0  0  0  0  0  0  0  0  0  0  0  0
    4.9264    9.1417    2.6111 C   0  0  0  0  0  0  0  0  0  0  0  0
   10.4198   10.0646    3.1889 C   0  0  0  0  0  0  0  0  0  0  0  0
   11.9345    9.8036    3.0871 C   0  0  0  0  0  0  0  0  0  0  0  0
  1  2  1  0
  2  3  1  0
  2  4  1  0
  4  5  1  0
  5  6  1  0
  6  7  1  0
  7  8  1  0
  8  9  2  0
  8 10  1  0
 10 11  1  0
 11 12  2  0
 12 13  1  0
 13 14  2  0
 14 15  1  0
 15 16  2  0
  7 17  1  0
 17 18  1  0
 18  4  1  0
 16 11  1  0
M  CHG  1   3   1
M  END
>  <EmbedRMS>  (219) 
0.16496192233382964

>  <Gold.Version>  (219) 
2020.3.0

>  <Gold.Id.Protein>  (219) 
unknown|1q8t_protein|pdb

>  <Gold.PLP.Fitness>  (219) 
51.9493

>  <Gold.PLP.PLP>  (219) 
-42.4262

>  <Gold.PLP.part.hbond>  (219) 
-2.0000

>  <Gold.PLP.part.metal>  (219) 
0.0000

>  <Gold.PLP.part.buried>  (219) 
-2.7142

>  <Gold.PLP.part.nonpolar>  (219) 
-37.7732

>  <Gold.PLP.part.repulsive>  (219) 
0.1359

>  <Gold.PLP.ligand.clash>  (219) 
0.0000

>  <Gold.PLP.ligand.torsion>  (219) 
1.4562

>  <Gold.PLP.Chemscore.Hbond>  (219) 
3.0000

>  <Gold.PLP.Chemscore.CHOScore>  (219) 
0.9521

>  <Gold.PLP.Chemscore.Metal>  (219) 
0.0000

>  <Gold.Chemscore.Hbonds>  (219) 
donor molecule, donor type, donor heavy atom, donor atom, acceptor molecule, acceptor atom, score
      L1  H     3    23       P1  2691  1.00
      L1  H     3    25       P1  2902  2.00
      L1  C    14    35       P1  1855  0.95

>  <Gold.PLP.Chemscore.Internal.Correction>  (219) 
0.5793

>  <Gold.PLP.Constraint>  (219) 
-0.0000

>  <Gold.Protein.RotatedTorsions>  (219) 
[  681  677  676  673 ] final  126.71 input -179.99 | X-H torsion
[  702  698  697  694 ] final -149.56 input  179.99 | X-H torsion
[ 2577 2569 2568 2566 ] final -107.00 input   -0.13 | X-H torsion
[ 2891 2887 2886 2883 ] final  150.51 input  179.98 | X-H torsion
[ 3175 3171 3170 3167 ] final  -24.00 input -179.99 | X-H torsion
[ 5278 5270 5269 5267 ] final   54.61 input    0.55 | X-H torsion
[  641  637  636  633 ] final  -59.97 input  179.99 | X-H torsion
[ 1886 1878 1877 1875 ] final -116.31 input    1.60 | X-H torsion
[  965  957  956  954 ] final  -14.22 input    0.45 | X-H torsion

>  <Gold.Protein.ActiveResidues>  (219) 
 LYS47   THR48   LEU49   GLY50   THR51   GLY52   SER53   PHE54   GLY55   ARG56  
 VAL57   MET58   LEU59   TYR69   ALA70   MET71   LYS72   ILE73   LEU74   GLU91  
 LEU95   VAL104  LYS105  MET118  VAL119  MET120  GLU121  TYR122  VAL123  PRO124 
 GLY125  GLY126  GLU127  MET128  PHE129  TYR164  ASP166  LEU167  LYS168  PRO169 
 GLU170  ASN171  LEU172  LEU173  ILE174  GLN181  VAL182  THR183  ASP184  PHE185 
 GLY186  PHE187  GLY200  THR201  ASN326  PHE327  TYR330  ARG18   ARG19   ASN20  
 ALA21   ILE22   HIS23  

>  <Gold.Protein.RotatedAtoms>  (219) 
   10.1531   18.9808    7.3129 H   0  0  0  0  0  0  0  0  0  0  0  0  # atno 641  bound_to 637 
   17.2470   13.4529    6.4107 H   0  0  0  0  0  0  0  0  0  0  0  0  # atno 681  bound_to 677 
   21.1141   11.5488   -1.1832 H   0  0  0  0  0  0  0  0  0  0  0  0  # atno 702  bound_to 698 
   -6.6323   15.4851   -1.1902 H   0  0  0  0  0  0  0  0  0  0  0  0  # atno 965  bound_to 957 
    0.9327   10.6899   10.7824 H   0  0  0  0  0  0  0  0  0  0  0  0  # atno 1886 bound_to 1878
   11.0558    2.8040   -2.9522 H   0  0  0  0  0  0  0  0  0  0  0  0  # atno 2577 bound_to 2569
    7.6982    6.9191    1.1601 H   0  0  0  0  0  0  0  0  0  0  0  0  # atno 2891 bound_to 2887
   19.3061    2.9195   -0.9329 H   0  0  0  0  0  0  0  0  0  0  0  0  # atno 3175 bound_to 3171
   12.8414   10.1560    9.0562 H   0  0  0  0  0  0  0  0  0  0  0  0  # atno 5278 bound_to 5270
   15.9245   12.5663    6.3767 LP  0  0  0  0  0  0  0  0  0  0  0  0  # atno 5914 bound_to 677 
   16.0967   13.7716    7.4650 LP  0  0  0  0  0  0  0  0  0  0  0  0  # atno 5915 bound_to 677 
   19.7257   11.7924   -1.9251 LP  0  0  0  0  0  0  0  0  0  0  0  0  # atno 5920 bound_to 698 
   19.8068   11.7466   -0.2948 LP  0  0  0  0  0  0  0  0  0  0  0  0  # atno 5921 bound_to 698 
    9.8684    1.9026   -2.3930 LP  0  0  0  0  0  0  0  0  0  0  0  0  # atno 5950 bound_to 2569
    9.5613    3.2093   -3.3228 LP  0  0  0  0  0  0  0  0  0  0  0  0  # atno 5951 bound_to 2569
    8.3266    5.8197    0.1943 LP  0  0  0  0  0  0  0  0  0  0  0  0  # atno 5982 bound_to 2887
    7.2463    5.4032    1.3458 LP  0  0  0  0  0  0  0  0  0  0  0  0  # atno 5983 bound_to 2887
   18.5472    2.5562    0.4190 LP  0  0  0  0  0  0  0  0  0  0  0  0  # atno 6000 bound_to 3171
   18.0231    1.9801   -1.0162 LP  0  0  0  0  0  0  0  0  0  0  0  0  # atno 6001 bound_to 3171
   13.3707    9.7853   10.5119 LP  0  0  0  0  0  0  0  0  0  0  0  0  # atno 6004 bound_to 5270
   14.4149   10.0962    9.2955 LP  0  0  0  0  0  0  0  0  0  0  0  0  # atno 6005 bound_to 5270
   11.3988   19.3908    8.2158 LP  0  0  0  0  0  0  0  0  0  0  0  0  # atno 6055 bound_to 637 
    9.8728   19.7206    8.6946 LP  0  0  0  0  0  0  0  0  0  0  0  0  # atno 6056 bound_to 637 
    1.1073   12.2586   10.9919 LP  0  0  0  0  0  0  0  0  0  0  0  0  # atno 6063 bound_to 1878
    2.2962   11.3667   10.3156 LP  0  0  0  0  0  0  0  0  0  0  0  0  # atno 6064 bound_to 1878
   -6.6123   17.0764   -1.2400 LP  0  0  0  0  0  0  0  0  0  0  0  0  # atno 6067 bound_to 957 
   -7.2107   16.2867    0.0580 LP  0  0  0  0  0  0  0  0  0  0  0  0  # atno 6068 bound_to 957 

>  <STRIFE_LigEff_Score>  (219) 
2.8860722222222224

$$$$
unknown|pharmsElabsTestPreDocking|sdf|220|dock5
     RDKit          3D

 19 20  0  0  0  0  0  0  0  0999 V2000
    4.2351    9.1448    1.3959 C   0  0  0  0  0  0  0  0  0  0  0  0
    4.2025    9.3146    2.8855 C   0  0  0  0  0  0  0  0  0  0  0  0
    3.0019    9.5966    3.4655 N   0  0  0  0  0  0  0  0  0  0  0  0
    2.8768    9.8369    4.7953 C   0  0  0  0  0  0  0  0  0  0  0  0
    4.0032    9.8073    5.6157 C   0  0  0  0  0  0  0  0  0  0  0  0
    5.2514    9.5090    5.0588 C   0  0  0  0  0  0  0  0  0  0  0  0
    5.3725    9.2352    3.6868 C   0  0  0  0  0  0  0  0  0  0  0  0
    6.6711    8.9131    3.1251 N   0  0  0  0  0  0  0  0  0  0  0  0
    7.8859    9.4068    3.7249 C   0  0  0  0  0  0  0  0  0  0  0  0
    7.8189   10.3518    4.5473 O   0  0  0  0  0  0  0  0  0  0  0  0
    9.2745    8.8894    3.4755 C   0  0  0  0  0  0  0  0  0  0  0  0
    9.3359    7.4103    3.1875 C   0  0  0  0  0  0  0  0  0  0  0  0
   10.6786    6.9747    2.6234 C   0  0  0  0  0  0  0  0  0  0  0  0
   11.9250    7.6083    3.2572 C   0  0  0  0  0  0  0  0  0  0  0  0
   13.1924    7.5068    2.3722 C   0  0  0  0  0  0  0  0  0  0  0  0
   14.5424    7.2958    3.0559 C   0  0  0  0  0  0  0  0  0  0  0  0
   13.2483    8.5539    1.3501 N   0  0  0  0  0  0  0  0  0  0  0  0
   11.7665    9.0508    3.8067 C   0  0  0  0  0  0  0  0  0  0  0  0
   10.3846    9.4535    4.3194 C   0  0  0  0  0  0  0  0  0  0  0  0
  1  2  1  0
  2  3  2  0
  3  4  1  0
  4  5  2  0
  5  6  1  0
  6  7  2  0
  7  8  1  0
  8  9  1  0
  9 10  2  0
  9 11  1  0
 11 12  1  0
 12 13  1  0
 13 14  1  0
 14 15  1  0
 15 16  1  0
 15 17  1  0
 14 18  1  0
 18 19  1  0
  7  2  1  0
 19 11  1  0
M  CHG  1  17   1
M  END
>  <EmbedRMS>  (220) 
0.2853630319469779

>  <Gold.Version>  (220) 
2020.3.0

>  <Gold.Id.Protein>  (220) 
unknown|1q8t_protein|pdb

>  <Gold.PLP.Fitness>  (220) 
52.3333

>  <Gold.PLP.PLP>  (220) 
-47.4968

>  <Gold.PLP.part.hbond>  (220) 
-1.8464

>  <Gold.PLP.part.metal>  (220) 
0.0000

>  <Gold.PLP.part.buried>  (220) 
-0.3394

>  <Gold.PLP.part.nonpolar>  (220) 
-46.1732

>  <Gold.PLP.part.repulsive>  (220) 
0.1774

>  <Gold.PLP.ligand.clash>  (220) 
0.0000

>  <Gold.PLP.ligand.torsion>  (220) 
1.0640

>  <Gold.PLP.Chemscore.Hbond>  (220) 
2.0000

>  <Gold.PLP.Chemscore.CHOScore>  (220) 
0.0000

>  <Gold.PLP.Chemscore.Metal>  (220) 
0.0000

>  <Gold.Chemscore.Hbonds>  (220) 
donor molecule, donor type, donor heavy atom, donor atom, acceptor molecule, acceptor atom, score
      L1  H    17    38       P1  2902  2.00

>  <Gold.PLP.Chemscore.Internal.Correction>  (220) 
0.9645

>  <Gold.PLP.Constraint>  (220) 
-0.0000

>  <Gold.Protein.RotatedTorsions>  (220) 
[  681  677  676  673 ] final  -51.13 input -179.99 | X-H torsion
[  702  698  697  694 ] final  -50.46 input  179.99 | X-H torsion
[ 2577 2569 2568 2566 ] final  -73.04 input   -0.13 | X-H torsion
[ 2891 2887 2886 2883 ] final   -1.63 input  179.98 | X-H torsion
[ 3175 3171 3170 3167 ] final   98.01 input -179.99 | X-H torsion
[ 5278 5270 5269 5267 ] final   60.86 input    0.55 | X-H torsion
[  641  637  636  633 ] final -157.52 input  179.99 | X-H torsion
[ 1886 1878 1877 1875 ] final  145.97 input    1.60 | X-H torsion
[  965  957  956  954 ] final -153.25 input    0.45 | X-H torsion

>  <Gold.Protein.ActiveResidues>  (220) 
 LYS47   THR48   LEU49   GLY50   THR51   GLY52   SER53   PHE54   GLY55   ARG56  
 VAL57   MET58   LEU59   TYR69   ALA70   MET71   LYS72   ILE73   LEU74   GLU91  
 LEU95   VAL104  LYS105  MET118  VAL119  MET120  GLU121  TYR122  VAL123  PRO124 
 GLY125  GLY126  GLU127  MET128  PHE129  TYR164  ASP166  LEU167  LYS168  PRO169 
 GLU170  ASN171  LEU172  LEU173  ILE174  GLN181  VAL182  THR183  ASP184  PHE185 
 GLY186  PHE187  GLY200  THR201  ASN326  PHE327  TYR330  ARG18   ARG19   ASN20  
 ALA21   ILE22   HIS23  

>  <Gold.Protein.RotatedAtoms>  (220) 
   11.3396   19.2167    7.9048 H   0  0  0  0  0  0  0  0  0  0  0  0  # atno 641  bound_to 637 
   15.6150   13.0700    7.0421 H   0  0  0  0  0  0  0  0  0  0  0  0  # atno 681  bound_to 677 
   20.1373   11.7039   -0.2439 H   0  0  0  0  0  0  0  0  0  0  0  0  # atno 702  bound_to 698 
   -6.7212   17.1443   -0.9602 H   0  0  0  0  0  0  0  0  0  0  0  0  # atno 965  bound_to 957 
    0.8531   12.0111   11.0428 H   0  0  0  0  0  0  0  0  0  0  0  0  # atno 1886 bound_to 1878
   10.8120    3.1755   -3.2281 H   0  0  0  0  0  0  0  0  0  0  0  0  # atno 2577 bound_to 2569
    8.0690    5.4148    0.3702 H   0  0  0  0  0  0  0  0  0  0  0  0  # atno 2891 bound_to 2887
   18.0491    1.9845   -0.9627 H   0  0  0  0  0  0  0  0  0  0  0  0  # atno 3175 bound_to 3171
   12.9079   10.1738    8.9868 H   0  0  0  0  0  0  0  0  0  0  0  0  # atno 5278 bound_to 5270
   16.9274   13.9665    7.1436 LP  0  0  0  0  0  0  0  0  0  0  0  0  # atno 5914 bound_to 677 
   16.8115   12.7744    6.0335 LP  0  0  0  0  0  0  0  0  0  0  0  0  # atno 5915 bound_to 677 
   21.0793   11.5446   -1.5185 LP  0  0  0  0  0  0  0  0  0  0  0  0  # atno 5920 bound_to 698 
   19.4808   11.8313   -1.6896 LP  0  0  0  0  0  0  0  0  0  0  0  0  # atno 5921 bound_to 698 
   10.4177    1.9044   -2.3540 LP  0  0  0  0  0  0  0  0  0  0  0  0  # atno 5950 bound_to 2569
    9.2687    2.8163   -3.0714 LP  0  0  0  0  0  0  0  0  0  0  0  0  # atno 5951 bound_to 2569
    7.1350    5.8547    1.5829 LP  0  0  0  0  0  0  0  0  0  0  0  0  # atno 5982 bound_to 2887
    8.0476    6.9514    0.7885 LP  0  0  0  0  0  0  0  0  0  0  0  0  # atno 5983 bound_to 2887
   19.3195    2.9443   -0.9855 LP  0  0  0  0  0  0  0  0  0  0  0  0  # atno 6000 bound_to 3171
   18.5736    2.5759    0.4197 LP  0  0  0  0  0  0  0  0  0  0  0  0  # atno 6001 bound_to 3171
   13.2704    9.7898   10.4894 LP  0  0  0  0  0  0  0  0  0  0  0  0  # atno 6004 bound_to 5270
   14.4451   10.0729    9.3910 LP  0  0  0  0  0  0  0  0  0  0  0  0  # atno 6005 bound_to 5270
   10.1961   19.7849    8.8559 LP  0  0  0  0  0  0  0  0  0  0  0  0  # atno 6055 bound_to 637 
    9.8259   19.0780    7.4312 LP  0  0  0  0  0  0  0  0  0  0  0  0  # atno 6056 bound_to 637 
    2.2748   11.7235   10.3859 LP  0  0  0  0  0  0  0  0  0  0  0  0  # atno 6063 bound_to 1878
    1.2125   10.5111   10.6474 LP  0  0  0  0  0  0  0  0  0  0  0  0  # atno 6064 bound_to 1878
   -7.1941   15.9782    0.0152 LP  0  0  0  0  0  0  0  0  0  0  0  0  # atno 6067 bound_to 957 
   -6.5353   15.6375   -1.4396 LP  0  0  0  0  0  0  0  0  0  0  0  0  # atno 6068 bound_to 957 

>  <STRIFE_LigEff_Score>  (220) 
2.754384210526316

$$$$
unknown|pharmsElabsTestPreDocking|sdf|221|dock10
     RDKit          3D

 16 16  0  0  0  0  0  0  0  0999 V2000
   13.8341    7.4430    3.7328 C   0  0  0  0  0  0  0  0  0  0  0  0
   12.9799    7.9406    2.5570 C   0  0  0  0  0  0  0  0  0  0  0  0
   13.3026    7.1825    1.3429 N   0  0  0  0  0  0  0  0  0  0  0  0
   11.4336    8.0286    2.8109 C   0  0  0  0  0  0  0  0  0  0  0  0
   10.5375    7.4663    1.6914 C   0  0  0  0  0  0  0  0  0  0  0  0
    9.1617    8.0982    1.5946 C   0  0  0  0  0  0  0  0  0  0  0  0
    8.5463    8.3704    2.9621 C   0  0  0  0  0  0  0  0  0  0  0  0
    7.1402    8.8857    2.7836 C   0  0  0  0  0  0  0  0  0  0  0  0
    6.7401    9.2392    1.6387 O   0  0  0  0  0  0  0  0  0  0  0  0
    6.2785    8.9935    3.9246 N   0  0  0  0  0  0  0  0  0  0  0  0
    4.8827    9.4589    3.8802 C   0  0  0  0  0  0  0  0  0  0  0  0
    4.2853    9.4962    5.2982 C   0  0  0  0  0  0  0  0  0  0  0  0
    4.8567   10.8835    3.2997 C   0  0  0  0  0  0  0  0  0  0  0  0
    4.0446    8.5428    2.9712 C   0  0  0  0  0  0  0  0  0  0  0  0
    9.3797    9.3943    3.7410 C   0  0  0  0  0  0  0  0  0  0  0  0
   10.8999    9.1430    3.7351 C   0  0  0  0  0  0  0  0  0  0  0  0
  1  2  1  0
  2  3  1  0
  2  4  1  0
  4  5  1  0
  5  6  1  0
  6  7  1  0
  7  8  1  0
  8  9  2  0
  8 10  1  0
 10 11  1  0
 11 12  1  0
 11 13  1  0
 11 14  1  0
  7 15  1  0
 15 16  1  0
 16  4  1  0
M  CHG  1   3   1
M  END
>  <EmbedRMS>  (221) 
0.17423024192686873

>  <Gold.Version>  (221) 
2020.3.0

>  <Gold.Id.Protein>  (221) 
unknown|1q8t_protein|pdb

>  <Gold.PLP.Fitness>  (221) 
41.7507

>  <Gold.PLP.PLP>  (221) 
-34.2328

>  <Gold.PLP.part.hbond>  (221) 
-2.1471

>  <Gold.PLP.part.metal>  (221) 
0.0000

>  <Gold.PLP.part.buried>  (221) 
-1.6942

>  <Gold.PLP.part.nonpolar>  (221) 
-31.0846

>  <Gold.PLP.part.repulsive>  (221) 
0.0318

>  <Gold.PLP.ligand.clash>  (221) 
0.0000

>  <Gold.PLP.ligand.torsion>  (221) 
1.0253

>  <Gold.PLP.Chemscore.Hbond>  (221) 
3.0000

>  <Gold.PLP.Chemscore.CHOScore>  (221) 
0.0000

>  <Gold.PLP.Chemscore.Metal>  (221) 
0.0000

>  <Gold.Chemscore.Hbonds>  (221) 
donor molecule, donor type, donor heavy atom, donor atom, acceptor molecule, acceptor atom, score
      L1  H     3    21       P1  2691  1.00
      L1  H     3    23       P1  2902  2.00

>  <Gold.PLP.Chemscore.Internal.Correction>  (221) 
0.5686

>  <Gold.PLP.Constraint>  (221) 
-0.0000

>  <Gold.Protein.RotatedTorsions>  (221) 
[  681  677  676  673 ] final   74.98 input -179.99 | X-H torsion
[  702  698  697  694 ] final  112.43 input  179.99 | X-H torsion
[ 2577 2569 2568 2566 ] final  -12.06 input   -0.13 | X-H torsion
[ 2891 2887 2886 2883 ] final  -68.23 input  179.98 | X-H torsion
[ 3175 3171 3170 3167 ] final  -76.54 input -179.99 | X-H torsion
[ 5278 5270 5269 5267 ] final  -30.22 input    0.55 | X-H torsion
[  641  637  636  633 ] final   88.00 input  179.99 | X-H torsion
[ 1886 1878 1877 1875 ] final  102.92 input    1.60 | X-H torsion
[  965  957  956  954 ] final   28.56 input    0.45 | X-H torsion

>  <Gold.Protein.ActiveResidues>  (221) 
 LYS47   THR48   LEU49   GLY50   THR51   GLY52   SER53   PHE54   GLY55   ARG56  
 VAL57   MET58   LEU59   TYR69   ALA70   MET71   LYS72   ILE73   LEU74   GLU91  
 LEU95   VAL104  LYS105  MET118  VAL119  MET120  GLU121  TYR122  VAL123  PRO124 
 GLY125  GLY126  GLU127  MET128  PHE129  TYR164  ASP166  LEU167  LYS168  PRO169 
 GLU170  ASN171  LEU172  LEU173  ILE174  GLN181  VAL182  THR183  ASP184  PHE185 
 GLY186  PHE187  GLY200  THR201  ASN326  PHE327  TYR330  ARG18   ARG19   ASN20  
 ALA21   ILE22   HIS23  

>  <Gold.Protein.RotatedAtoms>  (221) 
   10.2926   19.7547    8.8439 H   0  0  0  0  0  0  0  0  0  0  0  0  # atno 641  bound_to 637 
   16.8629   12.8658    6.0666 H   0  0  0  0  0  0  0  0  0  0  0  0  # atno 681  bound_to 677 
   20.0658   11.7507   -2.0143 H   0  0  0  0  0  0  0  0  0  0  0  0  # atno 702  bound_to 698 
   -6.9011   15.3995   -0.6013 H   0  0  0  0  0  0  0  0  0  0  0  0  # atno 965  bound_to 957 
    1.4065   12.3077   10.8494 H   0  0  0  0  0  0  0  0  0  0  0  0  # atno 1886 bound_to 1878
    9.9346    3.3346   -3.4028 H   0  0  0  0  0  0  0  0  0  0  0  0  # atno 2577 bound_to 2569
    7.4159    5.2540    1.0881 H   0  0  0  0  0  0  0  0  0  0  0  0  # atno 2891 bound_to 2887
   19.2749    2.9995   -0.1447 H   0  0  0  0  0  0  0  0  0  0  0  0  # atno 3175 bound_to 3171
   12.8974    9.8674   10.2285 H   0  0  0  0  0  0  0  0  0  0  0  0  # atno 5278 bound_to 5270
   15.5766   12.9766    6.9989 LP  0  0  0  0  0  0  0  0  0  0  0  0  # atno 5914 bound_to 677 
   16.8489   13.9794    7.2050 LP  0  0  0  0  0  0  0  0  0  0  0  0  # atno 5915 bound_to 677 
   19.5282   11.8002   -0.5157 LP  0  0  0  0  0  0  0  0  0  0  0  0  # atno 5920 bound_to 698 
   21.1071   11.5264   -0.8300 LP  0  0  0  0  0  0  0  0  0  0  0  0  # atno 5921 bound_to 698 
   11.0893    2.4861   -2.7087 LP  0  0  0  0  0  0  0  0  0  0  0  0  # atno 5950 bound_to 2569
    9.5209    2.0670   -2.5326 LP  0  0  0  0  0  0  0  0  0  0  0  0  # atno 5951 bound_to 2569
    7.4852    6.8129    1.4068 LP  0  0  0  0  0  0  0  0  0  0  0  0  # atno 5982 bound_to 2887
    8.3847    6.1624    0.2091 LP  0  0  0  0  0  0  0  0  0  0  0  0  # atno 5983 bound_to 2887
   17.9818    2.0858    0.0247 LP  0  0  0  0  0  0  0  0  0  0  0  0  # atno 6000 bound_to 3171
   18.6214    2.3662   -1.4514 LP  0  0  0  0  0  0  0  0  0  0  0  0  # atno 6001 bound_to 3171
   14.4413    9.9601    9.8482 LP  0  0  0  0  0  0  0  0  0  0  0  0  # atno 6004 bound_to 5270
   13.2853   10.2249    8.7257 LP  0  0  0  0  0  0  0  0  0  0  0  0  # atno 6005 bound_to 5270
    9.7628   19.1104    7.4877 LP  0  0  0  0  0  0  0  0  0  0  0  0  # atno 6055 bound_to 637 
   11.3618   19.1859    7.8104 LP  0  0  0  0  0  0  0  0  0  0  0  0  # atno 6056 bound_to 637 
    2.2008   11.0408   10.3021 LP  0  0  0  0  0  0  0  0  0  0  0  0  # atno 6063 bound_to 1878
    0.7039   10.8814   10.9349 LP  0  0  0  0  0  0  0  0  0  0  0  0  # atno 6064 bound_to 1878
   -6.4431   16.5312   -1.6234 LP  0  0  0  0  0  0  0  0  0  0  0  0  # atno 6067 bound_to 957 
   -7.0968   16.9221   -0.1789 LP  0  0  0  0  0  0  0  0  0  0  0  0  # atno 6068 bound_to 957 

>  <STRIFE_LigEff_Score>  (221) 
2.60941875

$$$$
unknown|pharmsElabsTestPreDocking|sdf|222|dock1
     RDKit          3D

 14 14  0  0  0  0  0  0  0  0999 V2000
    4.0952    9.5590    5.3024 C   0  0  0  0  0  0  0  0  0  0  0  0
    5.0399   10.0101    4.1953 C   0  0  0  0  0  0  0  0  0  0  0  0
    6.3477    9.3826    4.3531 N   0  0  0  0  0  0  0  0  0  0  0  0
    7.3537    9.4331    3.3342 C   0  0  0  0  0  0  0  0  0  0  0  0
    7.1572   10.0993    2.2791 O   0  0  0  0  0  0  0  0  0  0  0  0
    8.6581    8.7112    3.5408 C   0  0  0  0  0  0  0  0  0  0  0  0
    8.9719    7.8228    2.3384 C   0  0  0  0  0  0  0  0  0  0  0  0
   10.2093    6.9698    2.5803 C   0  0  0  0  0  0  0  0  0  0  0  0
   11.4203    7.7082    3.2108 C   0  0  0  0  0  0  0  0  0  0  0  0
   12.7773    7.7121    2.4791 C   0  0  0  0  0  0  0  0  0  0  0  0
   14.0514    7.7365    3.3232 C   0  0  0  0  0  0  0  0  0  0  0  0
   12.8323    8.7234    1.4145 N   0  0  0  0  0  0  0  0  0  0  0  0
   11.1299    9.0228    3.9978 C   0  0  0  0  0  0  0  0  0  0  0  0
    9.7932    9.7119    3.7295 C   0  0  0  0  0  0  0  0  0  0  0  0
  1  2  1  0
  2  3  1  0
  3  4  1  0
  4  5  2  0
  4  6  1  0
  6  7  1  0
  7  8  1  0
  8  9  1  0
  9 10  1  0
 10 11  1  0
 10 12  1  0
  9 13  1  0
 13 14  1  0
 14  6  1  0
M  CHG  1  12   1
M  END
>  <EmbedRMS>  (222) 
0.22880006867790334

>  <Gold.Version>  (222) 
2020.3.0

>  <Gold.Id.Protein>  (222) 
unknown|1q8t_protein|pdb

>  <Gold.PLP.Fitness>  (222) 
33.9732

>  <Gold.PLP.PLP>  (222) 
-28.6357

>  <Gold.PLP.part.hbond>  (222) 
-1.0000

>  <Gold.PLP.part.metal>  (222) 
0.0000

>  <Gold.PLP.part.buried>  (222) 
-0.0271

>  <Gold.PLP.part.nonpolar>  (222) 
-27.6559

>  <Gold.PLP.part.repulsive>  (222) 
0.0000

>  <Gold.PLP.ligand.clash>  (222) 
0.0000

>  <Gold.PLP.ligand.torsion>  (222) 
0.5274

>  <Gold.PLP.Chemscore.Hbond>  (222) 
2.0000

>  <Gold.PLP.Chemscore.CHOScore>  (222) 
0.0000

>  <Gold.PLP.Chemscore.Metal>  (222) 
0.0000

>  <Gold.Chemscore.Hbonds>  (222) 
donor molecule, donor type, donor heavy atom, donor atom, acceptor molecule, acceptor atom, score
      L1  H    12    33       P1  2902  2.00

>  <Gold.PLP.Chemscore.Internal.Correction>  (222) 
0.3924

>  <Gold.PLP.Constraint>  (222) 
-0.0000

>  <Gold.Protein.RotatedTorsions>  (222) 
[  681  677  676  673 ] final   66.18 input -179.99 | X-H torsion
[  702  698  697  694 ] final  -81.25 input  179.99 | X-H torsion
[ 2577 2569 2568 2566 ] final   -1.65 input   -0.13 | X-H torsion
[ 2891 2887 2886 2883 ] final  -41.84 input  179.98 | X-H torsion
[ 3175 3171 3170 3167 ] final   17.03 input -179.99 | X-H torsion
[ 5278 5270 5269 5267 ] final -178.84 input    0.55 | X-H torsion
[  641  637  636  633 ] final  174.51 input  179.99 | X-H torsion
[ 1886 1878 1877 1875 ] final   76.81 input    1.60 | X-H torsion
[  965  957  956  954 ] final   41.04 input    0.45 | X-H torsion

>  <Gold.Protein.ActiveResidues>  (222) 
 LYS47   THR48   LEU49   GLY50   THR51   GLY52   SER53   PHE54   GLY55   ARG56  
 VAL57   MET58   LEU59   TYR69   ALA70   MET71   LYS72   ILE73   LEU74   GLU91  
 LEU95   VAL104  LYS105  MET118  VAL119  MET120  GLU121  TYR122  VAL123  PRO124 
 GLY125  GLY126  GLU127  MET128  PHE129  TYR164  ASP166  LEU167  LYS168  PRO169 
 GLU170  ASN171  LEU172  LEU173  ILE174  GLN181  VAL182  THR183  ASP184  PHE185 
 GLY186  PHE187  GLY200  THR201  ASN326  PHE327  TYR330  ARG18   ARG19   ASN20  
 ALA21   ILE22   HIS23  

>  <Gold.Protein.RotatedAtoms>  (222) 
   11.3331   19.4139    8.2901 H   0  0  0  0  0  0  0  0  0  0  0  0  # atno 641  bound_to 637 
   16.7510   12.7864    6.0572 H   0  0  0  0  0  0  0  0  0  0  0  0  # atno 681  bound_to 677 
   20.5998   11.6234   -0.3214 H   0  0  0  0  0  0  0  0  0  0  0  0  # atno 702  bound_to 698 
   -6.9763   15.4663   -0.4347 H   0  0  0  0  0  0  0  0  0  0  0  0  # atno 965  bound_to 957 
    1.7705   12.2563   10.6802 H   0  0  0  0  0  0  0  0  0  0  0  0  # atno 1886 bound_to 1878
    9.7832    3.2816   -3.3771 H   0  0  0  0  0  0  0  0  0  0  0  0  # atno 2577 bound_to 2569
    7.6699    5.1798    0.7762 H   0  0  0  0  0  0  0  0  0  0  0  0  # atno 2891 bound_to 2887
   18.9548    2.6049   -1.3473 H   0  0  0  0  0  0  0  0  0  0  0  0  # atno 3175 bound_to 3171
   14.4007   10.0849    9.4103 H   0  0  0  0  0  0  0  0  0  0  0  0  # atno 5278 bound_to 5270
   15.5829   13.0812    7.0987 LP  0  0  0  0  0  0  0  0  0  0  0  0  # atno 5914 bound_to 677 
   16.9603   13.9583    7.1150 LP  0  0  0  0  0  0  0  0  0  0  0  0  # atno 5915 bound_to 677 
   20.7679   11.6073   -1.9053 LP  0  0  0  0  0  0  0  0  0  0  0  0  # atno 5920 bound_to 698 
   19.3056   11.8533   -1.2212 LP  0  0  0  0  0  0  0  0  0  0  0  0  # atno 5921 bound_to 698 
   11.1160    2.6258   -2.8037 LP  0  0  0  0  0  0  0  0  0  0  0  0  # atno 5950 bound_to 2569
    9.6536    1.9832   -2.4647 LP  0  0  0  0  0  0  0  0  0  0  0  0  # atno 5951 bound_to 2569
    7.2640    6.4900    1.5857 LP  0  0  0  0  0  0  0  0  0  0  0  0  # atno 5982 bound_to 2887
    8.3387    6.5635    0.3584 LP  0  0  0  0  0  0  0  0  0  0  0  0  # atno 5983 bound_to 2887
   19.0640    2.9118    0.2114 LP  0  0  0  0  0  0  0  0  0  0  0  0  # atno 6000 bound_to 3171
   17.8761    1.9555   -0.3725 LP  0  0  0  0  0  0  0  0  0  0  0  0  # atno 6001 bound_to 3171
   12.8791   10.1662    8.9468 LP  0  0  0  0  0  0  0  0  0  0  0  0  # atno 6004 bound_to 5270
   13.2657    9.7901   10.4881 LP  0  0  0  0  0  0  0  0  0  0  0  0  # atno 6005 bound_to 5270
    9.8054   19.6958    8.6388 LP  0  0  0  0  0  0  0  0  0  0  0  0  # atno 6055 bound_to 637 
   10.2235   18.9595    7.2425 LP  0  0  0  0  0  0  0  0  0  0  0  0  # atno 6056 bound_to 637 
    1.9431   10.7064   10.3587 LP  0  0  0  0  0  0  0  0  0  0  0  0  # atno 6063 bound_to 1878
    0.5785   11.2700   11.0564 LP  0  0  0  0  0  0  0  0  0  0  0  0  # atno 6064 bound_to 1878
   -6.4301   16.3293   -1.6562 LP  0  0  0  0  0  0  0  0  0  0  0  0  # atno 6067 bound_to 957 
   -7.0306   17.0536   -0.3215 LP  0  0  0  0  0  0  0  0  0  0  0  0  # atno 6068 bound_to 957 

>  <STRIFE_LigEff_Score>  (222) 
2.4266571428571426

$$$$
unknown|pharmsElabsTestPreDocking|sdf|223|dock2
     RDKit          3D

 18 18  0  0  0  0  0  0  0  0999 V2000
    5.1909    9.1998    1.3689 C   0  0  0  0  0  0  0  0  0  0  0  0
    4.7649    9.0874    2.6298 C   0  0  0  0  0  0  0  0  0  0  0  0
    3.2957    8.8808    2.8999 C   0  0  0  0  0  0  0  0  0  0  0  0
    5.7258    9.3136    3.7497 C   0  0  0  0  0  0  0  0  0  0  0  0
    5.3658   10.0888    4.7900 C   0  0  0  0  0  0  0  0  0  0  0  0
    6.2795   10.3912    5.9370 C   0  0  0  0  0  0  0  0  0  0  0  0
    7.0764    8.8123    3.6789 N   0  0  0  0  0  0  0  0  0  0  0  0
    8.0777    9.2847    2.7696 C   0  0  0  0  0  0  0  0  0  0  0  0
    7.7796   10.1031    1.8536 O   0  0  0  0  0  0  0  0  0  0  0  0
    9.5010    8.8030    2.9252 C   0  0  0  0  0  0  0  0  0  0  0  0
    9.9215    8.0319    1.6799 C   0  0  0  0  0  0  0  0  0  0  0  0
   11.3030    7.4167    1.8144 C   0  0  0  0  0  0  0  0  0  0  0  0
   12.3428    8.3004    2.5292 C   0  0  0  0  0  0  0  0  0  0  0  0
   13.8402    8.0596    2.1238 C   0  0  0  0  0  0  0  0  0  0  0  0
   14.8143    7.7558    3.2721 C   0  0  0  0  0  0  0  0  0  0  0  0
   13.9761    7.0502    1.0675 N   0  0  0  0  0  0  0  0  0  0  0  0
   11.9357    9.6931    3.0544 C   0  0  0  0  0  0  0  0  0  0  0  0
   10.4293    9.9988    3.1644 C   0  0  0  0  0  0  0  0  0  0  0  0
  1  2  2  0
  2  3  1  0
  2  4  1  0
  4  5  2  0
  5  6  1  0
  4  7  1  0
  7  8  1  0
  8  9  2  0
  8 10  1  0
 10 11  1  0
 11 12  1  0
 12 13  1  0
 13 14  1  0
 14 15  1  0
 14 16  1  0
 13 17  1  0
 17 18  1  0
 18 10  1  0
M  CHG  1  16   1
M  END
>  <EmbedRMS>  (223) 
0.16480955270904202

>  <Gold.Version>  (223) 
2020.3.0

>  <Gold.Id.Protein>  (223) 
unknown|1q8t_protein|pdb

>  <Gold.PLP.Fitness>  (223) 
47.6011

>  <Gold.PLP.PLP>  (223) 
-41.5787

>  <Gold.PLP.part.hbond>  (223) 
-2.0000

>  <Gold.PLP.part.metal>  (223) 
0.0000

>  <Gold.PLP.part.buried>  (223) 
-3.0842

>  <Gold.PLP.part.nonpolar>  (223) 
-36.7969

>  <Gold.PLP.part.repulsive>  (223) 
0.0648

>  <Gold.PLP.ligand.clash>  (223) 
0.0000

>  <Gold.PLP.ligand.torsion>  (223) 
2.3190

>  <Gold.PLP.Chemscore.Hbond>  (223) 
3.0000

>  <Gold.PLP.Chemscore.CHOScore>  (223) 
0.0000

>  <Gold.PLP.Chemscore.Metal>  (223) 
0.0000

>  <Gold.Chemscore.Hbonds>  (223) 
donor molecule, donor type, donor heavy atom, donor atom, acceptor molecule, acceptor atom, score
      L1  H    16    40       P1  2691  1.00
      L1  H    16    41       P1  2902  2.00

>  <Gold.PLP.Chemscore.Internal.Correction>  (223) 
1.6603

>  <Gold.PLP.Constraint>  (223) 
-0.0000

>  <Gold.Protein.RotatedTorsions>  (223) 
[  681  677  676  673 ] final -166.20 input -179.99 | X-H torsion
[  702  698  697  694 ] final -127.32 input  179.99 | X-H torsion
[ 2577 2569 2568 2566 ] final   46.13 input   -0.13 | X-H torsion
[ 2891 2887 2886 2883 ] final   39.27 input  179.98 | X-H torsion
[ 3175 3171 3170 3167 ] final -158.91 input -179.99 | X-H torsion
[ 5278 5270 5269 5267 ] final   96.63 input    0.55 | X-H torsion
[  641  637  636  633 ] final   20.91 input  179.99 | X-H torsion
[ 1886 1878 1877 1875 ] final -163.51 input    1.60 | X-H torsion
[  965  957  956  954 ] final  151.61 input    0.45 | X-H torsion

>  <Gold.Protein.ActiveResidues>  (223) 
 LYS47   THR48   LEU49   GLY50   THR51   GLY52   SER53   PHE54   GLY55   ARG56  
 VAL57   MET58   LEU59   TYR69   ALA70   MET71   LYS72   ILE73   LEU74   GLU91  
 LEU95   VAL104  LYS105  MET118  VAL119  MET120  GLU121  TYR122  VAL123  PRO124 
 GLY125  GLY126  GLU127  MET128  PHE129  TYR164  ASP166  LEU167  LYS168  PRO169 
 GLU170  ASN171  LEU172  LEU173  ILE174  GLN181  VAL182  THR183  ASP184  PHE185 
 GLY186  PHE187  GLY200  THR201  ASN326  PHE327  TYR330  ARG18   ARG19   ASN20  
 ALA21   ILE22   HIS23  

>  <Gold.Protein.RotatedAtoms>  (223) 
    9.5926   19.4681    8.2059 H   0  0  0  0  0  0  0  0  0  0  0  0  # atno 641  bound_to 637 
   16.8365   13.9526    7.1604 H   0  0  0  0  0  0  0  0  0  0  0  0  # atno 681  bound_to 677 
   21.0654   11.5509   -0.8410 H   0  0  0  0  0  0  0  0  0  0  0  0  # atno 702  bound_to 698 
   -7.0537   16.9225   -0.2342 H   0  0  0  0  0  0  0  0  0  0  0  0  # atno 965  bound_to 957 
    0.6143   11.2853   11.0243 H   0  0  0  0  0  0  0  0  0  0  0  0  # atno 1886 bound_to 1878
    9.3188    2.8086   -3.0827 H   0  0  0  0  0  0  0  0  0  0  0  0  # atno 2577 bound_to 2569
    8.3184    5.9671    0.2136 H   0  0  0  0  0  0  0  0  0  0  0  0  # atno 2891 bound_to 2887
   18.3800    2.3997    0.3357 H   0  0  0  0  0  0  0  0  0  0  0  0  # atno 3175 bound_to 3171
   13.4020   10.2367    8.7529 H   0  0  0  0  0  0  0  0  0  0  0  0  # atno 5278 bound_to 5270
   16.8770   12.8217    6.0399 LP  0  0  0  0  0  0  0  0  0  0  0  0  # atno 5914 bound_to 677 
   15.5763   12.9903    7.0127 LP  0  0  0  0  0  0  0  0  0  0  0  0  # atno 5915 bound_to 677 
   20.0582   11.7361   -2.0611 LP  0  0  0  0  0  0  0  0  0  0  0  0  # atno 5920 bound_to 698 
   19.5255   11.8008   -0.5189 LP  0  0  0  0  0  0  0  0  0  0  0  0  # atno 5921 bound_to 698 
   10.8540    3.2059   -3.2257 LP  0  0  0  0  0  0  0  0  0  0  0  0  # atno 5950 bound_to 2569
   10.4046    1.9012   -2.3527 LP  0  0  0  0  0  0  0  0  0  0  0  0  # atno 5951 bound_to 2569
    7.3067    5.3106    1.2537 LP  0  0  0  0  0  0  0  0  0  0  0  0  # atno 5982 bound_to 2887
    7.6135    6.9142    1.2825 LP  0  0  0  0  0  0  0  0  0  0  0  0  # atno 5983 bound_to 2887
   18.1599    2.0569   -1.2037 LP  0  0  0  0  0  0  0  0  0  0  0  0  # atno 6000 bound_to 3171
   19.3850    3.0265   -0.7286 LP  0  0  0  0  0  0  0  0  0  0  0  0  # atno 6001 bound_to 3171
   12.7898    9.8624   10.1748 LP  0  0  0  0  0  0  0  0  0  0  0  0  # atno 6004 bound_to 5270
   14.4059    9.9342    9.9518 LP  0  0  0  0  0  0  0  0  0  0  0  0  # atno 6005 bound_to 5270
   10.7677   18.9425    7.2689 LP  0  0  0  0  0  0  0  0  0  0  0  0  # atno 6055 bound_to 637 
   11.0941   19.6557    8.7012 LP  0  0  0  0  0  0  0  0  0  0  0  0  # atno 6056 bound_to 637 
    1.7996   12.2956   10.6930 LP  0  0  0  0  0  0  0  0  0  0  0  0  # atno 6063 bound_to 1878
    1.9390   10.7030   10.3599 LP  0  0  0  0  0  0  0  0  0  0  0  0  # atno 6064 bound_to 1878
   -6.9410   15.3668   -0.5538 LP  0  0  0  0  0  0  0  0  0  0  0  0  # atno 6067 bound_to 957 
   -6.4382   16.4824   -1.6351 LP  0  0  0  0  0  0  0  0  0  0  0  0  # atno 6068 bound_to 957 

>  <STRIFE_LigEff_Score>  (223) 
2.644505555555556

$$$$
unknown|pharmsElabsTestPreDocking|sdf|224|dock6
     RDKit          3D

 17 18  0  0  0  0  0  0  0  0999 V2000
   14.3153    9.5011    1.1388 C   0  0  0  0  0  0  0  0  0  0  0  0
   13.5552    8.2660    1.5920 C   0  0  0  0  0  0  0  0  0  0  0  0
   13.8263    7.0613    0.8153 N   0  0  0  0  0  0  0  0  0  0  0  0
   12.0948    8.4801    2.0964 C   0  0  0  0  0  0  0  0  0  0  0  0
   11.3826    7.2884    2.7559 C   0  0  0  0  0  0  0  0  0  0  0  0
    9.8622    7.5290    2.8454 C   0  0  0  0  0  0  0  0  0  0  0  0
    9.4581    9.0054    2.8732 C   0  0  0  0  0  0  0  0  0  0  0  0
    7.9996    9.2537    3.1175 C   0  0  0  0  0  0  0  0  0  0  0  0
    7.7669   10.1140    3.9982 O   0  0  0  0  0  0  0  0  0  0  0  0
    6.9013    8.5961    2.4516 N   0  0  0  0  0  0  0  0  0  0  0  0
    5.5193    8.8079    2.8371 C   0  0  0  0  0  0  0  0  0  0  0  0
    4.4028    8.8520    2.0075 C   0  0  0  0  0  0  0  0  0  0  0  0
    3.3497    9.0884    2.8615 C   0  0  0  0  0  0  0  0  0  0  0  0
    3.8049    9.1845    4.1253 N   0  0  0  0  0  0  0  0  0  0  0  0
    5.1183    9.0144    4.1042 N   0  0  0  0  0  0  0  0  0  0  0  0
   10.4480   10.0727    3.3055 C   0  0  0  0  0  0  0  0  0  0  0  0
   11.9182    9.7388    2.9716 C   0  0  0  0  0  0  0  0  0  0  0  0
  1  2  1  0
  2  3  1  0
  2  4  1  0
  4  5  1  0
  5  6  1  0
  6  7  1  0
  7  8  1  0
  8  9  2  0
  8 10  1  0
 10 11  1  0
 11 12  2  0
 12 13  1  0
 13 14  2  0
 14 15  1  0
  7 16  1  0
 16 17  1  0
 17  4  1  0
 15 11  1  0
M  CHG  1   3   1
M  END
>  <EmbedRMS>  (224) 
0.2562538106174641

>  <Gold.Version>  (224) 
2020.3.0

>  <Gold.Id.Protein>  (224) 
unknown|1q8t_protein|pdb

>  <Gold.PLP.Fitness>  (224) 
47.8985

>  <Gold.PLP.PLP>  (224) 
-34.8164

>  <Gold.PLP.part.hbond>  (224) 
-2.9890

>  <Gold.PLP.part.metal>  (224) 
0.0000

>  <Gold.PLP.part.buried>  (224) 
-5.2054

>  <Gold.PLP.part.nonpolar>  (224) 
-27.3414

>  <Gold.PLP.part.repulsive>  (224) 
0.1701

>  <Gold.PLP.ligand.clash>  (224) 
0.0000

>  <Gold.PLP.ligand.torsion>  (224) 
0.8202

>  <Gold.PLP.Chemscore.Hbond>  (224) 
3.5868

>  <Gold.PLP.Chemscore.CHOScore>  (224) 
1.0000

>  <Gold.PLP.Chemscore.Metal>  (224) 
0.0000

>  <Gold.Chemscore.Hbonds>  (224) 
donor molecule, donor type, donor heavy atom, donor atom, acceptor molecule, acceptor atom, score
      L1  H     3    22       P1  2902  2.00
      L1  H     3    24       P1  2691  0.99
      L1  H    10    31       P1  2887  0.59
      L1  C    13    33       P1  1855  1.00

>  <Gold.PLP.Chemscore.Internal.Correction>  (224) 
0.9622

>  <Gold.PLP.Constraint>  (224) 
-0.0000

>  <Gold.Protein.RotatedTorsions>  (224) 
[  681  677  676  673 ] final -140.45 input -179.99 | X-H torsion
[  702  698  697  694 ] final   80.12 input  179.99 | X-H torsion
[ 2577 2569 2568 2566 ] final  -64.61 input   -0.13 | X-H torsion
[ 2891 2887 2886 2883 ] final  -20.49 input  179.98 | X-H torsion
[ 3175 3171 3170 3167 ] final  178.35 input -179.99 | X-H torsion
[ 5278 5270 5269 5267 ] final  125.41 input    0.55 | X-H torsion
[  641  637  636  633 ] final  -52.43 input  179.99 | X-H torsion
[ 1886 1878 1877 1875 ] final  106.46 input    1.60 | X-H torsion
[  965  957  956  954 ] final   -3.06 input    0.45 | X-H torsion

>  <Gold.Protein.ActiveResidues>  (224) 
 LYS47   THR48   LEU49   GLY50   THR51   GLY52   SER53   PHE54   GLY55   ARG56  
 VAL57   MET58   LEU59   TYR69   ALA70   MET71   LYS72   ILE73   LEU74   GLU91  
 LEU95   VAL104  LYS105  MET118  VAL119  MET120  GLU121  TYR122  VAL123  PRO124 
 GLY125  GLY126  GLU127  MET128  PHE129  TYR164  ASP166  LEU167  LYS168  PRO169 
 GLU170  ASN171  LEU172  LEU173  ILE174  GLN181  VAL182  THR183  ASP184  PHE185 
 GLY186  PHE187  GLY200  THR201  ASN326  PHE327  TYR330  ARG18   ARG19   ASN20  
 ALA21   ILE22   HIS23  

>  <Gold.Protein.RotatedAtoms>  (224) 
   10.0461   19.0077    7.3539 H   0  0  0  0  0  0  0  0  0  0  0  0  # atno 641  bound_to 637 
   16.4864   13.9254    7.3503 H   0  0  0  0  0  0  0  0  0  0  0  0  # atno 681  bound_to 677 
   19.6285   11.8238   -1.7861 H   0  0  0  0  0  0  0  0  0  0  0  0  # atno 702  bound_to 698 
   -6.6990   15.4161   -1.0450 H   0  0  0  0  0  0  0  0  0  0  0  0  # atno 965  bound_to 957 
    1.3560   12.3006   10.8705 H   0  0  0  0  0  0  0  0  0  0  0  0  # atno 1886 bound_to 1878
   10.7128    3.2430   -3.2822 H   0  0  0  0  0  0  0  0  0  0  0  0  # atno 2577 bound_to 2569
    7.8899    5.2552    0.5394 H   0  0  0  0  0  0  0  0  0  0  0  0  # atno 2891 bound_to 2887
   18.1408    2.2007    0.1688 H   0  0  0  0  0  0  0  0  0  0  0  0  # atno 3175 bound_to 3171
   13.8448   10.2296    8.8004 H   0  0  0  0  0  0  0  0  0  0  0  0  # atno 5278 bound_to 5270
   17.1566   13.1132    6.1556 LP  0  0  0  0  0  0  0  0  0  0  0  0  # atno 5914 bound_to 677 
   15.6651   12.7275    6.6972 LP  0  0  0  0  0  0  0  0  0  0  0  0  # atno 5915 bound_to 677 
   19.9617   11.7179   -0.2320 LP  0  0  0  0  0  0  0  0  0  0  0  0  # atno 5920 bound_to 698 
   21.1336   11.5318   -1.3538 LP  0  0  0  0  0  0  0  0  0  0  0  0  # atno 5921 bound_to 698 
   10.5485    1.9460   -2.3733 LP  0  0  0  0  0  0  0  0  0  0  0  0  # atno 5950 bound_to 2569
    9.2424    2.7037   -2.9951 LP  0  0  0  0  0  0  0  0  0  0  0  0  # atno 5951 bound_to 2569
    7.1592    6.1594    1.6279 LP  0  0  0  0  0  0  0  0  0  0  0  0  # atno 5982 bound_to 2887
    8.2120    6.8147    0.5655 LP  0  0  0  0  0  0  0  0  0  0  0  0  # atno 5983 bound_to 2887
   18.4264    2.2288   -1.3975 LP  0  0  0  0  0  0  0  0  0  0  0  0  # atno 6000 bound_to 3171
   19.3703    3.0640   -0.3591 LP  0  0  0  0  0  0  0  0  0  0  0  0  # atno 6001 bound_to 3171
   12.6004    9.9632    9.7581 LP  0  0  0  0  0  0  0  0  0  0  0  0  # atno 6004 bound_to 5270
   14.1293    9.8409   10.3185 LP  0  0  0  0  0  0  0  0  0  0  0  0  # atno 6005 bound_to 5270
   11.4108   19.3342    8.1062 LP  0  0  0  0  0  0  0  0  0  0  0  0  # atno 6055 bound_to 637 
    9.9735   19.7489    8.7611 LP  0  0  0  0  0  0  0  0  0  0  0  0  # atno 6056 bound_to 637 
    2.2245   11.0939   10.3007 LP  0  0  0  0  0  0  0  0  0  0  0  0  # atno 6063 bound_to 1878
    0.7333   10.8358   10.9141 LP  0  0  0  0  0  0  0  0  0  0  0  0  # atno 6064 bound_to 1878
   -6.5523   16.9670   -1.3743 LP  0  0  0  0  0  0  0  0  0  0  0  0  # atno 6067 bound_to 957 
   -7.2004   16.4687    0.0393 LP  0  0  0  0  0  0  0  0  0  0  0  0  # atno 6068 bound_to 957 

>  <STRIFE_LigEff_Score>  (224) 
2.817558823529412

$$$$
unknown|pharmsElabsTestPreDocking|sdf|225|dock10
     RDKit          3D

 13 13  0  0  0  0  0  0  0  0999 V2000
    5.1410    8.8714    2.6851 C   0  0  0  0  0  0  0  0  0  0  0  0
    6.5378    8.8355    2.2451 N   0  0  0  0  0  0  0  0  0  0  0  0
    7.5907    9.0584    3.1942 C   0  0  0  0  0  0  0  0  0  0  0  0
    7.2930    9.3631    4.3757 O   0  0  0  0  0  0  0  0  0  0  0  0
    9.0584    8.9345    2.9109 C   0  0  0  0  0  0  0  0  0  0  0  0
    9.5963    7.5012    2.9182 C   0  0  0  0  0  0  0  0  0  0  0  0
   11.1322    7.3966    2.8167 C   0  0  0  0  0  0  0  0  0  0  0  0
   11.7289    8.6351    2.1295 C   0  0  0  0  0  0  0  0  0  0  0  0
   13.1981    8.5445    1.6134 C   0  0  0  0  0  0  0  0  0  0  0  0
   13.8290    9.8288    1.1029 C   0  0  0  0  0  0  0  0  0  0  0  0
   13.5786    7.3419    0.8799 N   0  0  0  0  0  0  0  0  0  0  0  0
   11.4469    9.8873    2.9844 C   0  0  0  0  0  0  0  0  0  0  0  0
    9.9543   10.0937    3.3189 C   0  0  0  0  0  0  0  0  0  0  0  0
  1  2  1  0
  2  3  1  0
  3  4  2  0
  3  5  1  0
  5  6  1  0
  6  7  1  0
  7  8  1  0
  8  9  1  0
  9 10  1  0
  9 11  1  0
  8 12  1  0
 12 13  1  0
 13  5  1  0
M  CHG  1  11   1
M  END
>  <EmbedRMS>  (225) 
0.29639754771625826

>  <Gold.Version>  (225) 
2020.3.0

>  <Gold.Id.Protein>  (225) 
unknown|1q8t_protein|pdb

>  <Gold.PLP.Fitness>  (225) 
34.0542

>  <Gold.PLP.PLP>  (225) 
-25.1814

>  <Gold.PLP.part.hbond>  (225) 
-2.3952

>  <Gold.PLP.part.metal>  (225) 
0.0000

>  <Gold.PLP.part.buried>  (225) 
-2.8638

>  <Gold.PLP.part.nonpolar>  (225) 
-19.7882

>  <Gold.PLP.part.repulsive>  (225) 
0.0512

>  <Gold.PLP.ligand.clash>  (225) 
0.0000

>  <Gold.PLP.ligand.torsion>  (225) 
0.5181

>  <Gold.PLP.Chemscore.Hbond>  (225) 
2.9600

>  <Gold.PLP.Chemscore.CHOScore>  (225) 
0.0000

>  <Gold.PLP.Chemscore.Metal>  (225) 
0.0000

>  <Gold.Chemscore.Hbonds>  (225) 
donor molecule, donor type, donor heavy atom, donor atom, acceptor molecule, acceptor atom, score
      L1  H    11    29       P1  2691  0.96
      L1  H    11    30       P1  2902  2.00

>  <Gold.PLP.Chemscore.Internal.Correction>  (225) 
1.0290

>  <Gold.PLP.Constraint>  (225) 
-0.0000

>  <Gold.Protein.RotatedTorsions>  (225) 
[  681  677  676  673 ] final  146.28 input -179.99 | X-H torsion
[  702  698  697  694 ] final -113.27 input  179.99 | X-H torsion
[ 2577 2569 2568 2566 ] final  154.49 input   -0.13 | X-H torsion
[ 2891 2887 2886 2883 ] final   17.56 input  179.98 | X-H torsion
[ 3175 3171 3170 3167 ] final -122.46 input -179.99 | X-H torsion
[ 5278 5270 5269 5267 ] final  157.94 input    0.55 | X-H torsion
[  641  637  636  633 ] final   74.20 input  179.99 | X-H torsion
[ 1886 1878 1877 1875 ] final   97.55 input    1.60 | X-H torsion
[  965  957  956  954 ] final   91.36 input    0.45 | X-H torsion

>  <Gold.Protein.ActiveResidues>  (225) 
 LYS47   THR48   LEU49   GLY50   THR51   GLY52   SER53   PHE54   GLY55   ARG56  
 VAL57   MET58   LEU59   TYR69   ALA70   MET71   LYS72   ILE73   LEU74   GLU91  
 LEU95   VAL104  LYS105  MET118  VAL119  MET120  GLU121  TYR122  VAL123  PRO124 
 GLY125  GLY126  GLU127  MET128  PHE129  TYR164  ASP166  LEU167  LYS168  PRO169 
 GLU170  ASN171  LEU172  LEU173  ILE174  GLN181  VAL182  THR183  ASP184  PHE185 
 GLY186  PHE187  GLY200  THR201  ASN326  PHE327  TYR330  ARG18   ARG19   ASN20  
 ALA21   ILE22   HIS23  

>  <Gold.Protein.RotatedAtoms>  (225) 
   10.0885   19.7331    8.7792 H   0  0  0  0  0  0  0  0  0  0  0  0  # atno 641  bound_to 637 
   17.2316   13.6641    6.6297 H   0  0  0  0  0  0  0  0  0  0  0  0  # atno 681  bound_to 677 
   20.9695   11.5641   -0.6443 H   0  0  0  0  0  0  0  0  0  0  0  0  # atno 702  bound_to 698 
   -7.1680   16.0622   -0.0011 H   0  0  0  0  0  0  0  0  0  0  0  0  # atno 965  bound_to 957 
    1.4835   12.3120   10.8162 H   0  0  0  0  0  0  0  0  0  0  0  0  # atno 1886 bound_to 1878
   10.2147    1.9016   -2.3873 H   0  0  0  0  0  0  0  0  0  0  0  0  # atno 2577 bound_to 2569
    8.2158    5.6487    0.2563 H   0  0  0  0  0  0  0  0  0  0  0  0  # atno 2891 bound_to 2887
   18.8309    2.7321    0.3239 H   0  0  0  0  0  0  0  0  0  0  0  0  # atno 3175 bound_to 3171
   14.2466   10.1615    9.0934 H   0  0  0  0  0  0  0  0  0  0  0  0  # atno 5278 bound_to 5270
   16.1864   12.5447    6.1930 LP  0  0  0  0  0  0  0  0  0  0  0  0  # atno 5914 bound_to 677 
   15.8511   13.5709    7.4182 LP  0  0  0  0  0  0  0  0  0  0  0  0  # atno 5915 bound_to 677 
   20.2849   11.6962   -2.0765 LP  0  0  0  0  0  0  0  0  0  0  0  0  # atno 5920 bound_to 698 
   19.3998   11.8268   -0.7104 LP  0  0  0  0  0  0  0  0  0  0  0  0  # atno 5921 bound_to 698 
    9.3433    2.9755   -3.1764 LP  0  0  0  0  0  0  0  0  0  0  0  0  # atno 5950 bound_to 2569
   10.9720    3.0865   -3.1342 LP  0  0  0  0  0  0  0  0  0  0  0  0  # atno 5951 bound_to 2569
    7.1793    5.5677    1.4628 LP  0  0  0  0  0  0  0  0  0  0  0  0  # atno 5982 bound_to 2887
    7.8489    6.9923    1.0285 LP  0  0  0  0  0  0  0  0  0  0  0  0  # atno 5983 bound_to 2887
   17.8996    1.9314   -0.6896 LP  0  0  0  0  0  0  0  0  0  0  0  0  # atno 6000 bound_to 3171
   19.1708    2.8021   -1.2302 LP  0  0  0  0  0  0  0  0  0  0  0  0  # atno 6001 bound_to 3171
   12.6631   10.0894    9.2491 LP  0  0  0  0  0  0  0  0  0  0  0  0  # atno 6004 bound_to 5270
   13.6438    9.7863   10.5192 LP  0  0  0  0  0  0  0  0  0  0  0  0  # atno 6005 bound_to 5270
    9.9317   19.0344    7.3572 LP  0  0  0  0  0  0  0  0  0  0  0  0  # atno 6055 bound_to 637 
   11.4079   19.2847    8.0090 LP  0  0  0  0  0  0  0  0  0  0  0  0  # atno 6056 bound_to 637 
    2.1592   10.9631   10.3072 LP  0  0  0  0  0  0  0  0  0  0  0  0  # atno 6063 bound_to 1878
    0.6644   10.9547   10.9647 LP  0  0  0  0  0  0  0  0  0  0  0  0  # atno 6064 bound_to 1878
   -6.5576   15.5833   -1.3915 LP  0  0  0  0  0  0  0  0  0  0  0  0  # atno 6067 bound_to 957 
   -6.7012   17.1721   -1.0429 LP  0  0  0  0  0  0  0  0  0  0  0  0  # atno 6068 bound_to 957 

>  <STRIFE_LigEff_Score>  (225) 
2.6195538461538463

$$$$
unknown|pharmsElabsTestPreDocking|sdf|226|dock3
     RDKit          3D

 17 18  0  0  0  0  0  0  0  0999 V2000
   14.1759    7.9464    3.4127 C   0  0  0  0  0  0  0  0  0  0  0  0
   13.1850    8.2204    2.2687 C   0  0  0  0  0  0  0  0  0  0  0  0
   13.3737    7.2424    1.1933 N   0  0  0  0  0  0  0  0  0  0  0  0
   11.6771    8.3832    2.6766 C   0  0  0  0  0  0  0  0  0  0  0  0
   10.7145    7.5295    1.8525 C   0  0  0  0  0  0  0  0  0  0  0  0
    9.2531    7.6299    2.2593 C   0  0  0  0  0  0  0  0  0  0  0  0
    8.8277    9.0400    2.5911 C   0  0  0  0  0  0  0  0  0  0  0  0
    7.3409    9.2180    2.6849 C   0  0  0  0  0  0  0  0  0  0  0  0
    6.8348    9.7201    1.6578 O   0  0  0  0  0  0  0  0  0  0  0  0
    6.4927    8.8623    3.7985 N   0  0  0  0  0  0  0  0  0  0  0  0
    5.1063    9.1734    3.8164 N   0  0  0  0  0  0  0  0  0  0  0  0
    4.3352    9.6225    4.8357 C   0  0  0  0  0  0  0  0  0  0  0  0
    3.0602    9.7741    4.4442 N   0  0  0  0  0  0  0  0  0  0  0  0
    2.9991    9.4199    3.1694 N   0  0  0  0  0  0  0  0  0  0  0  0
    4.2421    9.0545    2.7930 C   0  0  0  0  0  0  0  0  0  0  0  0
    9.7090    9.8390    3.5214 C   0  0  0  0  0  0  0  0  0  0  0  0
   11.1832    9.7849    3.0884 C   0  0  0  0  0  0  0  0  0  0  0  0
  1  2  1  0
  2  3  1  0
  2  4  1  0
  4  5  1  0
  5  6  1  0
  6  7  1  0
  7  8  1  0
  8  9  2  0
  8 10  1  0
 10 11  1  0
 11 12  1  0
 12 13  2  0
 13 14  1  0
 14 15  2  0
  7 16  1  0
 16 17  1  0
 17  4  1  0
 15 11  1  0
M  CHG  1   3   1
M  END
>  <EmbedRMS>  (226) 
0.2678703586981328

>  <Gold.Version>  (226) 
2020.3.0

>  <Gold.Id.Protein>  (226) 
unknown|1q8t_protein|pdb

>  <Gold.PLP.Fitness>  (226) 
46.0533

>  <Gold.PLP.PLP>  (226) 
-37.1735

>  <Gold.PLP.part.hbond>  (226) 
-3.4080

>  <Gold.PLP.part.metal>  (226) 
0.0000

>  <Gold.PLP.part.buried>  (226) 
-4.8428

>  <Gold.PLP.part.nonpolar>  (226) 
-29.8306

>  <Gold.PLP.part.repulsive>  (226) 
0.8068

>  <Gold.PLP.ligand.clash>  (226) 
0.0000

>  <Gold.PLP.ligand.torsion>  (226) 
1.7546

>  <Gold.PLP.Chemscore.Hbond>  (226) 
3.8460

>  <Gold.PLP.Chemscore.CHOScore>  (226) 
0.0000

>  <Gold.PLP.Chemscore.Metal>  (226) 
0.0000

>  <Gold.Chemscore.Hbonds>  (226) 
donor molecule, donor type, donor heavy atom, donor atom, acceptor molecule, acceptor atom, score
      L1  H     3    23       P1  2902  2.00
      L1  H     3    24       P1  2691  0.90
      P1  H  1888  1903       L1    13  0.95

>  <Gold.PLP.Chemscore.Internal.Correction>  (226) 
0.8510

>  <Gold.PLP.Constraint>  (226) 
-0.0000

>  <Gold.Protein.RotatedTorsions>  (226) 
[  681  677  676  673 ] final -175.94 input -179.99 | X-H torsion
[  702  698  697  694 ] final   -7.98 input  179.99 | X-H torsion
[ 2577 2569 2568 2566 ] final   12.42 input   -0.13 | X-H torsion
[ 2891 2887 2886 2883 ] final  131.58 input  179.98 | X-H torsion
[ 3175 3171 3170 3167 ] final   34.75 input -179.99 | X-H torsion
[ 5278 5270 5269 5267 ] final  -46.05 input    0.55 | X-H torsion
[  641  637  636  633 ] final   21.89 input  179.99 | X-H torsion
[ 1886 1878 1877 1875 ] final -164.42 input    1.60 | X-H torsion
[  965  957  956  954 ] final  156.13 input    0.45 | X-H torsion

>  <Gold.Protein.ActiveResidues>  (226) 
 LYS47   THR48   LEU49   GLY50   THR51   GLY52   SER53   PHE54   GLY55   ARG56  
 VAL57   MET58   LEU59   TYR69   ALA70   MET71   LYS72   ILE73   LEU74   GLU91  
 LEU95   VAL104  LYS105  MET118  VAL119  MET120  GLU121  TYR122  VAL123  PRO124 
 GLY125  GLY126  GLU127  MET128  PHE129  TYR164  ASP166  LEU167  LYS168  PRO169 
 GLU170  ASN171  LEU172  LEU173  ILE174  GLN181  VAL182  THR183  ASP184  PHE185 
 GLY186  PHE187  GLY200  THR201  ASN326  PHE327  TYR330  ARG18   ARG19   ASN20  
 ALA21   ILE22   HIS23  

>  <Gold.Protein.RotatedAtoms>  (226) 
    9.5958   19.4747    8.2193 H   0  0  0  0  0  0  0  0  0  0  0  0  # atno 641  bound_to 637 
   16.9514   13.9272    7.0641 H   0  0  0  0  0  0  0  0  0  0  0  0  # atno 681  bound_to 677 
   19.5699   11.8102   -0.5412 H   0  0  0  0  0  0  0  0  0  0  0  0  # atno 702  bound_to 698 
   -7.0312   16.9687   -0.2827 H   0  0  0  0  0  0  0  0  0  0  0  0  # atno 965  bound_to 957 
    0.6132   11.2992   11.0271 H   0  0  0  0  0  0  0  0  0  0  0  0  # atno 1886 bound_to 1878
    9.6001    3.1765   -3.3176 H   0  0  0  0  0  0  0  0  0  0  0  0  # atno 2577 bound_to 2569
    7.8931    6.9470    0.9411 H   0  0  0  0  0  0  0  0  0  0  0  0  # atno 2891 bound_to 2887
   18.7417    2.4395   -1.4053 H   0  0  0  0  0  0  0  0  0  0  0  0  # atno 3175 bound_to 3171
   13.0945    9.8338   10.3733 H   0  0  0  0  0  0  0  0  0  0  0  0  # atno 5278 bound_to 5270
   16.7449   12.7317    6.0324 LP  0  0  0  0  0  0  0  0  0  0  0  0  # atno 5914 bound_to 677 
   15.5875   13.1071    7.1216 LP  0  0  0  0  0  0  0  0  0  0  0  0  # atno 5915 bound_to 677 
   21.1092   11.5262   -0.8363 LP  0  0  0  0  0  0  0  0  0  0  0  0  # atno 5920 bound_to 698 
   20.0477   11.7379   -2.0590 LP  0  0  0  0  0  0  0  0  0  0  0  0  # atno 5921 bound_to 698 
   11.1030    2.8148   -2.9359 LP  0  0  0  0  0  0  0  0  0  0  0  0  # atno 5950 bound_to 2569
    9.8595    1.9049   -2.3952 LP  0  0  0  0  0  0  0  0  0  0  0  0  # atno 5951 bound_to 2569
    8.2096    5.5410    0.2631 LP  0  0  0  0  0  0  0  0  0  0  0  0  # atno 5982 bound_to 2887
    7.1582    5.6526    1.5076 LP  0  0  0  0  0  0  0  0  0  0  0  0  # atno 5983 bound_to 2887
   19.2342    3.0098   -0.0026 LP  0  0  0  0  0  0  0  0  0  0  0  0  # atno 6000 bound_to 3171
   17.9301    2.0315   -0.0974 LP  0  0  0  0  0  0  0  0  0  0  0  0  # atno 6001 bound_to 3171
   14.4730   10.0222    9.5980 LP  0  0  0  0  0  0  0  0  0  0  0  0  # atno 6004 bound_to 5270
   13.0462   10.1983    8.8236 LP  0  0  0  0  0  0  0  0  0  0  0  0  # atno 6005 bound_to 5270
   10.7524   18.9410    7.2641 LP  0  0  0  0  0  0  0  0  0  0  0  0  # atno 6055 bound_to 637 
   11.1060   19.6503    8.6919 LP  0  0  0  0  0  0  0  0  0  0  0  0  # atno 6056 bound_to 637 
    1.8120   12.2902   10.6866 LP  0  0  0  0  0  0  0  0  0  0  0  0  # atno 6063 bound_to 1878
    1.9278   10.6938   10.3632 LP  0  0  0  0  0  0  0  0  0  0  0  0  # atno 6064 bound_to 1878
   -6.9699   15.3912   -0.4897 LP  0  0  0  0  0  0  0  0  0  0  0  0  # atno 6067 bound_to 957 
   -6.4330   16.4093   -1.6481 LP  0  0  0  0  0  0  0  0  0  0  0  0  # atno 6068 bound_to 957 

>  <STRIFE_LigEff_Score>  (226) 
2.7090176470588236

$$$$
unknown|pharmsElabsTestPreDocking|sdf|227|dock10
     RDKit          3D

 16 16  0  0  0  0  0  0  0  0999 V2000
    4.6889    9.8463    2.7299 C   0  0  0  0  0  0  0  0  0  0  0  0
    5.4584   10.0156    4.0159 C   0  0  0  0  0  0  0  0  0  0  0  0
    4.6338    9.8944    5.3037 C   0  0  0  0  0  0  0  0  0  0  0  0
    3.6017    8.8844    5.0700 N   0  0  0  0  0  0  0  0  0  0  0  0
    6.8128    9.4815    3.9910 N   0  0  0  0  0  0  0  0  0  0  0  0
    7.7334    9.4248    2.9023 C   0  0  0  0  0  0  0  0  0  0  0  0
    7.4907   10.0580    1.8408 O   0  0  0  0  0  0  0  0  0  0  0  0
    9.0947    8.8147    3.1335 C   0  0  0  0  0  0  0  0  0  0  0  0
    9.4463    7.8294    2.0206 C   0  0  0  0  0  0  0  0  0  0  0  0
   10.7568    7.1051    2.3023 C   0  0  0  0  0  0  0  0  0  0  0  0
   11.9258    7.9967    2.8004 C   0  0  0  0  0  0  0  0  0  0  0  0
   13.2507    8.0357    2.0120 C   0  0  0  0  0  0  0  0  0  0  0  0
   14.5496    8.2246    2.7953 C   0  0  0  0  0  0  0  0  0  0  0  0
   13.1905    8.9537    0.8661 N   0  0  0  0  0  0  0  0  0  0  0  0
   11.5533    9.3540    3.4698 C   0  0  0  0  0  0  0  0  0  0  0  0
   10.1597    9.9091    3.1813 C   0  0  0  0  0  0  0  0  0  0  0  0
  1  2  1  0
  2  3  1  0
  3  4  1  0
  2  5  1  0
  5  6  1  0
  6  7  2  0
  6  8  1  0
  8  9  1  0
  9 10  1  0
 10 11  1  0
 11 12  1  0
 12 13  1  0
 12 14  1  0
 11 15  1  0
 15 16  1  0
 16  8  1  0
M  CHG  2   4   1  14   1
M  END
>  <EmbedRMS>  (227) 
0.3005344476337905

>  <Gold.Version>  (227) 
2020.3.0

>  <Gold.Id.Protein>  (227) 
unknown|1q8t_protein|pdb

>  <Gold.PLP.Fitness>  (227) 
40.5760

>  <Gold.PLP.PLP>  (227) 
-33.0116

>  <Gold.PLP.part.hbond>  (227) 
-2.0000

>  <Gold.PLP.part.metal>  (227) 
0.0000

>  <Gold.PLP.part.buried>  (227) 
-2.8525

>  <Gold.PLP.part.nonpolar>  (227) 
-28.1372

>  <Gold.PLP.part.repulsive>  (227) 
0.0966

>  <Gold.PLP.ligand.clash>  (227) 
0.0000

>  <Gold.PLP.ligand.torsion>  (227) 
1.1675

>  <Gold.PLP.Chemscore.Hbond>  (227) 
3.0000

>  <Gold.PLP.Chemscore.CHOScore>  (227) 
0.0000

>  <Gold.PLP.Chemscore.Metal>  (227) 
0.0000

>  <Gold.Chemscore.Hbonds>  (227) 
donor molecule, donor type, donor heavy atom, donor atom, acceptor molecule, acceptor atom, score
      L1  H     4    25       P1  1891  1.00
      L1  H    14    39       P1  2902  2.00

>  <Gold.PLP.Chemscore.Internal.Correction>  (227) 
0.8995

>  <Gold.PLP.Constraint>  (227) 
-0.0000

>  <Gold.Protein.RotatedTorsions>  (227) 
[  681  677  676  673 ] final -121.55 input -179.99 | X-H torsion
[  702  698  697  694 ] final  -45.93 input  179.99 | X-H torsion
[ 2577 2569 2568 2566 ] final   31.17 input   -0.13 | X-H torsion
[ 2891 2887 2886 2883 ] final  109.65 input  179.98 | X-H torsion
[ 3175 3171 3170 3167 ] final  -37.69 input -179.99 | X-H torsion
[ 5278 5270 5269 5267 ] final  114.97 input    0.55 | X-H torsion
[  641  637  636  633 ] final   91.33 input  179.99 | X-H torsion
[ 1886 1878 1877 1875 ] final -172.15 input    1.60 | X-H torsion
[  965  957  956  954 ] final  114.74 input    0.45 | X-H torsion

>  <Gold.Protein.ActiveResidues>  (227) 
 LYS47   THR48   LEU49   GLY50   THR51   GLY52   SER53   PHE54   GLY55   ARG56  
 VAL57   MET58   LEU59   TYR69   ALA70   MET71   LYS72   ILE73   LEU74   GLU91  
 LEU95   VAL104  LYS105  MET118  VAL119  MET120  GLU121  TYR122  VAL123  PRO124 
 GLY125  GLY126  GLU127  MET128  PHE129  TYR164  ASP166  LEU167  LYS168  PRO169 
 GLU170  ASN171  LEU172  LEU173  ILE174  GLN181  VAL182  THR183  ASP184  PHE185 
 GLY186  PHE187  GLY200  THR201  ASN326  PHE327  TYR330  ARG18   ARG19   ASN20  
 ALA21   ILE22   HIS23  

>  <Gold.Protein.RotatedAtoms>  (227) 
   10.3437   19.7565    8.8528 H   0  0  0  0  0  0  0  0  0  0  0  0  # atno 641  bound_to 637 
   16.2185   13.8217    7.4135 H   0  0  0  0  0  0  0  0  0  0  0  0  # atno 681  bound_to 677 
   20.0682   11.7163   -0.2541 H   0  0  0  0  0  0  0  0  0  0  0  0  # atno 702  bound_to 698 
   -7.1694   16.4247    0.0097 H   0  0  0  0  0  0  0  0  0  0  0  0  # atno 965  bound_to 957 
    0.6121   11.4180   11.0479 H   0  0  0  0  0  0  0  0  0  0  0  0  # atno 1886 bound_to 1878
    9.4116    2.9874   -3.2001 H   0  0  0  0  0  0  0  0  0  0  0  0  # atno 2577 bound_to 2569
    8.0981    6.8602    0.6828 H   0  0  0  0  0  0  0  0  0  0  0  0  # atno 2891 bound_to 2887
   19.3553    2.9819   -0.7348 H   0  0  0  0  0  0  0  0  0  0  0  0  # atno 3175 bound_to 3171
   13.6875   10.2383    8.7581 H   0  0  0  0  0  0  0  0  0  0  0  0  # atno 5278 bound_to 5270
   17.2733   13.3497    6.3177 LP  0  0  0  0  0  0  0  0  0  0  0  0  # atno 5914 bound_to 677 
   15.8304   12.6001    6.4685 LP  0  0  0  0  0  0  0  0  0  0  0  0  # atno 5915 bound_to 677 
   21.1062   11.5385   -1.4492 LP  0  0  0  0  0  0  0  0  0  0  0  0  # atno 5920 bound_to 698 
   19.5265   11.8243   -1.7481 LP  0  0  0  0  0  0  0  0  0  0  0  0  # atno 5921 bound_to 698 
   10.9999    3.0488   -3.1060 LP  0  0  0  0  0  0  0  0  0  0  0  0  # atno 5950 bound_to 2569
   10.1611    1.8699   -2.3488 LP  0  0  0  0  0  0  0  0  0  0  0  0  # atno 5951 bound_to 2569
    8.0142    5.2901    0.4292 LP  0  0  0  0  0  0  0  0  0  0  0  0  # atno 5982 bound_to 2887
    7.1378    5.9948    1.6132 LP  0  0  0  0  0  0  0  0  0  0  0  0  # atno 5983 bound_to 2887
   18.3711    2.4212    0.3843 LP  0  0  0  0  0  0  0  0  0  0  0  0  # atno 6000 bound_to 3171
   18.1475    2.0494   -1.1900 LP  0  0  0  0  0  0  0  0  0  0  0  0  # atno 6001 bound_to 3171
   12.6438    9.9238    9.9194 LP  0  0  0  0  0  0  0  0  0  0  0  0  # atno 6004 bound_to 5270
   14.2514    9.8710   10.2017 LP  0  0  0  0  0  0  0  0  0  0  0  0  # atno 6005 bound_to 5270
    9.7279   19.1311    7.5244 LP  0  0  0  0  0  0  0  0  0  0  0  0  # atno 6055 bound_to 637 
   11.3429   19.1634    7.7643 LP  0  0  0  0  0  0  0  0  0  0  0  0  # atno 6056 bound_to 637 
    1.9135   12.2361   10.6326 LP  0  0  0  0  0  0  0  0  0  0  0  0  # atno 6063 bound_to 1878
    1.8275   10.6228   10.3954 LP  0  0  0  0  0  0  0  0  0  0  0  0  # atno 6064 bound_to 1878
   -6.6939   15.3828   -1.0963 LP  0  0  0  0  0  0  0  0  0  0  0  0  # atno 6067 bound_to 957 
   -6.5634   16.9907   -1.3495 LP  0  0  0  0  0  0  0  0  0  0  0  0  # atno 6068 bound_to 957 

>  <STRIFE_LigEff_Score>  (227) 
2.536

$$$$
unknown|pharmsElabsTestPreDocking|sdf|228|dock10
     RDKit          3D

 16 16  0  0  0  0  0  0  0  0999 V2000
    3.9012    9.8191    5.5861 C   0  0  0  0  0  0  0  0  0  0  0  0
    4.7235    9.2014    4.4561 C   0  0  0  0  0  0  0  0  0  0  0  0
    3.5970    8.5960    3.1524 S   0  0  0  0  0  0  0  0  0  0  0  0
    5.6886   10.2249    3.8520 C   0  0  0  0  0  0  0  0  0  0  0  0
    7.0960    9.7987    3.9320 N   0  0  0  0  0  0  0  0  0  0  0  0
    7.7884    9.4990    2.7085 C   0  0  0  0  0  0  0  0  0  0  0  0
    7.1560    9.5534    1.6242 O   0  0  0  0  0  0  0  0  0  0  0  0
    9.2400    9.1417    2.5827 C   0  0  0  0  0  0  0  0  0  0  0  0
    9.5264    7.6429    2.4576 C   0  0  0  0  0  0  0  0  0  0  0  0
   11.0234    7.2740    2.5104 C   0  0  0  0  0  0  0  0  0  0  0  0
   11.9016    8.4511    2.0572 C   0  0  0  0  0  0  0  0  0  0  0  0
   13.3897    8.1523    1.6964 C   0  0  0  0  0  0  0  0  0  0  0  0
   14.2934    9.3494    1.4537 C   0  0  0  0  0  0  0  0  0  0  0  0
   13.6540    7.0022    0.8384 N   0  0  0  0  0  0  0  0  0  0  0  0
   11.7240    9.6342    3.0308 C   0  0  0  0  0  0  0  0  0  0  0  0
   10.2561   10.0698    3.2281 C   0  0  0  0  0  0  0  0  0  0  0  0
  1  2  1  0
  2  3  1  0
  2  4  1  0
  4  5  1  0
  5  6  1  0
  6  7  2  0
  6  8  1  0
  8  9  1  0
  9 10  1  0
 10 11  1  0
 11 12  1  0
 12 13  1  0
 12 14  1  0
 11 15  1  0
 15 16  1  0
 16  8  1  0
M  CHG  1  14   1
M  END
>  <EmbedRMS>  (228) 
0.26514690107460426

>  <Gold.Version>  (228) 
2020.3.0

>  <Gold.Id.Protein>  (228) 
unknown|1q8t_protein|pdb

>  <Gold.PLP.Fitness>  (228) 
46.5294

>  <Gold.PLP.PLP>  (228) 
-39.1149

>  <Gold.PLP.part.hbond>  (228) 
-1.9391

>  <Gold.PLP.part.metal>  (228) 
0.0000

>  <Gold.PLP.part.buried>  (228) 
-2.3262

>  <Gold.PLP.part.nonpolar>  (228) 
-34.9553

>  <Gold.PLP.part.repulsive>  (228) 
0.0665

>  <Gold.PLP.ligand.clash>  (228) 
0.0000

>  <Gold.PLP.ligand.torsion>  (228) 
1.2840

>  <Gold.PLP.Chemscore.Hbond>  (228) 
2.9920

>  <Gold.PLP.Chemscore.CHOScore>  (228) 
0.0000

>  <Gold.PLP.Chemscore.Metal>  (228) 
0.0000

>  <Gold.Chemscore.Hbonds>  (228) 
donor molecule, donor type, donor heavy atom, donor atom, acceptor molecule, acceptor atom, score
      L1  H    14    36       P1  2902  2.00
      L1  H    14    37       P1  2691  0.99

>  <Gold.PLP.Chemscore.Internal.Correction>  (228) 
1.0065

>  <Gold.PLP.Constraint>  (228) 
-0.0000

>  <Gold.Protein.RotatedTorsions>  (228) 
[  681  677  676  673 ] final -143.17 input -179.99 | X-H torsion
[  702  698  697  694 ] final   49.18 input  179.99 | X-H torsion
[ 2577 2569 2568 2566 ] final   81.55 input   -0.13 | X-H torsion
[ 2891 2887 2886 2883 ] final   74.69 input  179.98 | X-H torsion
[ 3175 3171 3170 3167 ] final -108.66 input -179.99 | X-H torsion
[ 5278 5270 5269 5267 ] final  163.50 input    0.55 | X-H torsion
[  641  637  636  633 ] final  155.49 input  179.99 | X-H torsion
[ 1886 1878 1877 1875 ] final   13.00 input    1.60 | X-H torsion
[  965  957  956  954 ] final   32.43 input    0.45 | X-H torsion

>  <Gold.Protein.ActiveResidues>  (228) 
 LYS47   THR48   LEU49   GLY50   THR51   GLY52   SER53   PHE54   GLY55   ARG56  
 VAL57   MET58   LEU59   TYR69   ALA70   MET71   LYS72   ILE73   LEU74   GLU91  
 LEU95   VAL104  LYS105  MET118  VAL119  MET120  GLU121  TYR122  VAL123  PRO124 
 GLY125  GLY126  GLU127  MET128  PHE129  TYR164  ASP166  LEU167  LYS168  PRO169 
 GLU170  ASN171  LEU172  LEU173  ILE174  GLN181  VAL182  THR183  ASP184  PHE185 
 GLY186  PHE187  GLY200  THR201  ASN326  PHE327  TYR330  ARG18   ARG19   ASN20  
 ALA21   ILE22   HIS23  

>  <Gold.Protein.RotatedAtoms>  (228) 
   11.2111   19.5418    8.5274 H   0  0  0  0  0  0  0  0  0  0  0  0  # atno 641  bound_to 637 
   16.5252   13.9347    7.3355 H   0  0  0  0  0  0  0  0  0  0  0  0  # atno 681  bound_to 677 
   19.3838   11.8593   -1.3768 H   0  0  0  0  0  0  0  0  0  0  0  0  # atno 702  bound_to 698 
   -6.9251   15.4160   -0.5482 H   0  0  0  0  0  0  0  0  0  0  0  0  # atno 965  bound_to 957 
    2.2529   11.5158   10.3412 H   0  0  0  0  0  0  0  0  0  0  0  0  # atno 1886 bound_to 1878
    9.3349    2.3619   -2.7714 H   0  0  0  0  0  0  0  0  0  0  0  0  # atno 2577 bound_to 2569
    8.3104    6.4951    0.3494 H   0  0  0  0  0  0  0  0  0  0  0  0  # atno 2891 bound_to 2887
   18.9918    2.8388    0.2290 H   0  0  0  0  0  0  0  0  0  0  0  0  # atno 3175 bound_to 3171
   14.2953   10.1447    9.1633 H   0  0  0  0  0  0  0  0  0  0  0  0  # atno 5278 bound_to 5270
   17.1331   13.0799    6.1372 LP  0  0  0  0  0  0  0  0  0  0  0  0  # atno 5914 bound_to 677 
   15.6479   12.7510    6.7311 LP  0  0  0  0  0  0  0  0  0  0  0  0  # atno 5915 bound_to 677 
   20.4568   11.6300   -0.2221 LP  0  0  0  0  0  0  0  0  0  0  0  0  # atno 5920 bound_to 698 
   20.8959   11.5825   -1.7942 LP  0  0  0  0  0  0  0  0  0  0  0  0  # atno 5921 bound_to 698 
   10.3500    3.4119   -3.4057 LP  0  0  0  0  0  0  0  0  0  0  0  0  # atno 5950 bound_to 2569
   10.8916    2.1654   -2.5005 LP  0  0  0  0  0  0  0  0  0  0  0  0  # atno 5951 bound_to 2569
    7.6407    5.1301    0.8236 LP  0  0  0  0  0  0  0  0  0  0  0  0  # atno 5982 bound_to 2887
    7.2879    6.5391    1.5697 LP  0  0  0  0  0  0  0  0  0  0  0  0  # atno 5983 bound_to 2887
   17.8739    1.9418   -0.4649 LP  0  0  0  0  0  0  0  0  0  0  0  0  # atno 6000 bound_to 3171
   19.0272    2.6794   -1.3550 LP  0  0  0  0  0  0  0  0  0  0  0  0  # atno 6001 bound_to 3171
   12.7030   10.1094    9.1694 LP  0  0  0  0  0  0  0  0  0  0  0  0  # atno 6004 bound_to 5270
   13.5527    9.7839   10.5253 LP  0  0  0  0  0  0  0  0  0  0  0  0  # atno 6005 bound_to 5270
    9.6241   19.5887    8.4092 LP  0  0  0  0  0  0  0  0  0  0  0  0  # atno 6055 bound_to 637 
   10.5332   18.9319    7.2223 LP  0  0  0  0  0  0  0  0  0  0  0  0  # atno 6056 bound_to 637 
    1.0310   10.5753   10.7384 LP  0  0  0  0  0  0  0  0  0  0  0  0  # atno 6063 bound_to 1878
    0.9826   12.1807   11.0335 LP  0  0  0  0  0  0  0  0  0  0  0  0  # atno 6064 bound_to 1878
   -6.4371   16.4693   -1.6378 LP  0  0  0  0  0  0  0  0  0  0  0  0  # atno 6067 bound_to 957 
   -7.0775   16.9666   -0.2204 LP  0  0  0  0  0  0  0  0  0  0  0  0  # atno 6068 bound_to 957 

>  <STRIFE_LigEff_Score>  (228) 
2.9080875

$$$$
unknown|pharmsElabsTestPreDocking|sdf|229|dock2
     RDKit          3D

 18 19  0  0  0  0  0  0  0  0999 V2000
    3.5998   10.0067    5.0581 C   0  0  0  0  0  0  0  0  0  0  0  0
    4.5590    9.5698    4.0023 C   0  0  0  0  0  0  0  0  0  0  0  0
    5.9054    9.3801    4.1848 C   0  0  0  0  0  0  0  0  0  0  0  0
    6.3472    8.9549    2.9375 C   0  0  0  0  0  0  0  0  0  0  0  0
    7.7016    8.6077    2.5525 N   0  0  0  0  0  0  0  0  0  0  0  0
    8.8538    9.3308    3.0402 C   0  0  0  0  0  0  0  0  0  0  0  0
    8.6937   10.3573    3.7386 O   0  0  0  0  0  0  0  0  0  0  0  0
   10.2933    8.9835    2.8024 C   0  0  0  0  0  0  0  0  0  0  0  0
   10.7136    7.6673    3.4062 C   0  0  0  0  0  0  0  0  0  0  0  0
   12.0470    7.1751    2.8689 C   0  0  0  0  0  0  0  0  0  0  0  0
   13.1392    8.2370    2.6762 C   0  0  0  0  0  0  0  0  0  0  0  0
   14.2713    7.7965    1.7160 C   0  0  0  0  0  0  0  0  0  0  0  0
   15.2505    8.8554    1.2117 C   0  0  0  0  0  0  0  0  0  0  0  0
   13.7866    6.9332    0.6372 N   0  0  0  0  0  0  0  0  0  0  0  0
   12.6621    9.6711    2.3224 C   0  0  0  0  0  0  0  0  0  0  0  0
   11.2954   10.1005    2.8524 C   0  0  0  0  0  0  0  0  0  0  0  0
    5.3127    8.9011    2.1266 O   0  0  0  0  0  0  0  0  0  0  0  0
    4.2174    9.2606    2.7369 N   0  0  0  0  0  0  0  0  0  0  0  0
  1  2  1  0
  2  3  1  0
  3  4  2  0
  4  5  1  0
  5  6  1  0
  6  7  2  0
  6  8  1  0
  8  9  1  0
  9 10  1  0
 10 11  1  0
 11 12  1  0
 12 13  1  0
 12 14  1  0
 11 15  1  0
 15 16  1  0
  4 17  1  0
 17 18  1  0
 18  2  2  0
 16  8  1  0
M  CHG  1  14   1
M  END
>  <EmbedRMS>  (229) 
0.2917556722988064

>  <Gold.Version>  (229) 
2020.3.0

>  <Gold.Id.Protein>  (229) 
unknown|1q8t_protein|pdb

>  <Gold.PLP.Fitness>  (229) 
46.3571

>  <Gold.PLP.PLP>  (229) 
-36.3249

>  <Gold.PLP.part.hbond>  (229) 
-2.8436

>  <Gold.PLP.part.metal>  (229) 
0.0000

>  <Gold.PLP.part.buried>  (229) 
-4.5827

>  <Gold.PLP.part.nonpolar>  (229) 
-29.0321

>  <Gold.PLP.part.repulsive>  (229) 
0.1431

>  <Gold.PLP.ligand.clash>  (229) 
0.0000

>  <Gold.PLP.ligand.torsion>  (229) 
1.2747

>  <Gold.PLP.Chemscore.Hbond>  (229) 
3.9833

>  <Gold.PLP.Chemscore.CHOScore>  (229) 
0.0000

>  <Gold.PLP.Chemscore.Metal>  (229) 
0.0000

>  <Gold.Chemscore.Hbonds>  (229) 
donor molecule, donor type, donor heavy atom, donor atom, acceptor molecule, acceptor atom, score
      L1  H     5    23       P1  2887  0.99
      L1  H    14    35       P1  2902  2.00
      L1  H    14    36       P1  2691  0.99

>  <Gold.PLP.Chemscore.Internal.Correction>  (229) 
0.6319

>  <Gold.PLP.Constraint>  (229) 
-0.0000

>  <Gold.Protein.RotatedTorsions>  (229) 
[  681  677  676  673 ] final   27.17 input -179.99 | X-H torsion
[  702  698  697  694 ] final  -46.17 input  179.99 | X-H torsion
[ 2577 2569 2568 2566 ] final  -48.59 input   -0.13 | X-H torsion
[ 2891 2887 2886 2883 ] final   35.20 input  179.98 | X-H torsion
[ 3175 3171 3170 3167 ] final   -9.55 input -179.99 | X-H torsion
[ 5278 5270 5269 5267 ] final   24.88 input    0.55 | X-H torsion
[  641  637  636  633 ] final  -27.90 input  179.99 | X-H torsion
[ 1886 1878 1877 1875 ] final  -14.93 input    1.60 | X-H torsion
[  965  957  956  954 ] final -135.15 input    0.45 | X-H torsion

>  <Gold.Protein.ActiveResidues>  (229) 
 LYS47   THR48   LEU49   GLY50   THR51   GLY52   SER53   PHE54   GLY55   ARG56  
 VAL57   MET58   LEU59   TYR69   ALA70   MET71   LYS72   ILE73   LEU74   GLU91  
 LEU95   VAL104  LYS105  MET118  VAL119  MET120  GLU121  TYR122  VAL123  PRO124 
 GLY125  GLY126  GLU127  MET128  PHE129  TYR164  ASP166  LEU167  LYS168  PRO169 
 GLU170  ASN171  LEU172  LEU173  ILE174  GLN181  VAL182  THR183  ASP184  PHE185 
 GLY186  PHE187  GLY200  THR201  ASN326  PHE327  TYR330  ARG18   ARG19   ASN20  
 ALA21   ILE22   HIS23  

>  <Gold.Protein.RotatedAtoms>  (229) 
    9.7571   19.1328    7.5672 H   0  0  0  0  0  0  0  0  0  0  0  0  # atno 641  bound_to 637 
   16.2045   12.5922    6.2033 H   0  0  0  0  0  0  0  0  0  0  0  0  # atno 681  bound_to 677 
   20.0719   11.7156   -0.2534 H   0  0  0  0  0  0  0  0  0  0  0  0  # atno 702  bound_to 698 
   -6.6131   17.0430   -1.1997 H   0  0  0  0  0  0  0  0  0  0  0  0  # atno 965  bound_to 957 
    2.1698   11.0931   10.3057 H   0  0  0  0  0  0  0  0  0  0  0  0  # atno 1886 bound_to 1878
   10.4943    3.3340   -3.3614 H   0  0  0  0  0  0  0  0  0  0  0  0  # atno 2577 bound_to 2569
    8.3051    5.9050    0.2142 H   0  0  0  0  0  0  0  0  0  0  0  0  # atno 2891 bound_to 2887
   19.2135    2.8268   -1.1161 H   0  0  0  0  0  0  0  0  0  0  0  0  # atno 3175 bound_to 3171
   12.6479   10.0542    9.4606 H   0  0  0  0  0  0  0  0  0  0  0  0  # atno 5278 bound_to 5270
   15.8414   13.5608    7.4141 LP  0  0  0  0  0  0  0  0  0  0  0  0  # atno 5914 bound_to 677 
   17.2771   13.6830    6.6458 LP  0  0  0  0  0  0  0  0  0  0  0  0  # atno 5915 bound_to 677 
   21.1049   11.5388   -1.4530 LP  0  0  0  0  0  0  0  0  0  0  0  0  # atno 5920 bound_to 698 
   19.5239   11.8247   -1.7451 LP  0  0  0  0  0  0  0  0  0  0  0  0  # atno 5921 bound_to 698 
   10.7727    2.0657   -2.4400 LP  0  0  0  0  0  0  0  0  0  0  0  0  # atno 5950 bound_to 2569
    9.2482    2.4881   -2.8450 LP  0  0  0  0  0  0  0  0  0  0  0  0  # atno 5951 bound_to 2569
    7.2772    5.3516    1.2976 LP  0  0  0  0  0  0  0  0  0  0  0  0  # atno 5982 bound_to 2887
    7.6570    6.9386    1.2380 LP  0  0  0  0  0  0  0  0  0  0  0  0  # atno 5983 bound_to 2887
   18.7383    2.6950    0.3980 LP  0  0  0  0  0  0  0  0  0  0  0  0  # atno 6000 bound_to 3171
   17.9295    1.9388   -0.8023 LP  0  0  0  0  0  0  0  0  0  0  0  0  # atno 6001 bound_to 3171
   13.8524    9.8003   10.4713 LP  0  0  0  0  0  0  0  0  0  0  0  0  # atno 6004 bound_to 5270
   14.1367   10.1882    8.9107 LP  0  0  0  0  0  0  0  0  0  0  0  0  # atno 6005 bound_to 5270
   11.3381   19.1583    7.7538 LP  0  0  0  0  0  0  0  0  0  0  0  0  # atno 6055 bound_to 637 
   10.3505   19.7931    8.8889 LP  0  0  0  0  0  0  0  0  0  0  0  0  # atno 6056 bound_to 637 
    0.7215   10.8534   10.9223 LP  0  0  0  0  0  0  0  0  0  0  0  0  # atno 6063 bound_to 1878
    1.3797   12.3474   10.8869 LP  0  0  0  0  0  0  0  0  0  0  0  0  # atno 6064 bound_to 1878
   -7.2108   16.2712    0.0581 LP  0  0  0  0  0  0  0  0  0  0  0  0  # atno 6067 bound_to 957 
   -6.6323   15.4512   -1.2301 LP  0  0  0  0  0  0  0  0  0  0  0  0  # atno 6068 bound_to 957 

>  <STRIFE_LigEff_Score>  (229) 
2.5753944444444445

$$$$
