
     RDKit          3D

 40 41  0  0  0  0  0  0  0  0999 V2000
   13.9332    7.3332    1.0251 C   0  0  0  0  0  0  0  0  0  0  0  0
   13.7125    7.9146    2.4297 C   0  0  0  0  0  0  0  0  0  0  0  0
   14.6504    9.0165    2.6726 N   0  0  0  0  0  4  0  0  0  0  0  0
   12.2364    8.2979    2.7979 C   0  0  0  0  0  0  0  0  0  0  0  0
   11.1515    7.3120    2.3262 C   0  0  0  0  0  0  0  0  0  0  0  0
    9.7912    7.9324    2.0765 C   0  0  0  0  0  0  0  0  0  0  0  0
    9.4261    8.9806    3.1220 C   0  0  0  0  0  0  0  0  0  0  0  0
    8.0225    9.4639    2.8667 C   0  0  0  0  0  0  0  0  0  0  0  0
    7.6546    9.6768    1.6802 O   0  0  0  0  0  0  0  0  0  0  0  0
    7.1435    9.7011    3.9767 N   0  0  0  0  0  0  0  0  0  0  0  0
    5.7719   10.1423    3.9218 C   0  0  0  0  0  0  0  0  0  0  0  0
    5.0682   10.2866    5.1272 C   0  0  0  0  0  0  0  0  0  0  0  0
    3.7425   10.7162    5.1245 C   0  0  0  0  0  0  0  0  0  0  0  0
    3.1199   11.0021    3.9115 C   0  0  0  0  0  0  0  0  0  0  0  0
    3.8030   10.8612    2.7487 N   0  0  0  0  0  0  0  0  0  0  0  0
    5.0935   10.4449    2.7201 C   0  0  0  0  0  0  0  0  0  0  0  0
   10.3969   10.1658    3.0679 C   0  0  0  0  0  0  0  0  0  0  0  0
   11.8884    9.7884    2.9926 C   0  0  0  0  0  0  0  0  0  0  0  0
   13.4390    7.9746    0.2649 H   0  0  0  0  0  0  0  0  0  0  0  0
   13.5402    6.2972    0.9560 H   0  0  0  0  0  0  0  0  0  0  0  0
   15.0172    7.2785    0.7884 H   0  0  0  0  0  0  0  0  0  0  0  0
   14.0108    7.0845    3.1148 H   0  0  0  0  0  0  0  0  0  0  0  0
   14.5446    9.3791    3.6472 H   0  0  0  0  0  0  0  0  0  0  0  0
   14.5091    9.7874    1.9809 H   0  0  0  0  0  0  0  0  0  0  0  0
   15.6338    8.6709    2.5809 H   0  0  0  0  0  0  0  0  0  0  0  0
   12.2424    8.0318    3.8833 H   0  0  0  0  0  0  0  0  0  0  0  0
   11.4353    6.8245    1.3751 H   0  0  0  0  0  0  0  0  0  0  0  0
   11.0353    6.4818    3.0616 H   0  0  0  0  0  0  0  0  0  0  0  0
    9.8005    8.4008    1.0657 H   0  0  0  0  0  0  0  0  0  0  0  0
    9.0262    7.1237    2.0652 H   0  0  0  0  0  0  0  0  0  0  0  0
    9.4833    8.5087    4.1284 H   0  0  0  0  0  0  0  0  0  0  0  0
    7.5457    9.5319    4.9268 H   0  0  0  0  0  0  0  0  0  0  0  0
    5.5478   10.0665    6.0729 H   0  0  0  0  0  0  0  0  0  0  0  0
    3.2017   10.8271    6.0555 H   0  0  0  0  0  0  0  0  0  0  0  0
    2.0913   11.3366    3.8945 H   0  0  0  0  0  0  0  0  0  0  0  0
    5.5409   10.3704    1.7502 H   0  0  0  0  0  0  0  0  0  0  0  0
   10.1534   10.7936    2.1801 H   0  0  0  0  0  0  0  0  0  0  0  0
   10.2256   10.8070    3.9610 H   0  0  0  0  0  0  0  0  0  0  0  0
   12.3112   10.3420    2.1274 H   0  0  0  0  0  0  0  0  0  0  0  0
   12.4001   10.1967    3.8942 H   0  0  0  0  0  0  0  0  0  0  0  0
  1  2  1  0
  2  3  1  0
  2  4  1  0
  4  5  1  0
  5  6  1  0
  6  7  1  0
  7  8  1  0
  8  9  2  0
  8 10  1  0
 10 11  1  0
 11 12  2  0
 12 13  1  0
 13 14  2  0
 14 15  1  0
 15 16  2  0
  7 17  1  0
 17 18  1  0
 18  4  1  0
 16 11  1  0
  1 19  1  0
  1 20  1  0
  1 21  1  0
  2 22  1  0
  3 23  1  0
  3 24  1  0
  3 25  1  0
  4 26  1  0
  5 27  1  0
  5 28  1  0
  6 29  1  0
  6 30  1  0
  7 31  1  0
 10 32  1  0
 12 33  1  0
 13 34  1  0
 14 35  1  0
 16 36  1  0
 17 37  1  0
 17 38  1  0
 18 39  1  0
 18 40  1  0
M  CHG  1   3   1
M  END
>  <EmbedRMS>  (1) 
0.16496192233382964

$$$$

     RDKit          3D

 40 41  0  0  0  0  0  0  0  0999 V2000
   14.0092    7.0506    1.2533 C   0  0  0  0  0  0  0  0  0  0  0  0
   13.5986    8.3245    1.9900 C   0  0  0  0  0  0  0  0  0  0  0  0
   14.7008    8.8919    2.7696 N   0  0  0  0  0  4  0  0  0  0  0  0
   12.2587    8.3280    2.7675 C   0  0  0  0  0  0  0  0  0  0  0  0
   11.1754    7.4414    2.1356 C   0  0  0  0  0  0  0  0  0  0  0  0
    9.7394    7.7279    2.5470 C   0  0  0  0  0  0  0  0  0  0  0  0
    9.4434    9.2038    2.6465 C   0  0  0  0  0  0  0  0  0  0  0  0
    7.9789    9.5345    2.7319 C   0  0  0  0  0  0  0  0  0  0  0  0
    7.4306    9.7485    1.6249 O   0  0  0  0  0  0  0  0  0  0  0  0
    7.1983    9.6523    3.9397 N   0  0  0  0  0  0  0  0  0  0  0  0
    5.7594    9.8221    3.9027 C   0  0  0  0  0  0  0  0  0  0  0  0
    5.0867   10.6481    4.7314 N   0  0  0  0  0  0  0  0  0  0  0  0
    3.8003   10.4497    4.3579 C   0  0  0  0  0  0  0  0  0  0  0  0
    3.6839    9.5415    3.3695 N   0  0  0  0  0  0  0  0  0  0  0  0
    4.9135    9.1464    3.0926 N   0  0  0  0  0  0  0  0  0  0  0  0
    5.2083    8.0709    2.1518 C   0  0  0  0  0  0  0  0  0  0  0  0
   10.3839   10.0206    3.4879 C   0  0  0  0  0  0  0  0  0  0  0  0
   11.8469    9.7816    3.1206 C   0  0  0  0  0  0  0  0  0  0  0  0
   13.2638    6.7634    0.4836 H   0  0  0  0  0  0  0  0  0  0  0  0
   14.9797    7.1934    0.7320 H   0  0  0  0  0  0  0  0  0  0  0  0
   14.1169    6.2183    1.9803 H   0  0  0  0  0  0  0  0  0  0  0  0
   13.4346    9.0284    1.1411 H   0  0  0  0  0  0  0  0  0  0  0  0
   14.5195    9.8931    3.0058 H   0  0  0  0  0  0  0  0  0  0  0  0
   15.5906    8.8656    2.2202 H   0  0  0  0  0  0  0  0  0  0  0  0
   14.8353    8.3431    3.6495 H   0  0  0  0  0  0  0  0  0  0  0  0
   12.4657    7.8417    3.7475 H   0  0  0  0  0  0  0  0  0  0  0  0
   11.4018    6.3685    2.3233 H   0  0  0  0  0  0  0  0  0  0  0  0
   11.2083    7.5943    1.0347 H   0  0  0  0  0  0  0  0  0  0  0  0
    9.0478    7.2416    1.8227 H   0  0  0  0  0  0  0  0  0  0  0  0
    9.5561    7.2685    3.5428 H   0  0  0  0  0  0  0  0  0  0  0  0
    9.7180    9.5615    1.6228 H   0  0  0  0  0  0  0  0  0  0  0  0
    7.6954    9.7719    4.8498 H   0  0  0  0  0  0  0  0  0  0  0  0
    2.9587   10.9571    4.8095 H   0  0  0  0  0  0  0  0  0  0  0  0
    6.1335    7.5316    2.4442 H   0  0  0  0  0  0  0  0  0  0  0  0
    4.3765    7.3351    2.1552 H   0  0  0  0  0  0  0  0  0  0  0  0
    5.3026    8.4810    1.1253 H   0  0  0  0  0  0  0  0  0  0  0  0
   10.2349    9.7353    4.5520 H   0  0  0  0  0  0  0  0  0  0  0  0
   10.1464   11.1039    3.3936 H   0  0  0  0  0  0  0  0  0  0  0  0
   12.0589   10.4399    2.2493 H   0  0  0  0  0  0  0  0  0  0  0  0
   12.4709   10.1551    3.9616 H   0  0  0  0  0  0  0  0  0  0  0  0
  1  2  1  0
  2  3  1  0
  2  4  1  0
  4  5  1  0
  5  6  1  0
  6  7  1  0
  7  8  1  0
  8  9  2  0
  8 10  1  0
 10 11  1  0
 11 12  2  0
 12 13  1  0
 13 14  2  0
 14 15  1  0
 15 16  1  0
  7 17  1  0
 17 18  1  0
 18  4  1  0
 15 11  1  0
  1 19  1  0
  1 20  1  0
  1 21  1  0
  2 22  1  0
  3 23  1  0
  3 24  1  0
  3 25  1  0
  4 26  1  0
  5 27  1  0
  5 28  1  0
  6 29  1  0
  6 30  1  0
  7 31  1  0
 10 32  1  0
 13 33  1  0
 16 34  1  0
 16 35  1  0
 16 36  1  0
 17 37  1  0
 17 38  1  0
 18 39  1  0
 18 40  1  0
M  CHG  1   3   1
M  END
>  <EmbedRMS>  (2) 
0.293000697254303

$$$$

     RDKit          3D

 43 44  0  0  0  0  0  0  0  0999 V2000
    3.4091    7.0163    0.8089 C   0  0  0  0  0  0  0  0  0  0  0  0
    3.9564    7.6270    2.0549 C   0  0  0  0  0  0  0  0  0  0  0  0
    3.8589    7.0467    3.2714 N   0  0  0  0  0  0  0  0  0  0  0  0
    4.5183    7.9188    4.0578 C   0  0  0  0  0  0  0  0  0  0  0  0
    4.9864    8.9574    3.3473 N   0  0  0  0  0  0  0  0  0  0  0  0
    5.8023   10.0570    3.8628 C   0  0  0  0  0  0  0  0  0  0  0  0
    7.2164    9.6591    3.9271 N   0  0  0  0  0  0  0  0  0  0  0  0
    7.9849    9.5262    2.7197 C   0  0  0  0  0  0  0  0  0  0  0  0
    7.4176    9.6970    1.6142 O   0  0  0  0  0  0  0  0  0  0  0  0
    9.4477    9.2017    2.6353 C   0  0  0  0  0  0  0  0  0  0  0  0
    9.7431    7.7262    2.5442 C   0  0  0  0  0  0  0  0  0  0  0  0
   11.1785    7.4395    2.1349 C   0  0  0  0  0  0  0  0  0  0  0  0
   12.2604    8.3272    2.7671 C   0  0  0  0  0  0  0  0  0  0  0  0
   13.5999    8.3243    1.9898 C   0  0  0  0  0  0  0  0  0  0  0  0
   14.0108    7.0505    1.2529 C   0  0  0  0  0  0  0  0  0  0  0  0
   14.7019    8.8917    2.7697 N   0  0  0  0  0  4  0  0  0  0  0  0
   11.8479    9.7807    3.1212 C   0  0  0  0  0  0  0  0  0  0  0  0
   10.3833   10.0200    3.4816 C   0  0  0  0  0  0  0  0  0  0  0  0
    4.6520    8.7824    2.0803 N   0  0  0  0  0  0  0  0  0  0  0  0
    3.1459    7.8120    0.0809 H   0  0  0  0  0  0  0  0  0  0  0  0
    2.4977    6.4274    1.0437 H   0  0  0  0  0  0  0  0  0  0  0  0
    4.1720    6.3472    0.3598 H   0  0  0  0  0  0  0  0  0  0  0  0
    4.6642    7.7867    5.1222 H   0  0  0  0  0  0  0  0  0  0  0  0
    5.6864   10.9553    3.2182 H   0  0  0  0  0  0  0  0  0  0  0  0
    5.4512   10.3295    4.8817 H   0  0  0  0  0  0  0  0  0  0  0  0
    7.6748    9.5140    4.8541 H   0  0  0  0  0  0  0  0  0  0  0  0
    9.7209    9.5594    1.6114 H   0  0  0  0  0  0  0  0  0  0  0  0
    9.0528    7.2354    1.8216 H   0  0  0  0  0  0  0  0  0  0  0  0
    9.5599    7.2715    3.5422 H   0  0  0  0  0  0  0  0  0  0  0  0
   11.4049    6.3668    2.3243 H   0  0  0  0  0  0  0  0  0  0  0  0
   11.2124    7.5910    1.0338 H   0  0  0  0  0  0  0  0  0  0  0  0
   12.4677    7.8407    3.7470 H   0  0  0  0  0  0  0  0  0  0  0  0
   13.4359    9.0285    1.1410 H   0  0  0  0  0  0  0  0  0  0  0  0
   14.1163    6.2177    1.9795 H   0  0  0  0  0  0  0  0  0  0  0  0
   14.9825    7.1928    0.7337 H   0  0  0  0  0  0  0  0  0  0  0  0
   13.2669    6.7645    0.4813 H   0  0  0  0  0  0  0  0  0  0  0  0
   14.8378    8.3409    3.6482 H   0  0  0  0  0  0  0  0  0  0  0  0
   14.5192    9.8920    3.0084 H   0  0  0  0  0  0  0  0  0  0  0  0
   15.5911    8.8678    2.2195 H   0  0  0  0  0  0  0  0  0  0  0  0
   12.4685   10.1522    3.9656 H   0  0  0  0  0  0  0  0  0  0  0  0
   12.0643   10.4406    2.2521 H   0  0  0  0  0  0  0  0  0  0  0  0
   10.2289    9.7359    4.5453 H   0  0  0  0  0  0  0  0  0  0  0  0
   10.1460   11.1031    3.3849 H   0  0  0  0  0  0  0  0  0  0  0  0
  1  2  1  0
  2  3  1  0
  3  4  2  0
  4  5  1  0
  5  6  1  0
  6  7  1  0
  7  8  1  0
  8  9  2  0
  8 10  1  0
 10 11  1  0
 11 12  1  0
 12 13  1  0
 13 14  1  0
 14 15  1  0
 14 16  1  0
 13 17  1  0
 17 18  1  0
  5 19  1  0
 19  2  2  0
 18 10  1  0
  1 20  1  0
  1 21  1  0
  1 22  1  0
  4 23  1  0
  6 24  1  0
  6 25  1  0
  7 26  1  0
 10 27  1  0
 11 28  1  0
 11 29  1  0
 12 30  1  0
 12 31  1  0
 13 32  1  0
 14 33  1  0
 15 34  1  0
 15 35  1  0
 15 36  1  0
 16 37  1  0
 16 38  1  0
 16 39  1  0
 17 40  1  0
 17 41  1  0
 18 42  1  0
 18 43  1  0
M  CHG  1  16   1
M  END
>  <EmbedRMS>  (3) 
0.2856427799066481

$$$$

     RDKit          3D

 43 43  0  0  0  0  0  0  0  0999 V2000
    6.2038   12.5067    4.6391 C   0  0  0  0  0  0  0  0  0  0  0  0
    5.7479   11.6550    3.4478 C   0  0  0  0  0  0  0  0  0  0  0  0
    4.4013   12.0511    3.0276 N   0  0  0  0  0  4  0  0  0  0  0  0
    5.7684   10.1594    3.8098 C   0  0  0  0  0  0  0  0  0  0  0  0
    7.1378    9.6890    3.9874 N   0  0  0  0  0  0  0  0  0  0  0  0
    8.0135    9.4642    2.8779 C   0  0  0  0  0  0  0  0  0  0  0  0
    7.6125    9.6824    1.6986 O   0  0  0  0  0  0  0  0  0  0  0  0
    9.4215    8.9835    3.1216 C   0  0  0  0  0  0  0  0  0  0  0  0
    9.7844    7.9353    2.0758 C   0  0  0  0  0  0  0  0  0  0  0  0
   11.1475    7.3156    2.3205 C   0  0  0  0  0  0  0  0  0  0  0  0
   12.2330    8.2992    2.7960 C   0  0  0  0  0  0  0  0  0  0  0  0
   13.7102    7.9153    2.4298 C   0  0  0  0  0  0  0  0  0  0  0  0
   13.9326    7.3326    1.0259 C   0  0  0  0  0  0  0  0  0  0  0  0
   14.6483    9.0171    2.6728 N   0  0  0  0  0  4  0  0  0  0  0  0
   11.8852    9.7894    2.9953 C   0  0  0  0  0  0  0  0  0  0  0  0
   10.3928   10.1680    3.0636 C   0  0  0  0  0  0  0  0  0  0  0  0
    6.1958   13.5824    4.3627 H   0  0  0  0  0  0  0  0  0  0  0  0
    7.2401   12.2365    4.9338 H   0  0  0  0  0  0  0  0  0  0  0  0
    5.5300   12.3575    5.5099 H   0  0  0  0  0  0  0  0  0  0  0  0
    6.4471   11.8407    2.6025 H   0  0  0  0  0  0  0  0  0  0  0  0
    4.3914   13.0658    2.7732 H   0  0  0  0  0  0  0  0  0  0  0  0
    4.1161   11.5032    2.1834 H   0  0  0  0  0  0  0  0  0  0  0  0
    3.7112   11.8833    3.7962 H   0  0  0  0  0  0  0  0  0  0  0  0
    5.2775    9.5602    3.0119 H   0  0  0  0  0  0  0  0  0  0  0  0
    5.1944    9.9906    4.7475 H   0  0  0  0  0  0  0  0  0  0  0  0
    7.4641    9.4598    4.9533 H   0  0  0  0  0  0  0  0  0  0  0  0
    9.4833    8.5135    4.1286 H   0  0  0  0  0  0  0  0  0  0  0  0
    9.7871    8.4042    1.0652 H   0  0  0  0  0  0  0  0  0  0  0  0
    9.0201    7.1260    2.0679 H   0  0  0  0  0  0  0  0  0  0  0  0
   11.0338    6.4805    3.0507 H   0  0  0  0  0  0  0  0  0  0  0  0
   11.4306    6.8347    1.3657 H   0  0  0  0  0  0  0  0  0  0  0  0
   12.2368    8.0296    3.8806 H   0  0  0  0  0  0  0  0  0  0  0  0
   14.0076    7.0856    3.1158 H   0  0  0  0  0  0  0  0  0  0  0  0
   13.5365    6.2979    0.9564 H   0  0  0  0  0  0  0  0  0  0  0  0
   15.0170    7.2746    0.7920 H   0  0  0  0  0  0  0  0  0  0  0  0
   13.4421    7.9752    0.2643 H   0  0  0  0  0  0  0  0  0  0  0  0
   15.6316    8.6708    2.5836 H   0  0  0  0  0  0  0  0  0  0  0  0
   14.5406    9.3814    3.6466 H   0  0  0  0  0  0  0  0  0  0  0  0
   14.5085    9.7869    1.9796 H   0  0  0  0  0  0  0  0  0  0  0  0
   12.3917   10.1930    3.9019 H   0  0  0  0  0  0  0  0  0  0  0  0
   12.3133   10.3473    2.1355 H   0  0  0  0  0  0  0  0  0  0  0  0
   10.2186   10.8154    3.9516 H   0  0  0  0  0  0  0  0  0  0  0  0
   10.1508   10.7892    2.1707 H   0  0  0  0  0  0  0  0  0  0  0  0
  1  2  1  0
  2  3  1  0
  2  4  1  0
  4  5  1  0
  5  6  1  0
  6  7  2  0
  6  8  1  0
  8  9  1  0
  9 10  1  0
 10 11  1  0
 11 12  1  0
 12 13  1  0
 12 14  1  0
 11 15  1  0
 15 16  1  0
 16  8  1  0
  1 17  1  0
  1 18  1  0
  1 19  1  0
  2 20  1  0
  3 21  1  0
  3 22  1  0
  3 23  1  0
  4 24  1  0
  4 25  1  0
  5 26  1  0
  8 27  1  0
  9 28  1  0
  9 29  1  0
 10 30  1  0
 10 31  1  0
 11 32  1  0
 12 33  1  0
 13 34  1  0
 13 35  1  0
 13 36  1  0
 14 37  1  0
 14 38  1  0
 14 39  1  0
 15 40  1  0
 15 41  1  0
 16 42  1  0
 16 43  1  0
M  CHG  2   3   1  14   1
M  END
>  <EmbedRMS>  (4) 
0.17403569729373936

$$$$

     RDKit          3D

 41 42  0  0  0  0  0  0  0  0999 V2000
   14.0155    7.0452    1.2243 C   0  0  0  0  0  0  0  0  0  0  0  0
   13.6577    8.3402    1.9340 C   0  0  0  0  0  0  0  0  0  0  0  0
   14.6213    8.7734    2.9399 N   0  0  0  0  0  4  0  0  0  0  0  0
   12.1479    8.5868    2.2358 C   0  0  0  0  0  0  0  0  0  0  0  0
   11.2708    7.3634    2.5450 C   0  0  0  0  0  0  0  0  0  0  0  0
    9.7738    7.7130    2.4384 C   0  0  0  0  0  0  0  0  0  0  0  0
    9.4545    9.1902    2.6817 C   0  0  0  0  0  0  0  0  0  0  0  0
    7.9930    9.5119    2.7236 C   0  0  0  0  0  0  0  0  0  0  0  0
    7.4746    9.6077    1.5899 O   0  0  0  0  0  0  0  0  0  0  0  0
    7.1920    9.7025    3.9130 N   0  0  0  0  0  0  0  0  0  0  0  0
    5.8002   10.1396    3.9098 C   0  0  0  0  0  0  0  0  0  0  0  0
    5.1136   10.2622    5.1332 C   0  0  0  0  0  0  0  0  0  0  0  0
    3.7791   10.6918    5.1678 C   0  0  0  0  0  0  0  0  0  0  0  0
    3.1050   10.9965    3.9846 C   0  0  0  0  0  0  0  0  0  0  0  0
    3.7620   10.8848    2.7663 C   0  0  0  0  0  0  0  0  0  0  0  0
    5.0915   10.4774    2.7238 C   0  0  0  0  0  0  0  0  0  0  0  0
   10.4123   10.0785    3.4530 C   0  0  0  0  0  0  0  0  0  0  0  0
   11.8967    9.6862    3.2904 C   0  0  0  0  0  0  0  0  0  0  0  0
   13.3412    6.8748    0.3575 H   0  0  0  0  0  0  0  0  0  0  0  0
   15.0600    7.0795    0.8460 H   0  0  0  0  0  0  0  0  0  0  0  0
   13.9272    6.1936    1.9310 H   0  0  0  0  0  0  0  0  0  0  0  0
   13.8472    9.0661    1.1041 H   0  0  0  0  0  0  0  0  0  0  0  0
   14.4394    8.2635    3.8342 H   0  0  0  0  0  0  0  0  0  0  0  0
   14.5690    9.8041    3.1044 H   0  0  0  0  0  0  0  0  0  0  0  0
   15.5964    8.5564    2.6293 H   0  0  0  0  0  0  0  0  0  0  0  0
   11.7549    8.9789    1.2687 H   0  0  0  0  0  0  0  0  0  0  0  0
   11.4801    6.5302    1.8427 H   0  0  0  0  0  0  0  0  0  0  0  0
   11.5022    7.0014    3.5710 H   0  0  0  0  0  0  0  0  0  0  0  0
    9.3960    7.4069    1.4357 H   0  0  0  0  0  0  0  0  0  0  0  0
    9.2216    7.1022    3.1855 H   0  0  0  0  0  0  0  0  0  0  0  0
    9.7131    9.5882    1.6698 H   0  0  0  0  0  0  0  0  0  0  0  0
    7.6559    9.5263    4.8324 H   0  0  0  0  0  0  0  0  0  0  0  0
    5.6153   10.0259    6.0630 H   0  0  0  0  0  0  0  0  0  0  0  0
    3.2672   10.7820    6.1172 H   0  0  0  0  0  0  0  0  0  0  0  0
    2.0739   11.3242    4.0170 H   0  0  0  0  0  0  0  0  0  0  0  0
    3.2415   11.1383    1.8510 H   0  0  0  0  0  0  0  0  0  0  0  0
    5.5040   10.4952    1.7386 H   0  0  0  0  0  0  0  0  0  0  0  0
   10.1475   10.0136    4.5305 H   0  0  0  0  0  0  0  0  0  0  0  0
   10.2671   11.1433    3.1573 H   0  0  0  0  0  0  0  0  0  0  0  0
   12.4562   10.6027    3.0029 H   0  0  0  0  0  0  0  0  0  0  0  0
   12.2889    9.3466    4.2742 H   0  0  0  0  0  0  0  0  0  0  0  0
  1  2  1  0
  2  3  1  0
  2  4  1  0
  4  5  1  0
  5  6  1  0
  6  7  1  0
  7  8  1  0
  8  9  2  0
  8 10  1  0
 10 11  1  0
 11 12  2  0
 12 13  1  0
 13 14  2  0
 14 15  1  0
 15 16  2  0
  7 17  1  0
 17 18  1  0
 18  4  1  0
 16 11  1  0
  1 19  1  0
  1 20  1  0
  1 21  1  0
  2 22  1  0
  3 23  1  0
  3 24  1  0
  3 25  1  0
  4 26  1  0
  5 27  1  0
  5 28  1  0
  6 29  1  0
  6 30  1  0
  7 31  1  0
 10 32  1  0
 12 33  1  0
 13 34  1  0
 14 35  1  0
 15 36  1  0
 16 37  1  0
 17 38  1  0
 17 39  1  0
 18 40  1  0
 18 41  1  0
M  CHG  1   3   1
M  END
>  <EmbedRMS>  (5) 
0.24964892458419108

$$$$

     RDKit          3D

 40 41  0  0  0  0  0  0  0  0999 V2000
   13.9332    7.3332    1.0251 C   0  0  0  0  0  0  0  0  0  0  0  0
   13.7125    7.9146    2.4297 C   0  0  0  0  0  0  0  0  0  0  0  0
   14.6504    9.0165    2.6726 N   0  0  0  0  0  4  0  0  0  0  0  0
   12.2364    8.2979    2.7979 C   0  0  0  0  0  0  0  0  0  0  0  0
   11.1515    7.3120    2.3262 C   0  0  0  0  0  0  0  0  0  0  0  0
    9.7912    7.9324    2.0765 C   0  0  0  0  0  0  0  0  0  0  0  0
    9.4261    8.9806    3.1220 C   0  0  0  0  0  0  0  0  0  0  0  0
    8.0225    9.4639    2.8667 C   0  0  0  0  0  0  0  0  0  0  0  0
    7.6546    9.6768    1.6802 O   0  0  0  0  0  0  0  0  0  0  0  0
    7.1435    9.7011    3.9767 N   0  0  0  0  0  0  0  0  0  0  0  0
    5.7719   10.1423    3.9218 C   0  0  0  0  0  0  0  0  0  0  0  0
    5.0682   10.2866    5.1272 C   0  0  0  0  0  0  0  0  0  0  0  0
    3.7425   10.7162    5.1245 C   0  0  0  0  0  0  0  0  0  0  0  0
    3.1199   11.0021    3.9115 C   0  0  0  0  0  0  0  0  0  0  0  0
    3.8030   10.8612    2.7487 N   0  0  0  0  0  0  0  0  0  0  0  0
    5.0935   10.4449    2.7201 C   0  0  0  0  0  0  0  0  0  0  0  0
   10.3969   10.1658    3.0679 C   0  0  0  0  0  0  0  0  0  0  0  0
   11.8884    9.7884    2.9926 C   0  0  0  0  0  0  0  0  0  0  0  0
   13.4390    7.9746    0.2649 H   0  0  0  0  0  0  0  0  0  0  0  0
   13.5402    6.2972    0.9560 H   0  0  0  0  0  0  0  0  0  0  0  0
   15.0172    7.2785    0.7884 H   0  0  0  0  0  0  0  0  0  0  0  0
   14.0108    7.0845    3.1148 H   0  0  0  0  0  0  0  0  0  0  0  0
   14.5446    9.3791    3.6472 H   0  0  0  0  0  0  0  0  0  0  0  0
   14.5091    9.7874    1.9809 H   0  0  0  0  0  0  0  0  0  0  0  0
   15.6338    8.6709    2.5809 H   0  0  0  0  0  0  0  0  0  0  0  0
   12.2424    8.0318    3.8833 H   0  0  0  0  0  0  0  0  0  0  0  0
   11.4353    6.8245    1.3751 H   0  0  0  0  0  0  0  0  0  0  0  0
   11.0353    6.4818    3.0616 H   0  0  0  0  0  0  0  0  0  0  0  0
    9.8005    8.4008    1.0657 H   0  0  0  0  0  0  0  0  0  0  0  0
    9.0262    7.1237    2.0652 H   0  0  0  0  0  0  0  0  0  0  0  0
    9.4833    8.5087    4.1284 H   0  0  0  0  0  0  0  0  0  0  0  0
    7.5457    9.5319    4.9268 H   0  0  0  0  0  0  0  0  0  0  0  0
    5.5478   10.0665    6.0729 H   0  0  0  0  0  0  0  0  0  0  0  0
    3.2017   10.8271    6.0555 H   0  0  0  0  0  0  0  0  0  0  0  0
    2.0913   11.3366    3.8945 H   0  0  0  0  0  0  0  0  0  0  0  0
    5.5409   10.3704    1.7502 H   0  0  0  0  0  0  0  0  0  0  0  0
   10.1534   10.7936    2.1801 H   0  0  0  0  0  0  0  0  0  0  0  0
   10.2256   10.8070    3.9610 H   0  0  0  0  0  0  0  0  0  0  0  0
   12.3112   10.3420    2.1274 H   0  0  0  0  0  0  0  0  0  0  0  0
   12.4001   10.1967    3.8942 H   0  0  0  0  0  0  0  0  0  0  0  0
  1  2  1  0
  2  3  1  0
  2  4  1  0
  4  5  1  0
  5  6  1  0
  6  7  1  0
  7  8  1  0
  8  9  2  0
  8 10  1  0
 10 11  1  0
 11 12  2  0
 12 13  1  0
 13 14  2  0
 14 15  1  0
 15 16  2  0
  7 17  1  0
 17 18  1  0
 18  4  1  0
 16 11  1  0
  1 19  1  0
  1 20  1  0
  1 21  1  0
  2 22  1  0
  3 23  1  0
  3 24  1  0
  3 25  1  0
  4 26  1  0
  5 27  1  0
  5 28  1  0
  6 29  1  0
  6 30  1  0
  7 31  1  0
 10 32  1  0
 12 33  1  0
 13 34  1  0
 14 35  1  0
 16 36  1  0
 17 37  1  0
 17 38  1  0
 18 39  1  0
 18 40  1  0
M  CHG  1   3   1
M  END
>  <EmbedRMS>  (6) 
0.16496192233382964

$$$$

     RDKit          3D

 41 41  0  0  0  0  0  0  0  0999 V2000
    6.7770   12.3654    2.7126 C   0  0  0  0  0  0  0  0  0  0  0  0
    5.6974   11.5291    3.3298 C   0  0  0  0  0  0  0  0  0  0  0  0
    5.9071   10.3345    3.9183 C   0  0  0  0  0  0  0  0  0  0  0  0
    4.7582    9.7050    4.6113 C   0  0  0  0  0  0  0  0  0  0  0  0
    4.8526    8.5607    5.2060 N   0  0  0  0  0  0  0  0  0  0  0  0
    7.2208    9.7158    3.9414 N   0  0  0  0  0  0  0  0  0  0  0  0
    7.9775    9.5190    2.7303 C   0  0  0  0  0  0  0  0  0  0  0  0
    7.3964    9.6239    1.6236 O   0  0  0  0  0  0  0  0  0  0  0  0
    9.4425    9.2007    2.6418 C   0  0  0  0  0  0  0  0  0  0  0  0
    9.7426    7.7259    2.5455 C   0  0  0  0  0  0  0  0  0  0  0  0
   11.1775    7.4420    2.1332 C   0  0  0  0  0  0  0  0  0  0  0  0
   12.2590    8.3281    2.7672 C   0  0  0  0  0  0  0  0  0  0  0  0
   13.5991    8.3250    1.9902 C   0  0  0  0  0  0  0  0  0  0  0  0
   14.0099    7.0513    1.2530 C   0  0  0  0  0  0  0  0  0  0  0  0
   14.7010    8.8918    2.7704 N   0  0  0  0  0  4  0  0  0  0  0  0
   11.8456    9.7814    3.1211 C   0  0  0  0  0  0  0  0  0  0  0  0
   10.3808   10.0207    3.4839 C   0  0  0  0  0  0  0  0  0  0  0  0
    7.6955   12.3494    3.3368 H   0  0  0  0  0  0  0  0  0  0  0  0
    6.4283   13.4173    2.6458 H   0  0  0  0  0  0  0  0  0  0  0  0
    7.0012   12.0278    1.6823 H   0  0  0  0  0  0  0  0  0  0  0  0
    4.7076   11.9716    3.3608 H   0  0  0  0  0  0  0  0  0  0  0  0
    3.8001   10.2103    4.6298 H   0  0  0  0  0  0  0  0  0  0  0  0
    5.7349    8.0037    5.2308 H   0  0  0  0  0  0  0  0  0  0  0  0
    7.6110    9.3650    4.8441 H   0  0  0  0  0  0  0  0  0  0  0  0
    9.7090    9.5627    1.6178 H   0  0  0  0  0  0  0  0  0  0  0  0
    9.5621    7.2682    3.5427 H   0  0  0  0  0  0  0  0  0  0  0  0
    9.0524    7.2349    1.8230 H   0  0  0  0  0  0  0  0  0  0  0  0
   11.2101    7.5976    1.0326 H   0  0  0  0  0  0  0  0  0  0  0  0
   11.4051    6.3689    2.3187 H   0  0  0  0  0  0  0  0  0  0  0  0
   12.4654    7.8411    3.7469 H   0  0  0  0  0  0  0  0  0  0  0  0
   13.4354    9.0295    1.1417 H   0  0  0  0  0  0  0  0  0  0  0  0
   14.1161    6.2184    1.9794 H   0  0  0  0  0  0  0  0  0  0  0  0
   13.2655    6.7652    0.4819 H   0  0  0  0  0  0  0  0  0  0  0  0
   14.9812    7.1940    0.7331 H   0  0  0  0  0  0  0  0  0  0  0  0
   15.5904    8.8679    2.2205 H   0  0  0  0  0  0  0  0  0  0  0  0
   14.5184    9.8921    3.0094 H   0  0  0  0  0  0  0  0  0  0  0  0
   14.8365    8.3409    3.6489 H   0  0  0  0  0  0  0  0  0  0  0  0
   12.4672   10.1539    3.9643 H   0  0  0  0  0  0  0  0  0  0  0  0
   12.0602   10.4406    2.2511 H   0  0  0  0  0  0  0  0  0  0  0  0
   10.2276    9.7391    4.5485 H   0  0  0  0  0  0  0  0  0  0  0  0
   10.1427   11.1035    3.3855 H   0  0  0  0  0  0  0  0  0  0  0  0
  1  2  1  0
  2  3  2  3
  3  4  1  0
  4  5  2  3
  3  6  1  0
  6  7  1  0
  7  8  2  0
  7  9  1  0
  9 10  1  0
 10 11  1  0
 11 12  1  0
 12 13  1  0
 13 14  1  0
 13 15  1  0
 12 16  1  0
 16 17  1  0
 17  9  1  0
  1 18  1  0
  1 19  1  0
  1 20  1  0
  2 21  1  0
  4 22  1  0
  5 23  1  0
  6 24  1  0
  9 25  1  0
 10 26  1  0
 10 27  1  0
 11 28  1  0
 11 29  1  0
 12 30  1  0
 13 31  1  0
 14 32  1  0
 14 33  1  0
 14 34  1  0
 15 35  1  0
 15 36  1  0
 15 37  1  0
 16 38  1  0
 16 39  1  0
 17 40  1  0
 17 41  1  0
M  CHG  1  15   1
M  END
>  <EmbedRMS>  (7) 
0.3022183700925627

$$$$

     RDKit          3D

 40 41  0  0  0  0  0  0  0  0999 V2000
   13.9332    7.3332    1.0251 C   0  0  0  0  0  0  0  0  0  0  0  0
   13.7125    7.9146    2.4297 C   0  0  0  0  0  0  0  0  0  0  0  0
   14.6504    9.0165    2.6726 N   0  0  0  0  0  4  0  0  0  0  0  0
   12.2364    8.2979    2.7979 C   0  0  0  0  0  0  0  0  0  0  0  0
   11.1515    7.3120    2.3262 C   0  0  0  0  0  0  0  0  0  0  0  0
    9.7912    7.9324    2.0765 C   0  0  0  0  0  0  0  0  0  0  0  0
    9.4261    8.9806    3.1220 C   0  0  0  0  0  0  0  0  0  0  0  0
    8.0225    9.4639    2.8667 C   0  0  0  0  0  0  0  0  0  0  0  0
    7.6546    9.6768    1.6802 O   0  0  0  0  0  0  0  0  0  0  0  0
    7.1435    9.7011    3.9767 N   0  0  0  0  0  0  0  0  0  0  0  0
    5.7719   10.1423    3.9218 C   0  0  0  0  0  0  0  0  0  0  0  0
    5.0682   10.2866    5.1272 C   0  0  0  0  0  0  0  0  0  0  0  0
    3.7425   10.7162    5.1245 C   0  0  0  0  0  0  0  0  0  0  0  0
    3.1199   11.0021    3.9115 C   0  0  0  0  0  0  0  0  0  0  0  0
    3.8030   10.8612    2.7487 N   0  0  0  0  0  0  0  0  0  0  0  0
    5.0935   10.4449    2.7201 C   0  0  0  0  0  0  0  0  0  0  0  0
   10.3969   10.1658    3.0679 C   0  0  0  0  0  0  0  0  0  0  0  0
   11.8884    9.7884    2.9926 C   0  0  0  0  0  0  0  0  0  0  0  0
   13.4390    7.9746    0.2649 H   0  0  0  0  0  0  0  0  0  0  0  0
   13.5402    6.2972    0.9560 H   0  0  0  0  0  0  0  0  0  0  0  0
   15.0172    7.2785    0.7884 H   0  0  0  0  0  0  0  0  0  0  0  0
   14.0108    7.0845    3.1148 H   0  0  0  0  0  0  0  0  0  0  0  0
   14.5446    9.3791    3.6472 H   0  0  0  0  0  0  0  0  0  0  0  0
   14.5091    9.7874    1.9809 H   0  0  0  0  0  0  0  0  0  0  0  0
   15.6338    8.6709    2.5809 H   0  0  0  0  0  0  0  0  0  0  0  0
   12.2424    8.0318    3.8833 H   0  0  0  0  0  0  0  0  0  0  0  0
   11.4353    6.8245    1.3751 H   0  0  0  0  0  0  0  0  0  0  0  0
   11.0353    6.4818    3.0616 H   0  0  0  0  0  0  0  0  0  0  0  0
    9.8005    8.4008    1.0657 H   0  0  0  0  0  0  0  0  0  0  0  0
    9.0262    7.1237    2.0652 H   0  0  0  0  0  0  0  0  0  0  0  0
    9.4833    8.5087    4.1284 H   0  0  0  0  0  0  0  0  0  0  0  0
    7.5457    9.5319    4.9268 H   0  0  0  0  0  0  0  0  0  0  0  0
    5.5478   10.0665    6.0729 H   0  0  0  0  0  0  0  0  0  0  0  0
    3.2017   10.8271    6.0555 H   0  0  0  0  0  0  0  0  0  0  0  0
    2.0913   11.3366    3.8945 H   0  0  0  0  0  0  0  0  0  0  0  0
    5.5409   10.3704    1.7502 H   0  0  0  0  0  0  0  0  0  0  0  0
   10.1534   10.7936    2.1801 H   0  0  0  0  0  0  0  0  0  0  0  0
   10.2256   10.8070    3.9610 H   0  0  0  0  0  0  0  0  0  0  0  0
   12.3112   10.3420    2.1274 H   0  0  0  0  0  0  0  0  0  0  0  0
   12.4001   10.1967    3.8942 H   0  0  0  0  0  0  0  0  0  0  0  0
  1  2  1  0
  2  3  1  0
  2  4  1  0
  4  5  1  0
  5  6  1  0
  6  7  1  0
  7  8  1  0
  8  9  2  0
  8 10  1  0
 10 11  1  0
 11 12  2  0
 12 13  1  0
 13 14  2  0
 14 15  1  0
 15 16  2  0
  7 17  1  0
 17 18  1  0
 18  4  1  0
 16 11  1  0
  1 19  1  0
  1 20  1  0
  1 21  1  0
  2 22  1  0
  3 23  1  0
  3 24  1  0
  3 25  1  0
  4 26  1  0
  5 27  1  0
  5 28  1  0
  6 29  1  0
  6 30  1  0
  7 31  1  0
 10 32  1  0
 12 33  1  0
 13 34  1  0
 14 35  1  0
 16 36  1  0
 17 37  1  0
 17 38  1  0
 18 39  1  0
 18 40  1  0
M  CHG  1   3   1
M  END
>  <EmbedRMS>  (8) 
0.16496192233382964

$$$$

     RDKit          3D

 40 41  0  0  0  0  0  0  0  0999 V2000
   14.0290    7.0399    1.2338 C   0  0  0  0  0  0  0  0  0  0  0  0
   13.6704    8.3365    1.9394 C   0  0  0  0  0  0  0  0  0  0  0  0
   14.6146    8.7684    2.9621 N   0  0  0  0  0  4  0  0  0  0  0  0
   12.1593    8.5893    2.2125 C   0  0  0  0  0  0  0  0  0  0  0  0
   11.2439    7.3757    2.4544 C   0  0  0  0  0  0  0  0  0  0  0  0
    9.7921    7.8212    2.2160 C   0  0  0  0  0  0  0  0  0  0  0  0
    9.4155    8.9809    3.1572 C   0  0  0  0  0  0  0  0  0  0  0  0
    8.0216    9.4614    2.8746 C   0  0  0  0  0  0  0  0  0  0  0  0
    7.6551    9.6697    1.6858 O   0  0  0  0  0  0  0  0  0  0  0  0
    7.1397    9.7023    3.9770 N   0  0  0  0  0  0  0  0  0  0  0  0
    5.7810   10.1375    3.8746 C   0  0  0  0  0  0  0  0  0  0  0  0
    4.9524   10.3361    4.9568 C   0  0  0  0  0  0  0  0  0  0  0  0
    3.7766   10.7495    4.3710 C   0  0  0  0  0  0  0  0  0  0  0  0
    2.5848   11.0894    5.0706 N   0  0  0  0  0  0  0  0  0  0  0  0
    3.8915   10.7962    3.0312 N   0  0  0  0  0  0  0  0  0  0  0  0
    5.1215   10.4200    2.7309 N   0  0  0  0  0  0  0  0  0  0  0  0
   10.4086   10.1569    3.0897 C   0  0  0  0  0  0  0  0  0  0  0  0
   11.8580    9.6804    3.2548 C   0  0  0  0  0  0  0  0  0  0  0  0
   15.0839    7.0609    0.8845 H   0  0  0  0  0  0  0  0  0  0  0  0
   13.3775    6.8823    0.3472 H   0  0  0  0  0  0  0  0  0  0  0  0
   13.9096    6.1868    1.9341 H   0  0  0  0  0  0  0  0  0  0  0  0
   13.8838    9.0586    1.1114 H   0  0  0  0  0  0  0  0  0  0  0  0
   14.5975    9.8057    3.0882 H   0  0  0  0  0  0  0  0  0  0  0  0
   15.5907    8.5021    2.6969 H   0  0  0  0  0  0  0  0  0  0  0  0
   14.3791    8.3016    3.8673 H   0  0  0  0  0  0  0  0  0  0  0  0
   11.8031    9.0076    1.2379 H   0  0  0  0  0  0  0  0  0  0  0  0
   11.4662    6.5551    1.7420 H   0  0  0  0  0  0  0  0  0  0  0  0
   11.3748    6.9860    3.4877 H   0  0  0  0  0  0  0  0  0  0  0  0
    9.1176    6.9580    2.4079 H   0  0  0  0  0  0  0  0  0  0  0  0
    9.6619    8.1184    1.1513 H   0  0  0  0  0  0  0  0  0  0  0  0
    9.4494    8.5767    4.1940 H   0  0  0  0  0  0  0  0  0  0  0  0
    7.5097    9.5475    4.9422 H   0  0  0  0  0  0  0  0  0  0  0  0
    5.1710   10.2023    6.0081 H   0  0  0  0  0  0  0  0  0  0  0  0
    1.7358   11.3946    4.5453 H   0  0  0  0  0  0  0  0  0  0  0  0
    2.5488   11.0363    6.1128 H   0  0  0  0  0  0  0  0  0  0  0  0
    5.4649   10.3729    1.7501 H   0  0  0  0  0  0  0  0  0  0  0  0
   10.3043   10.6847    2.1150 H   0  0  0  0  0  0  0  0  0  0  0  0
   10.1746   10.8869    3.8954 H   0  0  0  0  0  0  0  0  0  0  0  0
   12.5101   10.5642    3.0942 H   0  0  0  0  0  0  0  0  0  0  0  0
   12.0246    9.2949    4.2846 H   0  0  0  0  0  0  0  0  0  0  0  0
  1  2  1  0
  2  3  1  0
  2  4  1  0
  4  5  1  0
  5  6  1  0
  6  7  1  0
  7  8  1  0
  8  9  2  0
  8 10  1  0
 10 11  1  0
 11 12  2  0
 12 13  1  0
 13 14  1  0
 13 15  2  0
 15 16  1  0
  7 17  1  0
 17 18  1  0
 18  4  1  0
 16 11  1  0
  1 19  1  0
  1 20  1  0
  1 21  1  0
  2 22  1  0
  3 23  1  0
  3 24  1  0
  3 25  1  0
  4 26  1  0
  5 27  1  0
  5 28  1  0
  6 29  1  0
  6 30  1  0
  7 31  1  0
 10 32  1  0
 12 33  1  0
 14 34  1  0
 14 35  1  0
 16 36  1  0
 17 37  1  0
 17 38  1  0
 18 39  1  0
 18 40  1  0
M  CHG  1   3   1
M  END
>  <EmbedRMS>  (9) 
0.18315233489621047

$$$$

     RDKit          3D

 39 40  0  0  0  0  0  0  0  0999 V2000
   14.0110    7.0511    1.2526 C   0  0  0  0  0  0  0  0  0  0  0  0
   13.6007    8.3248    1.9901 C   0  0  0  0  0  0  0  0  0  0  0  0
   14.7033    8.8921    2.7690 N   0  0  0  0  0  4  0  0  0  0  0  0
   12.2625    8.3270    2.7691 C   0  0  0  0  0  0  0  0  0  0  0  0
   11.1802    7.4398    2.1370 C   0  0  0  0  0  0  0  0  0  0  0  0
    9.7464    7.7250    2.5506 C   0  0  0  0  0  0  0  0  0  0  0  0
    9.4528    9.2006    2.6508 C   0  0  0  0  0  0  0  0  0  0  0  0
    7.9907    9.5272    2.7197 C   0  0  0  0  0  0  0  0  0  0  0  0
    7.4511    9.6605    1.5982 O   0  0  0  0  0  0  0  0  0  0  0  0
    7.2032    9.6917    3.9188 N   0  0  0  0  0  0  0  0  0  0  0  0
    5.8190   10.1244    3.8864 C   0  0  0  0  0  0  0  0  0  0  0  0
    5.0492   10.4501    2.7707 C   0  0  0  0  0  0  0  0  0  0  0  0
    3.8118   10.8137    3.2504 C   0  0  0  0  0  0  0  0  0  0  0  0
    3.7917   10.7296    4.5924 N   0  0  0  0  0  0  0  0  0  0  0  0
    5.0092   10.3116    4.9903 C   0  0  0  0  0  0  0  0  0  0  0  0
   10.3879   10.0193    3.4937 C   0  0  0  0  0  0  0  0  0  0  0  0
   11.8511    9.7804    3.1265 C   0  0  0  0  0  0  0  0  0  0  0  0
   13.2659    6.7648    0.4822 H   0  0  0  0  0  0  0  0  0  0  0  0
   14.9817    7.1940    0.7316 H   0  0  0  0  0  0  0  0  0  0  0  0
   14.1182    6.2183    1.9789 H   0  0  0  0  0  0  0  0  0  0  0  0
   13.4353    9.0292    1.1418 H   0  0  0  0  0  0  0  0  0  0  0  0
   14.5218    9.8930    3.0061 H   0  0  0  0  0  0  0  0  0  0  0  0
   15.5925    8.8665    2.2188 H   0  0  0  0  0  0  0  0  0  0  0  0
   14.8389    8.3426    3.6484 H   0  0  0  0  0  0  0  0  0  0  0  0
   12.4711    7.8390    3.7480 H   0  0  0  0  0  0  0  0  0  0  0  0
   11.2117    7.5939    1.0361 H   0  0  0  0  0  0  0  0  0  0  0  0
   11.4077    6.3669    2.3236 H   0  0  0  0  0  0  0  0  0  0  0  0
    9.0547    7.2379    1.8268 H   0  0  0  0  0  0  0  0  0  0  0  0
    9.5649    7.2656    3.5467 H   0  0  0  0  0  0  0  0  0  0  0  0
    9.7356    9.5600    1.6294 H   0  0  0  0  0  0  0  0  0  0  0  0
    7.6552    9.5149    4.8435 H   0  0  0  0  0  0  0  0  0  0  0  0
    5.3065   10.4537    1.7245 H   0  0  0  0  0  0  0  0  0  0  0  0
    2.9693   11.1301    2.6494 H   0  0  0  0  0  0  0  0  0  0  0  0
    2.9817   10.9503    5.2127 H   0  0  0  0  0  0  0  0  0  0  0  0
    5.2923   10.1545    6.0229 H   0  0  0  0  0  0  0  0  0  0  0  0
   10.1492   11.1022    3.3982 H   0  0  0  0  0  0  0  0  0  0  0  0
   10.2369    9.7340    4.5575 H   0  0  0  0  0  0  0  0  0  0  0  0
   12.4748   10.1510    3.9689 H   0  0  0  0  0  0  0  0  0  0  0  0
   12.0642   10.4412    2.2573 H   0  0  0  0  0  0  0  0  0  0  0  0
  1  2  1  0
  2  3  1  0
  2  4  1  0
  4  5  1  0
  5  6  1  0
  6  7  1  0
  7  8  1  0
  8  9  2  0
  8 10  1  0
 10 11  1  0
 11 12  1  0
 12 13  2  0
 13 14  1  0
 14 15  1  0
  7 16  1  0
 16 17  1  0
 17  4  1  0
 15 11  2  0
  1 18  1  0
  1 19  1  0
  1 20  1  0
  2 21  1  0
  3 22  1  0
  3 23  1  0
  3 24  1  0
  4 25  1  0
  5 26  1  0
  5 27  1  0
  6 28  1  0
  6 29  1  0
  7 30  1  0
 10 31  1  0
 12 32  1  0
 13 33  1  0
 14 34  1  0
 15 35  1  0
 16 36  1  0
 16 37  1  0
 17 38  1  0
 17 39  1  0
M  CHG  1   3   1
M  END
>  <EmbedRMS>  (10) 
0.3005329260886256

$$$$

     RDKit          3D

 39 40  0  0  0  0  0  0  0  0999 V2000
   14.0110    7.0511    1.2526 C   0  0  0  0  0  0  0  0  0  0  0  0
   13.6007    8.3248    1.9901 C   0  0  0  0  0  0  0  0  0  0  0  0
   14.7033    8.8921    2.7690 N   0  0  0  0  0  4  0  0  0  0  0  0
   12.2625    8.3270    2.7691 C   0  0  0  0  0  0  0  0  0  0  0  0
   11.1802    7.4398    2.1370 C   0  0  0  0  0  0  0  0  0  0  0  0
    9.7464    7.7250    2.5506 C   0  0  0  0  0  0  0  0  0  0  0  0
    9.4528    9.2006    2.6508 C   0  0  0  0  0  0  0  0  0  0  0  0
    7.9907    9.5272    2.7197 C   0  0  0  0  0  0  0  0  0  0  0  0
    7.4511    9.6605    1.5982 O   0  0  0  0  0  0  0  0  0  0  0  0
    7.2032    9.6917    3.9188 N   0  0  0  0  0  0  0  0  0  0  0  0
    5.8190   10.1244    3.8864 C   0  0  0  0  0  0  0  0  0  0  0  0
    5.0492   10.4501    2.7707 C   0  0  0  0  0  0  0  0  0  0  0  0
    3.8118   10.8137    3.2504 C   0  0  0  0  0  0  0  0  0  0  0  0
    3.7917   10.7296    4.5924 N   0  0  0  0  0  0  0  0  0  0  0  0
    5.0092   10.3116    4.9903 C   0  0  0  0  0  0  0  0  0  0  0  0
   10.3879   10.0193    3.4937 C   0  0  0  0  0  0  0  0  0  0  0  0
   11.8511    9.7804    3.1265 C   0  0  0  0  0  0  0  0  0  0  0  0
   13.2659    6.7648    0.4822 H   0  0  0  0  0  0  0  0  0  0  0  0
   14.9817    7.1940    0.7316 H   0  0  0  0  0  0  0  0  0  0  0  0
   14.1182    6.2183    1.9789 H   0  0  0  0  0  0  0  0  0  0  0  0
   13.4353    9.0292    1.1418 H   0  0  0  0  0  0  0  0  0  0  0  0
   14.5218    9.8930    3.0061 H   0  0  0  0  0  0  0  0  0  0  0  0
   15.5925    8.8665    2.2188 H   0  0  0  0  0  0  0  0  0  0  0  0
   14.8389    8.3426    3.6484 H   0  0  0  0  0  0  0  0  0  0  0  0
   12.4711    7.8390    3.7480 H   0  0  0  0  0  0  0  0  0  0  0  0
   11.2117    7.5939    1.0361 H   0  0  0  0  0  0  0  0  0  0  0  0
   11.4077    6.3669    2.3236 H   0  0  0  0  0  0  0  0  0  0  0  0
    9.0547    7.2379    1.8268 H   0  0  0  0  0  0  0  0  0  0  0  0
    9.5649    7.2656    3.5467 H   0  0  0  0  0  0  0  0  0  0  0  0
    9.7356    9.5600    1.6294 H   0  0  0  0  0  0  0  0  0  0  0  0
    7.6552    9.5149    4.8435 H   0  0  0  0  0  0  0  0  0  0  0  0
    5.3065   10.4537    1.7245 H   0  0  0  0  0  0  0  0  0  0  0  0
    2.9693   11.1301    2.6494 H   0  0  0  0  0  0  0  0  0  0  0  0
    2.9817   10.9503    5.2127 H   0  0  0  0  0  0  0  0  0  0  0  0
    5.2923   10.1545    6.0229 H   0  0  0  0  0  0  0  0  0  0  0  0
   10.1492   11.1022    3.3982 H   0  0  0  0  0  0  0  0  0  0  0  0
   10.2369    9.7340    4.5575 H   0  0  0  0  0  0  0  0  0  0  0  0
   12.4748   10.1510    3.9689 H   0  0  0  0  0  0  0  0  0  0  0  0
   12.0642   10.4412    2.2573 H   0  0  0  0  0  0  0  0  0  0  0  0
  1  2  1  0
  2  3  1  0
  2  4  1  0
  4  5  1  0
  5  6  1  0
  6  7  1  0
  7  8  1  0
  8  9  2  0
  8 10  1  0
 10 11  1  0
 11 12  1  0
 12 13  2  0
 13 14  1  0
 14 15  1  0
  7 16  1  0
 16 17  1  0
 17  4  1  0
 15 11  2  0
  1 18  1  0
  1 19  1  0
  1 20  1  0
  2 21  1  0
  3 22  1  0
  3 23  1  0
  3 24  1  0
  4 25  1  0
  5 26  1  0
  5 27  1  0
  6 28  1  0
  6 29  1  0
  7 30  1  0
 10 31  1  0
 12 32  1  0
 13 33  1  0
 14 34  1  0
 15 35  1  0
 16 36  1  0
 16 37  1  0
 17 38  1  0
 17 39  1  0
M  CHG  1   3   1
M  END
>  <EmbedRMS>  (11) 
0.3005329260886256

$$$$

     RDKit          3D

 42 43  0  0  0  0  0  0  0  0999 V2000
   14.0286    7.0398    1.2341 C   0  0  0  0  0  0  0  0  0  0  0  0
   13.6699    8.3365    1.9395 C   0  0  0  0  0  0  0  0  0  0  0  0
   14.6139    8.7685    2.9623 N   0  0  0  0  0  4  0  0  0  0  0  0
   12.1586    8.5895    2.2120 C   0  0  0  0  0  0  0  0  0  0  0  0
   11.2422    7.3764    2.4527 C   0  0  0  0  0  0  0  0  0  0  0  0
    9.7904    7.8228    2.2129 C   0  0  0  0  0  0  0  0  0  0  0  0
    9.4138    8.9822    3.1541 C   0  0  0  0  0  0  0  0  0  0  0  0
    8.0178    9.4630    2.8766 C   0  0  0  0  0  0  0  0  0  0  0  0
    7.6416    9.6721    1.6902 O   0  0  0  0  0  0  0  0  0  0  0  0
    7.1430    9.7038    3.9846 N   0  0  0  0  0  0  0  0  0  0  0  0
    5.7838   10.1375    3.8904 C   0  0  0  0  0  0  0  0  0  0  0  0
    5.0600   10.4450    2.7482 C   0  0  0  0  0  0  0  0  0  0  0  0
    3.8087   10.8163    3.1943 C   0  0  0  0  0  0  0  0  0  0  0  0
    3.7554   10.7299    4.5381 N   0  0  0  0  0  0  0  0  0  0  0  0
    2.6152   11.0742    5.3740 C   0  0  0  0  0  0  0  0  0  0  0  0
    4.9607   10.3304    4.9762 C   0  0  0  0  0  0  0  0  0  0  0  0
   10.4074   10.1577    3.0881 C   0  0  0  0  0  0  0  0  0  0  0  0
   11.8568    9.6806    3.2543 C   0  0  0  0  0  0  0  0  0  0  0  0
   15.0836    7.0605    0.8852 H   0  0  0  0  0  0  0  0  0  0  0  0
   13.9086    6.1867    1.9344 H   0  0  0  0  0  0  0  0  0  0  0  0
   13.3774    6.8822    0.3472 H   0  0  0  0  0  0  0  0  0  0  0  0
   13.8836    9.0584    1.1114 H   0  0  0  0  0  0  0  0  0  0  0  0
   14.5968    9.8058    3.0880 H   0  0  0  0  0  0  0  0  0  0  0  0
   14.3782    8.3019    3.8675 H   0  0  0  0  0  0  0  0  0  0  0  0
   15.5901    8.5020    2.6974 H   0  0  0  0  0  0  0  0  0  0  0  0
   11.8031    9.0083    1.2374 H   0  0  0  0  0  0  0  0  0  0  0  0
   11.4648    6.5560    1.7402 H   0  0  0  0  0  0  0  0  0  0  0  0
   11.3719    6.9862    3.4860 H   0  0  0  0  0  0  0  0  0  0  0  0
    9.1152    6.9599    2.4039 H   0  0  0  0  0  0  0  0  0  0  0  0
    9.6606    8.1212    1.1485 H   0  0  0  0  0  0  0  0  0  0  0  0
    9.4499    8.5765    4.1903 H   0  0  0  0  0  0  0  0  0  0  0  0
    7.5190    9.5487    4.9475 H   0  0  0  0  0  0  0  0  0  0  0  0
    5.3736   10.4218    1.7158 H   0  0  0  0  0  0  0  0  0  0  0  0
    2.9844   11.1327    2.5678 H   0  0  0  0  0  0  0  0  0  0  0  0
    2.6239   10.4669    6.3042 H   0  0  0  0  0  0  0  0  0  0  0  0
    1.6671   10.8736    4.8308 H   0  0  0  0  0  0  0  0  0  0  0  0
    2.6622   12.1507    5.6405 H   0  0  0  0  0  0  0  0  0  0  0  0
    5.2241   10.1879    6.0169 H   0  0  0  0  0  0  0  0  0  0  0  0
   10.3038   10.6858    2.1135 H   0  0  0  0  0  0  0  0  0  0  0  0
   10.1731   10.8874    3.8939 H   0  0  0  0  0  0  0  0  0  0  0  0
   12.0225    9.2949    4.2841 H   0  0  0  0  0  0  0  0  0  0  0  0
   12.5094   10.5642    3.0943 H   0  0  0  0  0  0  0  0  0  0  0  0
  1  2  1  0
  2  3  1  0
  2  4  1  0
  4  5  1  0
  5  6  1  0
  6  7  1  0
  7  8  1  0
  8  9  2  0
  8 10  1  0
 10 11  1  0
 11 12  1  0
 12 13  2  0
 13 14  1  0
 14 15  1  0
 14 16  1  0
  7 17  1  0
 17 18  1  0
 18  4  1  0
 16 11  2  0
  1 19  1  0
  1 20  1  0
  1 21  1  0
  2 22  1  0
  3 23  1  0
  3 24  1  0
  3 25  1  0
  4 26  1  0
  5 27  1  0
  5 28  1  0
  6 29  1  0
  6 30  1  0
  7 31  1  0
 10 32  1  0
 12 33  1  0
 13 34  1  0
 15 35  1  0
 15 36  1  0
 15 37  1  0
 16 38  1  0
 17 39  1  0
 17 40  1  0
 18 41  1  0
 18 42  1  0
M  CHG  1   3   1
M  END
>  <EmbedRMS>  (12) 
0.18278266355164025

$$$$

     RDKit          3D

 34 34  0  0  0  0  0  0  0  0999 V2000
    5.8329   10.1084    3.8848 C   0  0  0  0  0  0  0  0  0  0  0  0
    7.2300    9.6721    3.9456 N   0  0  0  0  0  0  0  0  0  0  0  0
    7.9825    9.5176    2.7336 C   0  0  0  0  0  0  0  0  0  0  0  0
    7.4038    9.6808    1.6309 O   0  0  0  0  0  0  0  0  0  0  0  0
    9.4450    9.1949    2.6523 C   0  0  0  0  0  0  0  0  0  0  0  0
    9.7659    7.7145    2.4310 C   0  0  0  0  0  0  0  0  0  0  0  0
   11.2645    7.3643    2.5394 C   0  0  0  0  0  0  0  0  0  0  0  0
   12.1440    8.5865    2.2316 C   0  0  0  0  0  0  0  0  0  0  0  0
   13.6550    8.3396    1.9330 C   0  0  0  0  0  0  0  0  0  0  0  0
   14.0142    7.0445    1.2245 C   0  0  0  0  0  0  0  0  0  0  0  0
   14.6175    8.7737    2.9400 N   0  0  0  0  0  4  0  0  0  0  0  0
   11.8902    9.6847    3.2842 C   0  0  0  0  0  0  0  0  0  0  0  0
   10.4057   10.0818    3.4290 C   0  0  0  0  0  0  0  0  0  0  0  0
    5.7674   11.1015    3.3922 H   0  0  0  0  0  0  0  0  0  0  0  0
    5.4215   10.1915    4.9127 H   0  0  0  0  0  0  0  0  0  0  0  0
    5.2299    9.3684    3.3173 H   0  0  0  0  0  0  0  0  0  0  0  0
    7.6848    9.4991    4.8697 H   0  0  0  0  0  0  0  0  0  0  0  0
    9.6804    9.5858    1.6329 H   0  0  0  0  0  0  0  0  0  0  0  0
    9.2153    7.1145    3.1879 H   0  0  0  0  0  0  0  0  0  0  0  0
    9.3849    7.3947    1.4340 H   0  0  0  0  0  0  0  0  0  0  0  0
   11.4945    7.0012    3.5653 H   0  0  0  0  0  0  0  0  0  0  0  0
   11.4746    6.5314    1.8369 H   0  0  0  0  0  0  0  0  0  0  0  0
   11.7511    8.9795    1.2646 H   0  0  0  0  0  0  0  0  0  0  0  0
   13.8453    9.0650    1.1029 H   0  0  0  0  0  0  0  0  0  0  0  0
   15.0594    7.0787    0.8480 H   0  0  0  0  0  0  0  0  0  0  0  0
   13.3413    6.8737    0.3566 H   0  0  0  0  0  0  0  0  0  0  0  0
   13.9245    6.1932    1.9314 H   0  0  0  0  0  0  0  0  0  0  0  0
   15.5929    8.5546    2.6319 H   0  0  0  0  0  0  0  0  0  0  0  0
   14.5663    9.8048    3.1021 H   0  0  0  0  0  0  0  0  0  0  0  0
   14.4328    8.2662    3.8350 H   0  0  0  0  0  0  0  0  0  0  0  0
   12.2711    9.3420    4.2714 H   0  0  0  0  0  0  0  0  0  0  0  0
   12.4559   10.5993    3.0033 H   0  0  0  0  0  0  0  0  0  0  0  0
   10.1327   10.0263    4.5050 H   0  0  0  0  0  0  0  0  0  0  0  0
   10.2681   11.1447    3.1242 H   0  0  0  0  0  0  0  0  0  0  0  0
  1  2  1  0
  2  3  1  0
  3  4  2  0
  3  5  1  0
  5  6  1  0
  6  7  1  0
  7  8  1  0
  8  9  1  0
  9 10  1  0
  9 11  1  0
  8 12  1  0
 12 13  1  0
 13  5  1  0
  1 14  1  0
  1 15  1  0
  1 16  1  0
  2 17  1  0
  5 18  1  0
  6 19  1  0
  6 20  1  0
  7 21  1  0
  7 22  1  0
  8 23  1  0
  9 24  1  0
 10 25  1  0
 10 26  1  0
 10 27  1  0
 11 28  1  0
 11 29  1  0
 11 30  1  0
 12 31  1  0
 12 32  1  0
 13 33  1  0
 13 34  1  0
M  CHG  1  11   1
M  END
>  <EmbedRMS>  (13) 
0.29639754771625826

$$$$

     RDKit          3D

 40 41  0  0  0  0  0  0  0  0999 V2000
   13.9329    7.3332    1.0252 C   0  0  0  0  0  0  0  0  0  0  0  0
   13.7122    7.9147    2.4298 C   0  0  0  0  0  0  0  0  0  0  0  0
   14.6502    9.0166    2.6726 N   0  0  0  0  0  4  0  0  0  0  0  0
   12.2360    8.2981    2.7981 C   0  0  0  0  0  0  0  0  0  0  0  0
   11.1510    7.3123    2.3266 C   0  0  0  0  0  0  0  0  0  0  0  0
    9.7902    7.9324    2.0780 C   0  0  0  0  0  0  0  0  0  0  0  0
    9.4250    8.9811    3.1236 C   0  0  0  0  0  0  0  0  0  0  0  0
    8.0213    9.4644    2.8678 C   0  0  0  0  0  0  0  0  0  0  0  0
    7.6543    9.6771    1.6809 O   0  0  0  0  0  0  0  0  0  0  0  0
    7.1400    9.7013    3.9767 N   0  0  0  0  0  0  0  0  0  0  0  0
    5.7711   10.1430    3.9231 C   0  0  0  0  0  0  0  0  0  0  0  0
    5.0989   10.4458    2.7188 C   0  0  0  0  0  0  0  0  0  0  0  0
    3.7748   10.8726    2.7577 C   0  0  0  0  0  0  0  0  0  0  0  0
    3.1197   10.9993    3.9785 C   0  0  0  0  0  0  0  0  0  0  0  0
    3.8044   10.6942    5.1536 C   0  0  0  0  0  0  0  0  0  0  0  0
    5.0971   10.2789    5.0996 N   0  0  0  0  0  0  0  0  0  0  0  0
   10.3964   10.1660    3.0685 C   0  0  0  0  0  0  0  0  0  0  0  0
   11.8879    9.7885    2.9929 C   0  0  0  0  0  0  0  0  0  0  0  0
   15.0168    7.2780    0.7887 H   0  0  0  0  0  0  0  0  0  0  0  0
   13.5394    6.2974    0.9561 H   0  0  0  0  0  0  0  0  0  0  0  0
   13.4390    7.9748    0.2650 H   0  0  0  0  0  0  0  0  0  0  0  0
   14.0105    7.0846    3.1149 H   0  0  0  0  0  0  0  0  0  0  0  0
   14.5086    9.7875    1.9809 H   0  0  0  0  0  0  0  0  0  0  0  0
   14.5444    9.3792    3.6472 H   0  0  0  0  0  0  0  0  0  0  0  0
   15.6334    8.6710    2.5808 H   0  0  0  0  0  0  0  0  0  0  0  0
   12.2420    8.0319    3.8835 H   0  0  0  0  0  0  0  0  0  0  0  0
   11.0355    6.4816    3.0615 H   0  0  0  0  0  0  0  0  0  0  0  0
   11.4344    6.8254    1.3750 H   0  0  0  0  0  0  0  0  0  0  0  0
    9.7987    8.4005    1.0671 H   0  0  0  0  0  0  0  0  0  0  0  0
    9.0254    7.1235    2.0674 H   0  0  0  0  0  0  0  0  0  0  0  0
    9.4815    8.5099    4.1304 H   0  0  0  0  0  0  0  0  0  0  0  0
    7.5298    9.5316    4.9316 H   0  0  0  0  0  0  0  0  0  0  0  0
    5.5392   10.3753    1.7440 H   0  0  0  0  0  0  0  0  0  0  0  0
    3.2528   11.1076    1.8387 H   0  0  0  0  0  0  0  0  0  0  0  0
    2.0900   11.3310    4.0154 H   0  0  0  0  0  0  0  0  0  0  0  0
    3.3088   10.7876    6.1107 H   0  0  0  0  0  0  0  0  0  0  0  0
   10.2254   10.8078    3.9612 H   0  0  0  0  0  0  0  0  0  0  0  0
   10.1526   10.7934    2.1804 H   0  0  0  0  0  0  0  0  0  0  0  0
   12.3997   10.1968    3.8943 H   0  0  0  0  0  0  0  0  0  0  0  0
   12.3106   10.3422    2.1276 H   0  0  0  0  0  0  0  0  0  0  0  0
  1  2  1  0
  2  3  1  0
  2  4  1  0
  4  5  1  0
  5  6  1  0
  6  7  1  0
  7  8  1  0
  8  9  2  0
  8 10  1  0
 10 11  1  0
 11 12  2  0
 12 13  1  0
 13 14  2  0
 14 15  1  0
 15 16  2  0
  7 17  1  0
 17 18  1  0
 18  4  1  0
 16 11  1  0
  1 19  1  0
  1 20  1  0
  1 21  1  0
  2 22  1  0
  3 23  1  0
  3 24  1  0
  3 25  1  0
  4 26  1  0
  5 27  1  0
  5 28  1  0
  6 29  1  0
  6 30  1  0
  7 31  1  0
 10 32  1  0
 12 33  1  0
 13 34  1  0
 14 35  1  0
 15 36  1  0
 17 37  1  0
 17 38  1  0
 18 39  1  0
 18 40  1  0
M  CHG  1   3   1
M  END
>  <EmbedRMS>  (14) 
0.16489371128598093

$$$$

     RDKit          3D

 45 45  0  0  0  0  0  0  0  0999 V2000
    6.6426   12.2821    2.6516 C   0  0  0  0  0  0  0  0  0  0  0  0
    5.6157   11.5113    3.0196 C   0  0  0  0  0  0  0  0  0  0  0  0
    4.2139   11.9100    2.6324 C   0  0  0  0  0  0  0  0  0  0  0  0
    5.8597   10.3523    3.9284 C   0  0  0  0  0  0  0  0  0  0  0  0
    4.8899    9.9517    4.7721 C   0  0  0  0  0  0  0  0  0  0  0  0
    5.0638    8.8198    5.7367 C   0  0  0  0  0  0  0  0  0  0  0  0
    7.1587    9.7297    4.0017 N   0  0  0  0  0  0  0  0  0  0  0  0
    8.0094    9.4770    2.8770 C   0  0  0  0  0  0  0  0  0  0  0  0
    7.5925    9.6699    1.6995 O   0  0  0  0  0  0  0  0  0  0  0  0
    9.4190    8.9882    3.1140 C   0  0  0  0  0  0  0  0  0  0  0  0
    9.7814    7.9392    2.0698 C   0  0  0  0  0  0  0  0  0  0  0  0
   11.1442    7.3173    2.3173 C   0  0  0  0  0  0  0  0  0  0  0  0
   12.2312    8.2990    2.7947 C   0  0  0  0  0  0  0  0  0  0  0  0
   13.7088    7.9146    2.4295 C   0  0  0  0  0  0  0  0  0  0  0  0
   13.9319    7.3320    1.0257 C   0  0  0  0  0  0  0  0  0  0  0  0
   14.6475    9.0159    2.6730 N   0  0  0  0  0  4  0  0  0  0  0  0
   11.8850    9.7892    2.9963 C   0  0  0  0  0  0  0  0  0  0  0  0
   10.3931   10.1701    3.0593 C   0  0  0  0  0  0  0  0  0  0  0  0
    6.5060   13.1634    2.0375 H   0  0  0  0  0  0  0  0  0  0  0  0
    6.5060   13.1634    2.0375 H   0  0  0  0  0  0  0  0  0  0  0  0
    4.2031   12.4754    1.6757 H   0  0  0  0  0  0  0  0  0  0  0  0
    3.5836   11.0078    2.4847 H   0  0  0  0  0  0  0  0  0  0  0  0
    3.7720   12.5450    3.4286 H   0  0  0  0  0  0  0  0  0  0  0  0
    3.9254   10.4428    4.7786 H   0  0  0  0  0  0  0  0  0  0  0  0
    5.3803    7.9015    5.1981 H   0  0  0  0  0  0  0  0  0  0  0  0
    5.8159    9.0848    6.5090 H   0  0  0  0  0  0  0  0  0  0  0  0
    4.0999    8.6139    6.2477 H   0  0  0  0  0  0  0  0  0  0  0  0
    7.5134    9.4348    4.9389 H   0  0  0  0  0  0  0  0  0  0  0  0
    9.4838    8.5152    4.1195 H   0  0  0  0  0  0  0  0  0  0  0  0
    9.7856    8.4081    1.0593 H   0  0  0  0  0  0  0  0  0  0  0  0
    9.0155    7.1315    2.0616 H   0  0  0  0  0  0  0  0  0  0  0  0
   11.4284    6.8358    1.3632 H   0  0  0  0  0  0  0  0  0  0  0  0
   11.0277    6.4824    3.0472 H   0  0  0  0  0  0  0  0  0  0  0  0
   12.2338    8.0276    3.8788 H   0  0  0  0  0  0  0  0  0  0  0  0
   14.0054    7.0847    3.1155 H   0  0  0  0  0  0  0  0  0  0  0  0
   13.5346    6.2977    0.9557 H   0  0  0  0  0  0  0  0  0  0  0  0
   13.4427    7.9752    0.2638 H   0  0  0  0  0  0  0  0  0  0  0  0
   15.0164    7.2729    0.7928 H   0  0  0  0  0  0  0  0  0  0  0  0
   14.5093    9.7854    1.9790 H   0  0  0  0  0  0  0  0  0  0  0  0
   14.5387    9.3811    3.6464 H   0  0  0  0  0  0  0  0  0  0  0  0
   15.6306    8.6688    2.5853 H   0  0  0  0  0  0  0  0  0  0  0  0
   12.3172   10.3488    2.1397 H   0  0  0  0  0  0  0  0  0  0  0  0
   12.3886   10.1897    3.9059 H   0  0  0  0  0  0  0  0  0  0  0  0
   10.1546   10.7911    2.1654 H   0  0  0  0  0  0  0  0  0  0  0  0
   10.2174   10.8183    3.9465 H   0  0  0  0  0  0  0  0  0  0  0  0
  1  2  2  3
  2  3  1  0
  2  4  1  0
  4  5  2  3
  5  6  1  0
  4  7  1  0
  7  8  1  0
  8  9  2  0
  8 10  1  0
 10 11  1  0
 11 12  1  0
 12 13  1  0
 13 14  1  0
 14 15  1  0
 14 16  1  0
 13 17  1  0
 17 18  1  0
 18 10  1  0
  1 19  1  0
  1 20  1  0
  3 21  1  0
  3 22  1  0
  3 23  1  0
  5 24  1  0
  6 25  1  0
  6 26  1  0
  6 27  1  0
  7 28  1  0
 10 29  1  0
 11 30  1  0
 11 31  1  0
 12 32  1  0
 12 33  1  0
 13 34  1  0
 14 35  1  0
 15 36  1  0
 15 37  1  0
 15 38  1  0
 16 39  1  0
 16 40  1  0
 16 41  1  0
 17 42  1  0
 17 43  1  0
 18 44  1  0
 18 45  1  0
M  CHG  1  16   1
M  END
>  <EmbedRMS>  (15) 
0.16480955270904202

$$$$

     RDKit          3D

 40 41  0  0  0  0  0  0  0  0999 V2000
   13.9332    7.3332    1.0251 C   0  0  0  0  0  0  0  0  0  0  0  0
   13.7125    7.9146    2.4297 C   0  0  0  0  0  0  0  0  0  0  0  0
   14.6504    9.0165    2.6726 N   0  0  0  0  0  4  0  0  0  0  0  0
   12.2364    8.2979    2.7979 C   0  0  0  0  0  0  0  0  0  0  0  0
   11.1515    7.3120    2.3262 C   0  0  0  0  0  0  0  0  0  0  0  0
    9.7912    7.9324    2.0765 C   0  0  0  0  0  0  0  0  0  0  0  0
    9.4261    8.9806    3.1220 C   0  0  0  0  0  0  0  0  0  0  0  0
    8.0225    9.4639    2.8667 C   0  0  0  0  0  0  0  0  0  0  0  0
    7.6546    9.6768    1.6802 O   0  0  0  0  0  0  0  0  0  0  0  0
    7.1435    9.7011    3.9767 N   0  0  0  0  0  0  0  0  0  0  0  0
    5.7719   10.1423    3.9218 C   0  0  0  0  0  0  0  0  0  0  0  0
    5.0682   10.2866    5.1272 C   0  0  0  0  0  0  0  0  0  0  0  0
    3.7425   10.7162    5.1245 C   0  0  0  0  0  0  0  0  0  0  0  0
    3.1199   11.0021    3.9115 C   0  0  0  0  0  0  0  0  0  0  0  0
    3.8030   10.8612    2.7487 N   0  0  0  0  0  0  0  0  0  0  0  0
    5.0935   10.4449    2.7201 C   0  0  0  0  0  0  0  0  0  0  0  0
   10.3969   10.1658    3.0679 C   0  0  0  0  0  0  0  0  0  0  0  0
   11.8884    9.7884    2.9926 C   0  0  0  0  0  0  0  0  0  0  0  0
   13.4390    7.9746    0.2649 H   0  0  0  0  0  0  0  0  0  0  0  0
   13.5402    6.2972    0.9560 H   0  0  0  0  0  0  0  0  0  0  0  0
   15.0172    7.2785    0.7884 H   0  0  0  0  0  0  0  0  0  0  0  0
   14.0108    7.0845    3.1148 H   0  0  0  0  0  0  0  0  0  0  0  0
   14.5446    9.3791    3.6472 H   0  0  0  0  0  0  0  0  0  0  0  0
   14.5091    9.7874    1.9809 H   0  0  0  0  0  0  0  0  0  0  0  0
   15.6338    8.6709    2.5809 H   0  0  0  0  0  0  0  0  0  0  0  0
   12.2424    8.0318    3.8833 H   0  0  0  0  0  0  0  0  0  0  0  0
   11.4353    6.8245    1.3751 H   0  0  0  0  0  0  0  0  0  0  0  0
   11.0353    6.4818    3.0616 H   0  0  0  0  0  0  0  0  0  0  0  0
    9.8005    8.4008    1.0657 H   0  0  0  0  0  0  0  0  0  0  0  0
    9.0262    7.1237    2.0652 H   0  0  0  0  0  0  0  0  0  0  0  0
    9.4833    8.5087    4.1284 H   0  0  0  0  0  0  0  0  0  0  0  0
    7.5457    9.5319    4.9268 H   0  0  0  0  0  0  0  0  0  0  0  0
    5.5478   10.0665    6.0729 H   0  0  0  0  0  0  0  0  0  0  0  0
    3.2017   10.8271    6.0555 H   0  0  0  0  0  0  0  0  0  0  0  0
    2.0913   11.3366    3.8945 H   0  0  0  0  0  0  0  0  0  0  0  0
    5.5409   10.3704    1.7502 H   0  0  0  0  0  0  0  0  0  0  0  0
   10.1534   10.7936    2.1801 H   0  0  0  0  0  0  0  0  0  0  0  0
   10.2256   10.8070    3.9610 H   0  0  0  0  0  0  0  0  0  0  0  0
   12.3112   10.3420    2.1274 H   0  0  0  0  0  0  0  0  0  0  0  0
   12.4001   10.1967    3.8942 H   0  0  0  0  0  0  0  0  0  0  0  0
  1  2  1  0
  2  3  1  0
  2  4  1  0
  4  5  1  0
  5  6  1  0
  6  7  1  0
  7  8  1  0
  8  9  2  0
  8 10  1  0
 10 11  1  0
 11 12  2  0
 12 13  1  0
 13 14  2  0
 14 15  1  0
 15 16  2  0
  7 17  1  0
 17 18  1  0
 18  4  1  0
 16 11  1  0
  1 19  1  0
  1 20  1  0
  1 21  1  0
  2 22  1  0
  3 23  1  0
  3 24  1  0
  3 25  1  0
  4 26  1  0
  5 27  1  0
  5 28  1  0
  6 29  1  0
  6 30  1  0
  7 31  1  0
 10 32  1  0
 12 33  1  0
 13 34  1  0
 14 35  1  0
 16 36  1  0
 17 37  1  0
 17 38  1  0
 18 39  1  0
 18 40  1  0
M  CHG  1   3   1
M  END
>  <EmbedRMS>  (16) 
0.16496192233382964

$$$$

     RDKit          3D

 44 45  0  0  0  0  0  0  0  0999 V2000
   13.9839    7.0986    1.1859 C   0  0  0  0  0  0  0  0  0  0  0  0
   13.5805    8.3573    1.9538 C   0  0  0  0  0  0  0  0  0  0  0  0
   14.7109    8.8841    2.7307 N   0  0  0  0  0  4  0  0  0  0  0  0
   12.2751    8.3221    2.7731 C   0  0  0  0  0  0  0  0  0  0  0  0
   11.1580    7.3128    2.3949 C   0  0  0  0  0  0  0  0  0  0  0  0
    9.7984    7.9226    2.0841 C   0  0  0  0  0  0  0  0  0  0  0  0
    9.4144    8.9888    3.1081 C   0  0  0  0  0  0  0  0  0  0  0  0
    8.0087    9.4688    2.8654 C   0  0  0  0  0  0  0  0  0  0  0  0
    7.6068    9.6884    1.6882 O   0  0  0  0  0  0  0  0  0  0  0  0
    7.1357    9.6903    3.9796 N   0  0  0  0  0  0  0  0  0  0  0  0
    5.7735   10.1841    3.8210 C   0  0  0  0  0  0  0  0  0  0  0  0
    5.7940   11.6487    3.5371 C   0  0  0  0  0  0  0  0  0  0  0  0
    5.6451   12.2639    2.3095 C   0  0  0  0  0  0  0  0  0  0  0  0
    5.7724   13.5950    2.4709 N   0  0  0  0  0  0  0  0  0  0  0  0
    6.0119   13.8216    3.7540 N   0  0  0  0  0  0  0  0  0  0  0  0
    6.1879   15.1475    4.3266 C   0  0  0  0  0  0  0  0  0  0  0  0
    6.0316   12.6636    4.4370 C   0  0  0  0  0  0  0  0  0  0  0  0
   10.3958   10.1516    3.0079 C   0  0  0  0  0  0  0  0  0  0  0  0
   11.8313    9.7200    3.3035 C   0  0  0  0  0  0  0  0  0  0  0  0
   15.0005    7.2114    0.7529 H   0  0  0  0  0  0  0  0  0  0  0  0
   13.9863    6.2216    1.8671 H   0  0  0  0  0  0  0  0  0  0  0  0
   13.2932    6.9111    0.3372 H   0  0  0  0  0  0  0  0  0  0  0  0
   13.3809    9.1010    1.1484 H   0  0  0  0  0  0  0  0  0  0  0  0
   14.9939    8.1902    3.4607 H   0  0  0  0  0  0  0  0  0  0  0  0
   15.5287    9.0534    2.1006 H   0  0  0  0  0  0  0  0  0  0  0  0
   14.4915    9.7903    3.1975 H   0  0  0  0  0  0  0  0  0  0  0  0
   12.6568    7.8404    3.7044 H   0  0  0  0  0  0  0  0  0  0  0  0
   11.4413    6.6843    1.5308 H   0  0  0  0  0  0  0  0  0  0  0  0
   11.0041    6.5965    3.2356 H   0  0  0  0  0  0  0  0  0  0  0  0
    9.0353    7.1124    2.0792 H   0  0  0  0  0  0  0  0  0  0  0  0
    9.8279    8.3625    1.0617 H   0  0  0  0  0  0  0  0  0  0  0  0
    9.4744    8.5458    4.1279 H   0  0  0  0  0  0  0  0  0  0  0  0
    7.4794    9.4927    4.9466 H   0  0  0  0  0  0  0  0  0  0  0  0
    5.2059   10.0091    4.7602 H   0  0  0  0  0  0  0  0  0  0  0  0
    5.2575    9.6320    3.0058 H   0  0  0  0  0  0  0  0  0  0  0  0
    5.4567   11.7772    1.3618 H   0  0  0  0  0  0  0  0  0  0  0  0
    7.0448   15.1443    5.0332 H   0  0  0  0  0  0  0  0  0  0  0  0
    5.2656   15.4435    4.8689 H   0  0  0  0  0  0  0  0  0  0  0  0
    6.3905   15.8875    3.5235 H   0  0  0  0  0  0  0  0  0  0  0  0
    6.2088   12.5665    5.5007 H   0  0  0  0  0  0  0  0  0  0  0  0
   10.1033   10.9533    3.7223 H   0  0  0  0  0  0  0  0  0  0  0  0
   10.3528   10.5881    1.9842 H   0  0  0  0  0  0  0  0  0  0  0  0
   11.9665    9.7515    4.4091 H   0  0  0  0  0  0  0  0  0  0  0  0
   12.4756   10.5267    2.8958 H   0  0  0  0  0  0  0  0  0  0  0  0
  1  2  1  0
  2  3  1  0
  2  4  1  0
  4  5  1  0
  5  6  1  0
  6  7  1  0
  7  8  1  0
  8  9  2  0
  8 10  1  0
 10 11  1  0
 11 12  1  0
 12 13  1  0
 13 14  2  0
 14 15  1  0
 15 16  1  0
 15 17  1  0
  7 18  1  0
 18 19  1  0
 19  4  1  0
 17 12  2  0
  1 20  1  0
  1 21  1  0
  1 22  1  0
  2 23  1  0
  3 24  1  0
  3 25  1  0
  3 26  1  0
  4 27  1  0
  5 28  1  0
  5 29  1  0
  6 30  1  0
  6 31  1  0
  7 32  1  0
 10 33  1  0
 11 34  1  0
 11 35  1  0
 13 36  1  0
 16 37  1  0
 16 38  1  0
 16 39  1  0
 17 40  1  0
 18 41  1  0
 18 42  1  0
 19 43  1  0
 19 44  1  0
M  CHG  1   3   1
M  END
>  <EmbedRMS>  (17) 
0.19659211194601114

$$$$

     RDKit          3D

 42 42  0  0  0  0  0  0  0  0999 V2000
    5.6442    9.9863    6.4267 C   0  0  0  0  0  0  0  0  0  0  0  0
    5.0643   10.2686    5.2531 C   0  0  0  0  0  0  0  0  0  0  0  0
    3.6248   10.7451    5.2920 C   0  0  0  0  0  0  0  0  0  0  0  0
    5.7993   10.1398    3.9420 C   0  0  0  0  0  0  0  0  0  0  0  0
    5.1203   10.4652    2.8175 C   0  0  0  0  0  0  0  0  0  0  0  0
    7.2071    9.7252    3.9020 N   0  0  0  0  0  0  0  0  0  0  0  0
    7.9946    9.5364    2.7026 C   0  0  0  0  0  0  0  0  0  0  0  0
    7.4640    9.6168    1.5746 O   0  0  0  0  0  0  0  0  0  0  0  0
    9.4581    9.2141    2.6473 C   0  0  0  0  0  0  0  0  0  0  0  0
    9.7401    7.7439    2.3770 C   0  0  0  0  0  0  0  0  0  0  0  0
   11.2019    7.3496    2.5443 C   0  0  0  0  0  0  0  0  0  0  0  0
   12.1849    8.5085    2.2981 C   0  0  0  0  0  0  0  0  0  0  0  0
   13.6484    7.9627    2.3855 C   0  0  0  0  0  0  0  0  0  0  0  0
   14.0286    7.2303    1.0858 C   0  0  0  0  0  0  0  0  0  0  0  0
   14.6296    9.0247    2.6464 N   0  0  0  0  0  4  0  0  0  0  0  0
   11.9007    9.6393    3.3209 C   0  0  0  0  0  0  0  0  0  0  0  0
   10.4224   10.0728    3.4398 C   0  0  0  0  0  0  0  0  0  0  0  0
    5.1004   10.0952    7.3570 H   0  0  0  0  0  0  0  0  0  0  0  0
    6.6506    9.6241    6.5348 H   0  0  0  0  0  0  0  0  0  0  0  0
    2.9775   10.0382    4.7315 H   0  0  0  0  0  0  0  0  0  0  0  0
    3.2212   10.8080    6.3258 H   0  0  0  0  0  0  0  0  0  0  0  0
    3.5504   11.7614    4.8508 H   0  0  0  0  0  0  0  0  0  0  0  0
    5.5158   10.5446    1.8288 H   0  0  0  0  0  0  0  0  0  0  0  0
    4.0804   10.7514    2.8275 H   0  0  0  0  0  0  0  0  0  0  0  0
    7.7400    9.5824    4.7820 H   0  0  0  0  0  0  0  0  0  0  0  0
    9.7358    9.6231    1.6427 H   0  0  0  0  0  0  0  0  0  0  0  0
    9.4030    7.4758    1.3485 H   0  0  0  0  0  0  0  0  0  0  0  0
    9.1325    7.1277    3.0763 H   0  0  0  0  0  0  0  0  0  0  0  0
   11.4017    6.4986    1.8624 H   0  0  0  0  0  0  0  0  0  0  0  0
   11.3477    6.9713    3.5814 H   0  0  0  0  0  0  0  0  0  0  0  0
   12.0138    8.9215    1.2783 H   0  0  0  0  0  0  0  0  0  0  0  0
   13.7180    7.2278    3.2204 H   0  0  0  0  0  0  0  0  0  0  0  0
   13.9575    7.9171    0.2155 H   0  0  0  0  0  0  0  0  0  0  0  0
   13.3813    6.3500    0.9049 H   0  0  0  0  0  0  0  0  0  0  0  0
   15.0720    6.8550    1.1506 H   0  0  0  0  0  0  0  0  0  0  0  0
   14.5186    9.3996    3.6156 H   0  0  0  0  0  0  0  0  0  0  0  0
   15.6013    8.6424    2.5826 H   0  0  0  0  0  0  0  0  0  0  0  0
   14.5276    9.7980    1.9491 H   0  0  0  0  0  0  0  0  0  0  0  0
   12.2458    9.3059    4.3252 H   0  0  0  0  0  0  0  0  0  0  0  0
   12.4962   10.5376    3.0498 H   0  0  0  0  0  0  0  0  0  0  0  0
   10.3162   11.1415    3.1418 H   0  0  0  0  0  0  0  0  0  0  0  0
   10.1291   10.0191    4.5104 H   0  0  0  0  0  0  0  0  0  0  0  0
  1  2  2  3
  2  3  1  0
  2  4  1  0
  4  5  2  3
  4  6  1  0
  6  7  1  0
  7  8  2  0
  7  9  1  0
  9 10  1  0
 10 11  1  0
 11 12  1  0
 12 13  1  0
 13 14  1  0
 13 15  1  0
 12 16  1  0
 16 17  1  0
 17  9  1  0
  1 18  1  0
  1 19  1  0
  3 20  1  0
  3 21  1  0
  3 22  1  0
  5 23  1  0
  5 24  1  0
  6 25  1  0
  9 26  1  0
 10 27  1  0
 10 28  1  0
 11 29  1  0
 11 30  1  0
 12 31  1  0
 13 32  1  0
 14 33  1  0
 14 34  1  0
 14 35  1  0
 15 36  1  0
 15 37  1  0
 15 38  1  0
 16 39  1  0
 16 40  1  0
 17 41  1  0
 17 42  1  0
M  CHG  1  15   1
M  END
>  <EmbedRMS>  (18) 
0.18263911859618057

$$$$

     RDKit          3D

 43 43  0  0  0  0  0  0  0  0999 V2000
    5.7455   11.3191    6.0203 C   0  0  0  0  0  0  0  0  0  0  0  0
    5.0047   10.7821    4.8077 C   0  0  0  0  0  0  0  0  0  0  0  0
    3.5728   10.3507    5.0822 C   0  0  0  0  0  0  0  0  0  0  0  0
    5.7224    9.8551    3.8187 C   0  0  0  0  0  0  0  0  0  0  0  0
    7.1673    9.7742    3.9858 N   0  0  0  0  0  0  0  0  0  0  0  0
    8.0197    9.4860    2.8700 C   0  0  0  0  0  0  0  0  0  0  0  0
    7.6120    9.6782    1.6893 O   0  0  0  0  0  0  0  0  0  0  0  0
    9.4200    8.9947    3.1117 C   0  0  0  0  0  0  0  0  0  0  0  0
    9.7988    7.9256    2.0876 C   0  0  0  0  0  0  0  0  0  0  0  0
   11.1582    7.3137    2.3954 C   0  0  0  0  0  0  0  0  0  0  0  0
   12.2771    8.3213    2.7736 C   0  0  0  0  0  0  0  0  0  0  0  0
   13.5816    8.3566    1.9535 C   0  0  0  0  0  0  0  0  0  0  0  0
   13.9838    7.0979    1.1851 C   0  0  0  0  0  0  0  0  0  0  0  0
   14.7128    8.8826    2.7299 N   0  0  0  0  0  4  0  0  0  0  0  0
   11.8363    9.7189    3.3063 C   0  0  0  0  0  0  0  0  0  0  0  0
   10.4036   10.1539    3.0090 C   0  0  0  0  0  0  0  0  0  0  0  0
    6.6922   11.8134    5.7137 H   0  0  0  0  0  0  0  0  0  0  0  0
    5.9786   10.4860    6.7163 H   0  0  0  0  0  0  0  0  0  0  0  0
    5.1250   12.0678    6.5586 H   0  0  0  0  0  0  0  0  0  0  0  0
    4.8657   11.7152    4.2129 H   0  0  0  0  0  0  0  0  0  0  0  0
    3.0203   11.1491    5.6229 H   0  0  0  0  0  0  0  0  0  0  0  0
    3.0383   10.1417    4.1302 H   0  0  0  0  0  0  0  0  0  0  0  0
    3.5694    9.4316    5.7057 H   0  0  0  0  0  0  0  0  0  0  0  0
    5.4637   10.1654    2.7814 H   0  0  0  0  0  0  0  0  0  0  0  0
    5.3247    8.8235    3.9382 H   0  0  0  0  0  0  0  0  0  0  0  0
    7.5474    9.6168    4.9461 H   0  0  0  0  0  0  0  0  0  0  0  0
    9.4774    8.5519    4.1318 H   0  0  0  0  0  0  0  0  0  0  0  0
    9.0337    7.1173    2.0860 H   0  0  0  0  0  0  0  0  0  0  0  0
    9.8270    8.3640    1.0645 H   0  0  0  0  0  0  0  0  0  0  0  0
   11.4397    6.6861    1.5299 H   0  0  0  0  0  0  0  0  0  0  0  0
   11.0047    6.5964    3.2353 H   0  0  0  0  0  0  0  0  0  0  0  0
   12.6593    7.8378    3.7038 H   0  0  0  0  0  0  0  0  0  0  0  0
   13.3817    9.1007    1.1484 H   0  0  0  0  0  0  0  0  0  0  0  0
   15.0002    7.2104    0.7513 H   0  0  0  0  0  0  0  0  0  0  0  0
   13.9864    6.2209    1.8663 H   0  0  0  0  0  0  0  0  0  0  0  0
   13.2924    6.9108    0.3370 H   0  0  0  0  0  0  0  0  0  0  0  0
   14.4954    9.7894    3.1965 H   0  0  0  0  0  0  0  0  0  0  0  0
   15.5306    9.0506    2.0995 H   0  0  0  0  0  0  0  0  0  0  0  0
   14.9953    8.1887    3.4600 H   0  0  0  0  0  0  0  0  0  0  0  0
   12.4825   10.5253    2.9014 H   0  0  0  0  0  0  0  0  0  0  0  0
   11.9695    9.7477    4.4122 H   0  0  0  0  0  0  0  0  0  0  0  0
   10.1142   10.9583    3.7217 H   0  0  0  0  0  0  0  0  0  0  0  0
   10.3629   10.5881    1.9841 H   0  0  0  0  0  0  0  0  0  0  0  0
  1  2  1  0
  2  3  1  0
  2  4  1  0
  4  5  1  0
  5  6  1  0
  6  7  2  0
  6  8  1  0
  8  9  1  0
  9 10  1  0
 10 11  1  0
 11 12  1  0
 12 13  1  0
 12 14  1  0
 11 15  1  0
 15 16  1  0
 16  8  1  0
  1 17  1  0
  1 18  1  0
  1 19  1  0
  2 20  1  0
  3 21  1  0
  3 22  1  0
  3 23  1  0
  4 24  1  0
  4 25  1  0
  5 26  1  0
  8 27  1  0
  9 28  1  0
  9 29  1  0
 10 30  1  0
 10 31  1  0
 11 32  1  0
 12 33  1  0
 13 34  1  0
 13 35  1  0
 13 36  1  0
 14 37  1  0
 14 38  1  0
 14 39  1  0
 15 40  1  0
 15 41  1  0
 16 42  1  0
 16 43  1  0
M  CHG  1  14   1
M  END
>  <EmbedRMS>  (19) 
0.28373172213554615

$$$$

     RDKit          3D

 41 41  0  0  0  0  0  0  0  0999 V2000
   14.0128    7.0451    1.2246 C   0  0  0  0  0  0  0  0  0  0  0  0
   13.6534    8.3401    1.9332 C   0  0  0  0  0  0  0  0  0  0  0  0
   14.6165    8.7744    2.9395 N   0  0  0  0  0  4  0  0  0  0  0  0
   12.1420    8.5872    2.2327 C   0  0  0  0  0  0  0  0  0  0  0  0
   11.2631    7.3648    2.5405 C   0  0  0  0  0  0  0  0  0  0  0  0
    9.7641    7.7145    2.4333 C   0  0  0  0  0  0  0  0  0  0  0  0
    9.4407    9.1935    2.6636 C   0  0  0  0  0  0  0  0  0  0  0  0
    7.9759    9.5184    2.7373 C   0  0  0  0  0  0  0  0  0  0  0  0
    7.4055    9.6789    1.6302 O   0  0  0  0  0  0  0  0  0  0  0  0
    7.2040    9.6832    3.9346 N   0  0  0  0  0  0  0  0  0  0  0  0
    5.8641   10.1055    3.8043 N   0  0  0  0  0  0  0  0  0  0  0  0
    5.0841   10.3002    4.8217 C   0  0  0  0  0  0  0  0  0  0  0  0
    3.7250   10.7402    4.6402 N   0  0  0  0  0  0  0  0  0  0  0  0
    3.1736   10.9931    3.3107 C   0  0  0  0  0  0  0  0  0  0  0  0
    2.9039   10.9373    5.7626 N   0  0  0  0  0  0  0  0  0  0  0  0
   10.4042   10.0821    3.4346 C   0  0  0  0  0  0  0  0  0  0  0  0
   11.8889    9.6848    3.2863 C   0  0  0  0  0  0  0  0  0  0  0  0
   13.3395    6.8740    0.3571 H   0  0  0  0  0  0  0  0  0  0  0  0
   13.9237    6.1938    1.9316 H   0  0  0  0  0  0  0  0  0  0  0  0
   15.0578    7.0796    0.8475 H   0  0  0  0  0  0  0  0  0  0  0  0
   13.8429    9.0655    1.1030 H   0  0  0  0  0  0  0  0  0  0  0  0
   14.5651    9.8056    3.1016 H   0  0  0  0  0  0  0  0  0  0  0  0
   15.5918    8.5556    2.6309 H   0  0  0  0  0  0  0  0  0  0  0  0
   14.4325    8.2671    3.8348 H   0  0  0  0  0  0  0  0  0  0  0  0
   11.7481    8.9809    1.2663 H   0  0  0  0  0  0  0  0  0  0  0  0
   11.4729    6.5322    1.8376 H   0  0  0  0  0  0  0  0  0  0  0  0
   11.4938    7.0013    3.5661 H   0  0  0  0  0  0  0  0  0  0  0  0
    9.2137    7.1097    3.1865 H   0  0  0  0  0  0  0  0  0  0  0  0
    9.3838    7.3994    1.4344 H   0  0  0  0  0  0  0  0  0  0  0  0
    9.6779    9.5856    1.6451 H   0  0  0  0  0  0  0  0  0  0  0  0
    7.6358    9.5215    4.8725 H   0  0  0  0  0  0  0  0  0  0  0  0
    5.4574   10.1340    5.8255 H   0  0  0  0  0  0  0  0  0  0  0  0
    3.7613   11.7883    2.8055 H   0  0  0  0  0  0  0  0  0  0  0  0
    3.2128   10.0634    2.7049 H   0  0  0  0  0  0  0  0  0  0  0  0
    2.1160   11.3250    3.3845 H   0  0  0  0  0  0  0  0  0  0  0  0
    2.8597   10.0339    6.2873 H   0  0  0  0  0  0  0  0  0  0  0  0
    3.3700   11.6423    6.3784 H   0  0  0  0  0  0  0  0  0  0  0  0
   10.1334   10.0287    4.5113 H   0  0  0  0  0  0  0  0  0  0  0  0
   10.2657   11.1447    3.1286 H   0  0  0  0  0  0  0  0  0  0  0  0
   12.2714    9.3416    4.2727 H   0  0  0  0  0  0  0  0  0  0  0  0
   12.4541   10.5996    3.0053 H   0  0  0  0  0  0  0  0  0  0  0  0
  1  2  1  0
  2  3  1  0
  2  4  1  0
  4  5  1  0
  5  6  1  0
  6  7  1  0
  7  8  1  0
  8  9  2  0
  8 10  1  0
 10 11  1  0
 11 12  2  3
 12 13  1  0
 13 14  1  0
 13 15  1  0
  7 16  1  0
 16 17  1  0
 17  4  1  0
  1 18  1  0
  1 19  1  0
  1 20  1  0
  2 21  1  0
  3 22  1  0
  3 23  1  0
  3 24  1  0
  4 25  1  0
  5 26  1  0
  5 27  1  0
  6 28  1  0
  6 29  1  0
  7 30  1  0
 10 31  1  0
 12 32  1  0
 14 33  1  0
 14 34  1  0
 14 35  1  0
 15 36  1  0
 15 37  1  0
 16 38  1  0
 16 39  1  0
 17 40  1  0
 17 41  1  0
M  CHG  1   3   1
M  END
>  <EmbedRMS>  (20) 
0.2570984896337683

$$$$

     RDKit          3D

 43 44  0  0  0  0  0  0  0  0999 V2000
   14.0274    7.2302    1.0859 C   0  0  0  0  0  0  0  0  0  0  0  0
   13.6457    7.9626    2.3850 C   0  0  0  0  0  0  0  0  0  0  0  0
   14.6272    9.0243    2.6470 N   0  0  0  0  0  4  0  0  0  0  0  0
   12.1817    8.5086    2.2960 C   0  0  0  0  0  0  0  0  0  0  0  0
   11.1975    7.3502    2.5409 C   0  0  0  0  0  0  0  0  0  0  0  0
    9.7343    7.7442    2.3736 C   0  0  0  0  0  0  0  0  0  0  0  0
    9.4497    9.2146    2.6406 C   0  0  0  0  0  0  0  0  0  0  0  0
    7.9868    9.5392    2.7241 C   0  0  0  0  0  0  0  0  0  0  0  0
    7.4150    9.6873    1.6162 O   0  0  0  0  0  0  0  0  0  0  0  0
    7.2162    9.6922    3.9294 N   0  0  0  0  0  0  0  0  0  0  0  0
    5.8121   10.1146    3.8092 C   0  0  0  0  0  0  0  0  0  0  0  0
    5.1578   10.2708    5.1436 C   0  0  0  0  0  0  0  0  0  0  0  0
    4.4185    9.3243    5.8158 C   0  0  0  0  0  0  0  0  0  0  0  0
    4.0524    9.8626    6.9972 N   0  0  0  0  0  0  0  0  0  0  0  0
    4.5514   11.0911    7.0431 N   0  0  0  0  0  0  0  0  0  0  0  0
    5.2253   11.3540    5.9360 N   0  0  0  0  0  0  0  0  0  0  0  0
    5.8950   12.6182    5.6578 C   0  0  0  0  0  0  0  0  0  0  0  0
   10.4184   10.0741    3.4301 C   0  0  0  0  0  0  0  0  0  0  0  0
   11.8963    9.6379    3.3187 C   0  0  0  0  0  0  0  0  0  0  0  0
   13.3801    6.3499    0.9045 H   0  0  0  0  0  0  0  0  0  0  0  0
   13.9571    7.9169    0.2154 H   0  0  0  0  0  0  0  0  0  0  0  0
   15.0707    6.8548    1.1518 H   0  0  0  0  0  0  0  0  0  0  0  0
   13.7141    7.2277    3.2200 H   0  0  0  0  0  0  0  0  0  0  0  0
   14.5262    9.7976    1.9495 H   0  0  0  0  0  0  0  0  0  0  0  0
   15.5989    8.6417    2.5845 H   0  0  0  0  0  0  0  0  0  0  0  0
   14.5149    9.3993    3.6160 H   0  0  0  0  0  0  0  0  0  0  0  0
   12.0111    8.9223    1.2764 H   0  0  0  0  0  0  0  0  0  0  0  0
   11.3432    6.9706    3.5775 H   0  0  0  0  0  0  0  0  0  0  0  0
   11.3976    6.5000    1.8581 H   0  0  0  0  0  0  0  0  0  0  0  0
    9.3956    7.4736    1.3464 H   0  0  0  0  0  0  0  0  0  0  0  0
    9.1279    7.1290    3.0746 H   0  0  0  0  0  0  0  0  0  0  0  0
    9.7088    9.6227    1.6315 H   0  0  0  0  0  0  0  0  0  0  0  0
    7.6621    9.5362    4.8615 H   0  0  0  0  0  0  0  0  0  0  0  0
    5.7594   11.0815    3.2643 H   0  0  0  0  0  0  0  0  0  0  0  0
    5.2499    9.3588    3.2186 H   0  0  0  0  0  0  0  0  0  0  0  0
    4.1712    8.3246    5.4846 H   0  0  0  0  0  0  0  0  0  0  0  0
    5.3709   13.1447    4.8329 H   0  0  0  0  0  0  0  0  0  0  0  0
    5.8853   13.2635    6.5616 H   0  0  0  0  0  0  0  0  0  0  0  0
    6.9495   12.4297    5.3650 H   0  0  0  0  0  0  0  0  0  0  0  0
   10.3159   11.1412    3.1252 H   0  0  0  0  0  0  0  0  0  0  0  0
   10.1211   10.0285    4.5003 H   0  0  0  0  0  0  0  0  0  0  0  0
   12.2358    9.3020    4.3241 H   0  0  0  0  0  0  0  0  0  0  0  0
   12.4950   10.5354    3.0520 H   0  0  0  0  0  0  0  0  0  0  0  0
  1  2  1  0
  2  3  1  0
  2  4  1  0
  4  5  1  0
  5  6  1  0
  6  7  1  0
  7  8  1  0
  8  9  2  0
  8 10  1  0
 10 11  1  0
 11 12  1  0
 12 13  2  0
 13 14  1  0
 14 15  2  0
 15 16  1  0
 16 17  1  0
  7 18  1  0
 18 19  1  0
 19  4  1  0
 16 12  1  0
  1 20  1  0
  1 21  1  0
  1 22  1  0
  2 23  1  0
  3 24  1  0
  3 25  1  0
  3 26  1  0
  4 27  1  0
  5 28  1  0
  5 29  1  0
  6 30  1  0
  6 31  1  0
  7 32  1  0
 10 33  1  0
 11 34  1  0
 11 35  1  0
 13 36  1  0
 17 37  1  0
 17 38  1  0
 17 39  1  0
 18 40  1  0
 18 41  1  0
 19 42  1  0
 19 43  1  0
M  CHG  1   3   1
M  END
>  <EmbedRMS>  (21) 
0.17105475656711175

$$$$

     RDKit          3D

 39 40  0  0  0  0  0  0  0  0999 V2000
   14.0110    7.0511    1.2526 C   0  0  0  0  0  0  0  0  0  0  0  0
   13.6007    8.3248    1.9901 C   0  0  0  0  0  0  0  0  0  0  0  0
   14.7033    8.8921    2.7690 N   0  0  0  0  0  4  0  0  0  0  0  0
   12.2625    8.3270    2.7691 C   0  0  0  0  0  0  0  0  0  0  0  0
   11.1802    7.4398    2.1370 C   0  0  0  0  0  0  0  0  0  0  0  0
    9.7464    7.7250    2.5506 C   0  0  0  0  0  0  0  0  0  0  0  0
    9.4528    9.2006    2.6508 C   0  0  0  0  0  0  0  0  0  0  0  0
    7.9907    9.5272    2.7197 C   0  0  0  0  0  0  0  0  0  0  0  0
    7.4511    9.6605    1.5982 O   0  0  0  0  0  0  0  0  0  0  0  0
    7.2032    9.6917    3.9188 N   0  0  0  0  0  0  0  0  0  0  0  0
    5.8190   10.1244    3.8864 C   0  0  0  0  0  0  0  0  0  0  0  0
    5.0492   10.4501    2.7707 C   0  0  0  0  0  0  0  0  0  0  0  0
    3.8118   10.8137    3.2504 C   0  0  0  0  0  0  0  0  0  0  0  0
    3.7917   10.7296    4.5924 N   0  0  0  0  0  0  0  0  0  0  0  0
    5.0092   10.3116    4.9903 C   0  0  0  0  0  0  0  0  0  0  0  0
   10.3879   10.0193    3.4937 C   0  0  0  0  0  0  0  0  0  0  0  0
   11.8511    9.7804    3.1265 C   0  0  0  0  0  0  0  0  0  0  0  0
   13.2659    6.7648    0.4822 H   0  0  0  0  0  0  0  0  0  0  0  0
   14.9817    7.1940    0.7316 H   0  0  0  0  0  0  0  0  0  0  0  0
   14.1182    6.2183    1.9789 H   0  0  0  0  0  0  0  0  0  0  0  0
   13.4353    9.0292    1.1418 H   0  0  0  0  0  0  0  0  0  0  0  0
   14.5218    9.8930    3.0061 H   0  0  0  0  0  0  0  0  0  0  0  0
   15.5925    8.8665    2.2188 H   0  0  0  0  0  0  0  0  0  0  0  0
   14.8389    8.3426    3.6484 H   0  0  0  0  0  0  0  0  0  0  0  0
   12.4711    7.8390    3.7480 H   0  0  0  0  0  0  0  0  0  0  0  0
   11.2117    7.5939    1.0361 H   0  0  0  0  0  0  0  0  0  0  0  0
   11.4077    6.3669    2.3236 H   0  0  0  0  0  0  0  0  0  0  0  0
    9.0547    7.2379    1.8268 H   0  0  0  0  0  0  0  0  0  0  0  0
    9.5649    7.2656    3.5467 H   0  0  0  0  0  0  0  0  0  0  0  0
    9.7356    9.5600    1.6294 H   0  0  0  0  0  0  0  0  0  0  0  0
    7.6552    9.5149    4.8435 H   0  0  0  0  0  0  0  0  0  0  0  0
    5.3065   10.4537    1.7245 H   0  0  0  0  0  0  0  0  0  0  0  0
    2.9693   11.1301    2.6494 H   0  0  0  0  0  0  0  0  0  0  0  0
    2.9817   10.9503    5.2127 H   0  0  0  0  0  0  0  0  0  0  0  0
    5.2923   10.1545    6.0229 H   0  0  0  0  0  0  0  0  0  0  0  0
   10.1492   11.1022    3.3982 H   0  0  0  0  0  0  0  0  0  0  0  0
   10.2369    9.7340    4.5575 H   0  0  0  0  0  0  0  0  0  0  0  0
   12.4748   10.1510    3.9689 H   0  0  0  0  0  0  0  0  0  0  0  0
   12.0642   10.4412    2.2573 H   0  0  0  0  0  0  0  0  0  0  0  0
  1  2  1  0
  2  3  1  0
  2  4  1  0
  4  5  1  0
  5  6  1  0
  6  7  1  0
  7  8  1  0
  8  9  2  0
  8 10  1  0
 10 11  1  0
 11 12  1  0
 12 13  2  0
 13 14  1  0
 14 15  1  0
  7 16  1  0
 16 17  1  0
 17  4  1  0
 15 11  2  0
  1 18  1  0
  1 19  1  0
  1 20  1  0
  2 21  1  0
  3 22  1  0
  3 23  1  0
  3 24  1  0
  4 25  1  0
  5 26  1  0
  5 27  1  0
  6 28  1  0
  6 29  1  0
  7 30  1  0
 10 31  1  0
 12 32  1  0
 13 33  1  0
 14 34  1  0
 15 35  1  0
 16 36  1  0
 16 37  1  0
 17 38  1  0
 17 39  1  0
M  CHG  1   3   1
M  END
>  <EmbedRMS>  (22) 
0.3005329260886256

$$$$

     RDKit          3D

 41 42  0  0  0  0  0  0  0  0999 V2000
   14.0155    7.0452    1.2243 C   0  0  0  0  0  0  0  0  0  0  0  0
   13.6577    8.3402    1.9340 C   0  0  0  0  0  0  0  0  0  0  0  0
   14.6213    8.7734    2.9399 N   0  0  0  0  0  4  0  0  0  0  0  0
   12.1479    8.5868    2.2358 C   0  0  0  0  0  0  0  0  0  0  0  0
   11.2708    7.3634    2.5450 C   0  0  0  0  0  0  0  0  0  0  0  0
    9.7738    7.7130    2.4384 C   0  0  0  0  0  0  0  0  0  0  0  0
    9.4545    9.1902    2.6817 C   0  0  0  0  0  0  0  0  0  0  0  0
    7.9930    9.5119    2.7236 C   0  0  0  0  0  0  0  0  0  0  0  0
    7.4746    9.6077    1.5899 O   0  0  0  0  0  0  0  0  0  0  0  0
    7.1920    9.7025    3.9130 N   0  0  0  0  0  0  0  0  0  0  0  0
    5.8002   10.1396    3.9098 C   0  0  0  0  0  0  0  0  0  0  0  0
    5.1136   10.2622    5.1332 C   0  0  0  0  0  0  0  0  0  0  0  0
    3.7791   10.6918    5.1678 C   0  0  0  0  0  0  0  0  0  0  0  0
    3.1050   10.9965    3.9846 C   0  0  0  0  0  0  0  0  0  0  0  0
    3.7620   10.8848    2.7663 C   0  0  0  0  0  0  0  0  0  0  0  0
    5.0915   10.4774    2.7238 C   0  0  0  0  0  0  0  0  0  0  0  0
   10.4123   10.0785    3.4530 C   0  0  0  0  0  0  0  0  0  0  0  0
   11.8967    9.6862    3.2904 C   0  0  0  0  0  0  0  0  0  0  0  0
   13.3412    6.8748    0.3575 H   0  0  0  0  0  0  0  0  0  0  0  0
   15.0600    7.0795    0.8460 H   0  0  0  0  0  0  0  0  0  0  0  0
   13.9272    6.1936    1.9310 H   0  0  0  0  0  0  0  0  0  0  0  0
   13.8472    9.0661    1.1041 H   0  0  0  0  0  0  0  0  0  0  0  0
   14.4394    8.2635    3.8342 H   0  0  0  0  0  0  0  0  0  0  0  0
   14.5690    9.8041    3.1044 H   0  0  0  0  0  0  0  0  0  0  0  0
   15.5964    8.5564    2.6293 H   0  0  0  0  0  0  0  0  0  0  0  0
   11.7549    8.9789    1.2687 H   0  0  0  0  0  0  0  0  0  0  0  0
   11.4801    6.5302    1.8427 H   0  0  0  0  0  0  0  0  0  0  0  0
   11.5022    7.0014    3.5710 H   0  0  0  0  0  0  0  0  0  0  0  0
    9.3960    7.4069    1.4357 H   0  0  0  0  0  0  0  0  0  0  0  0
    9.2216    7.1022    3.1855 H   0  0  0  0  0  0  0  0  0  0  0  0
    9.7131    9.5882    1.6698 H   0  0  0  0  0  0  0  0  0  0  0  0
    7.6559    9.5263    4.8324 H   0  0  0  0  0  0  0  0  0  0  0  0
    5.6153   10.0259    6.0630 H   0  0  0  0  0  0  0  0  0  0  0  0
    3.2672   10.7820    6.1172 H   0  0  0  0  0  0  0  0  0  0  0  0
    2.0739   11.3242    4.0170 H   0  0  0  0  0  0  0  0  0  0  0  0
    3.2415   11.1383    1.8510 H   0  0  0  0  0  0  0  0  0  0  0  0
    5.5040   10.4952    1.7386 H   0  0  0  0  0  0  0  0  0  0  0  0
   10.1475   10.0136    4.5305 H   0  0  0  0  0  0  0  0  0  0  0  0
   10.2671   11.1433    3.1573 H   0  0  0  0  0  0  0  0  0  0  0  0
   12.4562   10.6027    3.0029 H   0  0  0  0  0  0  0  0  0  0  0  0
   12.2889    9.3466    4.2742 H   0  0  0  0  0  0  0  0  0  0  0  0
  1  2  1  0
  2  3  1  0
  2  4  1  0
  4  5  1  0
  5  6  1  0
  6  7  1  0
  7  8  1  0
  8  9  2  0
  8 10  1  0
 10 11  1  0
 11 12  2  0
 12 13  1  0
 13 14  2  0
 14 15  1  0
 15 16  2  0
  7 17  1  0
 17 18  1  0
 18  4  1  0
 16 11  1  0
  1 19  1  0
  1 20  1  0
  1 21  1  0
  2 22  1  0
  3 23  1  0
  3 24  1  0
  3 25  1  0
  4 26  1  0
  5 27  1  0
  5 28  1  0
  6 29  1  0
  6 30  1  0
  7 31  1  0
 10 32  1  0
 12 33  1  0
 13 34  1  0
 14 35  1  0
 15 36  1  0
 16 37  1  0
 17 38  1  0
 17 39  1  0
 18 40  1  0
 18 41  1  0
M  CHG  1   3   1
M  END
>  <EmbedRMS>  (23) 
0.24964892458419108

$$$$

     RDKit          3D

 38 39  0  0  0  0  0  0  0  0999 V2000
   13.9842    7.0987    1.1853 C   0  0  0  0  0  0  0  0  0  0  0  0
   13.5812    8.3572    1.9537 C   0  0  0  0  0  0  0  0  0  0  0  0
   14.7119    8.8839    2.7302 N   0  0  0  0  0  4  0  0  0  0  0  0
   12.2765    8.3213    2.7737 C   0  0  0  0  0  0  0  0  0  0  0  0
   11.1597    7.3114    2.3967 C   0  0  0  0  0  0  0  0  0  0  0  0
    9.8012    7.9211    2.0835 C   0  0  0  0  0  0  0  0  0  0  0  0
    9.4166    8.9879    3.1066 C   0  0  0  0  0  0  0  0  0  0  0  0
    8.0125    9.4689    2.8599 C   0  0  0  0  0  0  0  0  0  0  0  0
    7.6232    9.6834    1.6795 O   0  0  0  0  0  0  0  0  0  0  0  0
    7.1436    9.7001    3.9777 N   0  0  0  0  0  0  0  0  0  0  0  0
    5.7812   10.1373    3.8965 C   0  0  0  0  0  0  0  0  0  0  0  0
    5.0590   10.4418    2.7529 C   0  0  0  0  0  0  0  0  0  0  0  0
    3.8212   10.8093    3.2325 C   0  0  0  0  0  0  0  0  0  0  0  0
    3.8279   10.7216    4.5742 N   0  0  0  0  0  0  0  0  0  0  0  0
    5.0150   10.3141    4.9886 N   0  0  0  0  0  0  0  0  0  0  0  0
   10.3981   10.1506    3.0073 C   0  0  0  0  0  0  0  0  0  0  0  0
   11.8327    9.7188    3.3047 C   0  0  0  0  0  0  0  0  0  0  0  0
   13.2929    6.9111    0.3372 H   0  0  0  0  0  0  0  0  0  0  0  0
   15.0005    7.2120    0.7515 H   0  0  0  0  0  0  0  0  0  0  0  0
   13.9876    6.2216    1.8665 H   0  0  0  0  0  0  0  0  0  0  0  0
   13.3808    9.1011    1.1485 H   0  0  0  0  0  0  0  0  0  0  0  0
   14.9955    8.1898    3.4595 H   0  0  0  0  0  0  0  0  0  0  0  0
   14.4928    9.7899    3.1975 H   0  0  0  0  0  0  0  0  0  0  0  0
   15.5292    9.0536    2.0996 H   0  0  0  0  0  0  0  0  0  0  0  0
   12.6593    7.8397    3.7046 H   0  0  0  0  0  0  0  0  0  0  0  0
   11.4436    6.6805    1.5344 H   0  0  0  0  0  0  0  0  0  0  0  0
   11.0047    6.5972    3.2389 H   0  0  0  0  0  0  0  0  0  0  0  0
    9.8330    8.3602    1.0608 H   0  0  0  0  0  0  0  0  0  0  0  0
    9.0379    7.1111    2.0779 H   0  0  0  0  0  0  0  0  0  0  0  0
    9.4755    8.5442    4.1262 H   0  0  0  0  0  0  0  0  0  0  0  0
    7.5254    9.5361    4.9365 H   0  0  0  0  0  0  0  0  0  0  0  0
    5.3557   10.4142    1.7158 H   0  0  0  0  0  0  0  0  0  0  0  0
    2.9703   11.1209    2.6412 H   0  0  0  0  0  0  0  0  0  0  0  0
    3.0273   10.9388    5.2077 H   0  0  0  0  0  0  0  0  0  0  0  0
   10.1052   10.9525    3.7212 H   0  0  0  0  0  0  0  0  0  0  0  0
   10.3568   10.5867    1.9833 H   0  0  0  0  0  0  0  0  0  0  0  0
   12.4776   10.5259    2.8988 H   0  0  0  0  0  0  0  0  0  0  0  0
   11.9660    9.7492    4.4105 H   0  0  0  0  0  0  0  0  0  0  0  0
  1  2  1  0
  2  3  1  0
  2  4  1  0
  4  5  1  0
  5  6  1  0
  6  7  1  0
  7  8  1  0
  8  9  2  0
  8 10  1  0
 10 11  1  0
 11 12  1  0
 12 13  2  0
 13 14  1  0
 14 15  1  0
  7 16  1  0
 16 17  1  0
 17  4  1  0
 15 11  2  0
  1 18  1  0
  1 19  1  0
  1 20  1  0
  2 21  1  0
  3 22  1  0
  3 23  1  0
  3 24  1  0
  4 25  1  0
  5 26  1  0
  5 27  1  0
  6 28  1  0
  6 29  1  0
  7 30  1  0
 10 31  1  0
 12 32  1  0
 13 33  1  0
 14 34  1  0
 16 35  1  0
 16 36  1  0
 17 37  1  0
 17 38  1  0
M  CHG  1   3   1
M  END
>  <EmbedRMS>  (24) 
0.20783527019262546

$$$$

     RDKit          3D

 44 44  0  0  0  0  0  0  0  0999 V2000
   14.0500    7.2190    1.1049 C   0  0  0  0  0  0  0  0  0  0  0  0
   13.6509    7.9552    2.3991 C   0  0  0  0  0  0  0  0  0  0  0  0
   14.6301    9.0153    2.6713 N   0  0  0  0  0  4  0  0  0  0  0  0
   12.2019    8.5115    2.2735 C   0  0  0  0  0  0  0  0  0  0  0  0
   11.1822    7.3651    2.4345 C   0  0  0  0  0  0  0  0  0  0  0  0
    9.7744    7.8711    2.1542 C   0  0  0  0  0  0  0  0  0  0  0  0
    9.4129    8.9933    3.1314 C   0  0  0  0  0  0  0  0  0  0  0  0
    8.0186    9.4803    2.8695 C   0  0  0  0  0  0  0  0  0  0  0  0
    7.6230    9.6895    1.6878 O   0  0  0  0  0  0  0  0  0  0  0  0
    7.1468    9.7080    3.9776 N   0  0  0  0  0  0  0  0  0  0  0  0
    5.7975   10.1345    3.7995 C   0  0  0  0  0  0  0  0  0  0  0  0
    5.0128   10.3246    4.8611 C   0  0  0  0  0  0  0  0  0  0  0  0
    3.6422   10.7497    4.7536 N   0  0  0  0  0  0  0  0  0  0  0  0
    2.8763   10.8662    5.9245 N   0  0  0  0  0  0  0  0  0  0  0  0
    2.9959   11.0374    3.4712 C   0  0  0  0  0  0  0  0  0  0  0  0
    3.5677   12.2441    2.8839 N   0  0  0  0  0  0  0  0  0  0  0  0
   10.4263   10.1482    3.0654 C   0  0  0  0  0  0  0  0  0  0  0  0
   11.8605    9.6371    3.2814 C   0  0  0  0  0  0  0  0  0  0  0  0
   13.4194    6.3260    0.9274 H   0  0  0  0  0  0  0  0  0  0  0  0
   15.0975    6.8577    1.1807 H   0  0  0  0  0  0  0  0  0  0  0  0
   13.9792    7.8969    0.2275 H   0  0  0  0  0  0  0  0  0  0  0  0
   13.6925    7.2245    3.2392 H   0  0  0  0  0  0  0  0  0  0  0  0
   14.4978    9.3927    3.6371 H   0  0  0  0  0  0  0  0  0  0  0  0
   14.5445    9.7861    1.9688 H   0  0  0  0  0  0  0  0  0  0  0  0
   15.6016    8.6295    2.6302 H   0  0  0  0  0  0  0  0  0  0  0  0
   12.0901    8.9471    1.2536 H   0  0  0  0  0  0  0  0  0  0  0  0
   11.2354    6.9388    3.4613 H   0  0  0  0  0  0  0  0  0  0  0  0
   11.3844    6.5442    1.7183 H   0  0  0  0  0  0  0  0  0  0  0  0
    9.0586    7.0278    2.2732 H   0  0  0  0  0  0  0  0  0  0  0  0
    9.7134    8.2299    1.1021 H   0  0  0  0  0  0  0  0  0  0  0  0
    9.4489    8.5658    4.1591 H   0  0  0  0  0  0  0  0  0  0  0  0
    7.5125    9.5585    4.9459 H   0  0  0  0  0  0  0  0  0  0  0  0
    5.4263   10.2982    2.7977 H   0  0  0  0  0  0  0  0  0  0  0  0
    5.4182   10.1463    5.8504 H   0  0  0  0  0  0  0  0  0  0  0  0
    3.3516   11.5568    6.5496 H   0  0  0  0  0  0  0  0  0  0  0  0
    2.8837    9.9379    6.4060 H   0  0  0  0  0  0  0  0  0  0  0  0
    1.9022   11.1832    3.6216 H   0  0  0  0  0  0  0  0  0  0  0  0
    3.1194   10.1759    2.7799 H   0  0  0  0  0  0  0  0  0  0  0  0
    3.0934   12.4076    1.9665 H   0  0  0  0  0  0  0  0  0  0  0  0
    3.3191   13.0523    3.4996 H   0  0  0  0  0  0  0  0  0  0  0  0
   10.1872   10.8995    3.8496 H   0  0  0  0  0  0  0  0  0  0  0  0
   10.3616   10.6525    2.0753 H   0  0  0  0  0  0  0  0  0  0  0  0
   11.9750    9.2647    4.3234 H   0  0  0  0  0  0  0  0  0  0  0  0
   12.5399   10.5041    3.1423 H   0  0  0  0  0  0  0  0  0  0  0  0
  1  2  1  0
  2  3  1  0
  2  4  1  0
  4  5  1  0
  5  6  1  0
  6  7  1  0
  7  8  1  0
  8  9  2  0
  8 10  1  0
 10 11  1  0
 11 12  2  3
 12 13  1  0
 13 14  1  0
 13 15  1  0
 15 16  1  0
  7 17  1  0
 17 18  1  0
 18  4  1  0
  1 19  1  0
  1 20  1  0
  1 21  1  0
  2 22  1  0
  3 23  1  0
  3 24  1  0
  3 25  1  0
  4 26  1  0
  5 27  1  0
  5 28  1  0
  6 29  1  0
  6 30  1  0
  7 31  1  0
 10 32  1  0
 11 33  1  0
 12 34  1  0
 14 35  1  0
 14 36  1  0
 15 37  1  0
 15 38  1  0
 16 39  1  0
 16 40  1  0
 17 41  1  0
 17 42  1  0
 18 43  1  0
 18 44  1  0
M  CHG  1   3   1
M  END
>  <EmbedRMS>  (25) 
0.03036159576021903

$$$$

     RDKit          3D

 44 45  0  0  0  0  0  0  0  0999 V2000
   14.0107    7.0507    1.2528 C   0  0  0  0  0  0  0  0  0  0  0  0
   13.6001    8.3244    1.9899 C   0  0  0  0  0  0  0  0  0  0  0  0
   14.7023    8.8917    2.7695 N   0  0  0  0  0  4  0  0  0  0  0  0
   12.2609    8.3273    2.7676 C   0  0  0  0  0  0  0  0  0  0  0  0
   11.1786    7.4404    2.1351 C   0  0  0  0  0  0  0  0  0  0  0  0
    9.7437    7.7263    2.5465 C   0  0  0  0  0  0  0  0  0  0  0  0
    9.4484    9.2018    2.6425 C   0  0  0  0  0  0  0  0  0  0  0  0
    7.9862    9.5278    2.7260 C   0  0  0  0  0  0  0  0  0  0  0  0
    7.4191    9.6844    1.6169 O   0  0  0  0  0  0  0  0  0  0  0  0
    7.2141    9.6851    3.9298 N   0  0  0  0  0  0  0  0  0  0  0  0
    5.8145   10.1221    3.8055 C   0  0  0  0  0  0  0  0  0  0  0  0
    5.1470   10.2613    5.1399 C   0  0  0  0  0  0  0  0  0  0  0  0
    4.4698    9.1706    5.7071 C   0  0  0  0  0  0  0  0  0  0  0  0
    3.8614    9.2968    6.9587 C   0  0  0  0  0  0  0  0  0  0  0  0
    3.9277   10.5097    7.6502 C   0  0  0  0  0  0  0  0  0  0  0  0
    4.5995   11.5997    7.0894 C   0  0  0  0  0  0  0  0  0  0  0  0
    5.2092   11.4776    5.8378 C   0  0  0  0  0  0  0  0  0  0  0  0
   10.3852   10.0199    3.4864 C   0  0  0  0  0  0  0  0  0  0  0  0
   11.8489    9.7808    3.1224 C   0  0  0  0  0  0  0  0  0  0  0  0
   13.2661    6.7643    0.4821 H   0  0  0  0  0  0  0  0  0  0  0  0
   14.1173    6.2180    1.9794 H   0  0  0  0  0  0  0  0  0  0  0  0
   14.9818    7.1933    0.7325 H   0  0  0  0  0  0  0  0  0  0  0  0
   13.4358    9.0287    1.1412 H   0  0  0  0  0  0  0  0  0  0  0  0
   14.8375    8.3420    3.6488 H   0  0  0  0  0  0  0  0  0  0  0  0
   15.5918    8.8665    2.2197 H   0  0  0  0  0  0  0  0  0  0  0  0
   14.5204    9.8925    3.0070 H   0  0  0  0  0  0  0  0  0  0  0  0
   12.4682    7.8402    3.7472 H   0  0  0  0  0  0  0  0  0  0  0  0
   11.2114    7.5937    1.0342 H   0  0  0  0  0  0  0  0  0  0  0  0
   11.4054    6.3675    2.3226 H   0  0  0  0  0  0  0  0  0  0  0  0
    9.5615    7.2690    3.5435 H   0  0  0  0  0  0  0  0  0  0  0  0
    9.0528    7.2375    1.8233 H   0  0  0  0  0  0  0  0  0  0  0  0
    9.7212    9.5611    1.6190 H   0  0  0  0  0  0  0  0  0  0  0  0
    7.6562    9.5238    4.8629 H   0  0  0  0  0  0  0  0  0  0  0  0
    5.7793   11.0969    3.2708 H   0  0  0  0  0  0  0  0  0  0  0  0
    5.2537    9.3880    3.1857 H   0  0  0  0  0  0  0  0  0  0  0  0
    4.4183    8.2233    5.1846 H   0  0  0  0  0  0  0  0  0  0  0  0
    3.3412    8.4537    7.3946 H   0  0  0  0  0  0  0  0  0  0  0  0
    3.4574   10.6053    8.6204 H   0  0  0  0  0  0  0  0  0  0  0  0
    4.6501   12.5380    7.6265 H   0  0  0  0  0  0  0  0  0  0  0  0
    5.7334   12.3267    5.4168 H   0  0  0  0  0  0  0  0  0  0  0  0
   10.1475   11.1030    3.3905 H   0  0  0  0  0  0  0  0  0  0  0  0
   10.2328    9.7355    4.5504 H   0  0  0  0  0  0  0  0  0  0  0  0
   12.4712   10.1524    3.9655 H   0  0  0  0  0  0  0  0  0  0  0  0
   12.0633   10.4405    2.2527 H   0  0  0  0  0  0  0  0  0  0  0  0
  1  2  1  0
  2  3  1  0
  2  4  1  0
  4  5  1  0
  5  6  1  0
  6  7  1  0
  7  8  1  0
  8  9  2  0
  8 10  1  0
 10 11  1  0
 11 12  1  0
 12 13  2  0
 13 14  1  0
 14 15  2  0
 15 16  1  0
 16 17  2  0
  7 18  1  0
 18 19  1  0
 19  4  1  0
 17 12  1  0
  1 20  1  0
  1 21  1  0
  1 22  1  0
  2 23  1  0
  3 24  1  0
  3 25  1  0
  3 26  1  0
  4 27  1  0
  5 28  1  0
  5 29  1  0
  6 30  1  0
  6 31  1  0
  7 32  1  0
 10 33  1  0
 11 34  1  0
 11 35  1  0
 13 36  1  0
 14 37  1  0
 15 38  1  0
 16 39  1  0
 17 40  1  0
 18 41  1  0
 18 42  1  0
 19 43  1  0
 19 44  1  0
M  CHG  1   3   1
M  END
>  <EmbedRMS>  (26) 
0.2846631031672363

$$$$

     RDKit          3D

 42 43  0  0  0  0  0  0  0  0999 V2000
   14.0493    7.2191    1.1051 C   0  0  0  0  0  0  0  0  0  0  0  0
   13.6501    7.9553    2.3992 C   0  0  0  0  0  0  0  0  0  0  0  0
   14.6294    9.0154    2.6715 N   0  0  0  0  0  4  0  0  0  0  0  0
   12.2009    8.5118    2.2736 C   0  0  0  0  0  0  0  0  0  0  0  0
   11.1809    7.3656    2.4346 C   0  0  0  0  0  0  0  0  0  0  0  0
    9.7729    7.8717    2.1538 C   0  0  0  0  0  0  0  0  0  0  0  0
    9.4103    8.9943    3.1306 C   0  0  0  0  0  0  0  0  0  0  0  0
    8.0149    9.4815    2.8682 C   0  0  0  0  0  0  0  0  0  0  0  0
    7.6173    9.6904    1.6874 O   0  0  0  0  0  0  0  0  0  0  0  0
    7.1417    9.7099    3.9743 N   0  0  0  0  0  0  0  0  0  0  0  0
    5.7644   10.1427    3.7843 C   0  0  0  0  0  0  0  0  0  0  0  0
    5.0938   10.2820    5.1090 C   0  0  0  0  0  0  0  0  0  0  0  0
    4.4467    9.2806    5.8035 C   0  0  0  0  0  0  0  0  0  0  0  0
    4.0721    9.8422    7.0072 C   0  0  0  0  0  0  0  0  0  0  0  0
    4.4826   11.1235    7.0714 N   0  0  0  0  0  0  0  0  0  0  0  0
    5.1197   11.3965    5.9199 C   0  0  0  0  0  0  0  0  0  0  0  0
   10.4247   10.1487    3.0652 C   0  0  0  0  0  0  0  0  0  0  0  0
   11.8591    9.6373    3.2815 C   0  0  0  0  0  0  0  0  0  0  0  0
   15.0967    6.8575    1.1812 H   0  0  0  0  0  0  0  0  0  0  0  0
   13.4185    6.3264    0.9274 H   0  0  0  0  0  0  0  0  0  0  0  0
   13.9790    7.8971    0.2277 H   0  0  0  0  0  0  0  0  0  0  0  0
   13.6915    7.2247    3.2393 H   0  0  0  0  0  0  0  0  0  0  0  0
   14.4968    9.3929    3.6372 H   0  0  0  0  0  0  0  0  0  0  0  0
   15.6009    8.6295    2.6307 H   0  0  0  0  0  0  0  0  0  0  0  0
   14.5439    9.7861    1.9690 H   0  0  0  0  0  0  0  0  0  0  0  0
   12.0893    8.9474    1.2537 H   0  0  0  0  0  0  0  0  0  0  0  0
   11.3832    6.5446    1.7185 H   0  0  0  0  0  0  0  0  0  0  0  0
   11.2338    6.9395    3.4614 H   0  0  0  0  0  0  0  0  0  0  0  0
    9.0571    7.0285    2.2727 H   0  0  0  0  0  0  0  0  0  0  0  0
    9.7120    8.2305    1.1018 H   0  0  0  0  0  0  0  0  0  0  0  0
    9.4456    8.5669    4.1583 H   0  0  0  0  0  0  0  0  0  0  0  0
    7.5108    9.5642    4.9425 H   0  0  0  0  0  0  0  0  0  0  0  0
    5.7493   11.1193    3.2541 H   0  0  0  0  0  0  0  0  0  0  0  0
    5.2195    9.3950    3.1684 H   0  0  0  0  0  0  0  0  0  0  0  0
    4.2767    8.2625    5.4788 H   0  0  0  0  0  0  0  0  0  0  0  0
    3.5405    9.3350    7.8015 H   0  0  0  0  0  0  0  0  0  0  0  0
    4.3464   11.7776    7.8735 H   0  0  0  0  0  0  0  0  0  0  0  0
    5.5830   12.3469    5.6885 H   0  0  0  0  0  0  0  0  0  0  0  0
   10.3604   10.6532    2.0753 H   0  0  0  0  0  0  0  0  0  0  0  0
   10.1855   10.8998    3.8495 H   0  0  0  0  0  0  0  0  0  0  0  0
   11.9734    9.2648    4.3234 H   0  0  0  0  0  0  0  0  0  0  0  0
   12.5387   10.5043    3.1427 H   0  0  0  0  0  0  0  0  0  0  0  0
  1  2  1  0
  2  3  1  0
  2  4  1  0
  4  5  1  0
  5  6  1  0
  6  7  1  0
  7  8  1  0
  8  9  2  0
  8 10  1  0
 10 11  1  0
 11 12  1  0
 12 13  1  0
 13 14  2  0
 14 15  1  0
 15 16  1  0
  7 17  1  0
 17 18  1  0
 18  4  1  0
 16 12  2  0
  1 19  1  0
  1 20  1  0
  1 21  1  0
  2 22  1  0
  3 23  1  0
  3 24  1  0
  3 25  1  0
  4 26  1  0
  5 27  1  0
  5 28  1  0
  6 29  1  0
  6 30  1  0
  7 31  1  0
 10 32  1  0
 11 33  1  0
 11 34  1  0
 13 35  1  0
 14 36  1  0
 15 37  1  0
 16 38  1  0
 17 39  1  0
 17 40  1  0
 18 41  1  0
 18 42  1  0
M  CHG  1   3   1
M  END
>  <EmbedRMS>  (27) 
0.029013692847384143

$$$$

     RDKit          3D

 39 40  0  0  0  0  0  0  0  0999 V2000
   14.0494    7.2192    1.1050 C   0  0  0  0  0  0  0  0  0  0  0  0
   13.6505    7.9554    2.3992 C   0  0  0  0  0  0  0  0  0  0  0  0
   14.6296    9.0156    2.6713 N   0  0  0  0  0  4  0  0  0  0  0  0
   12.2012    8.5116    2.2739 C   0  0  0  0  0  0  0  0  0  0  0  0
   11.1818    7.3650    2.4357 C   0  0  0  0  0  0  0  0  0  0  0  0
    9.7737    7.8706    2.1562 C   0  0  0  0  0  0  0  0  0  0  0  0
    9.4113    8.9931    3.1338 C   0  0  0  0  0  0  0  0  0  0  0  0
    8.0164    9.4805    2.8700 C   0  0  0  0  0  0  0  0  0  0  0  0
    7.6346    9.6877    1.6856 O   0  0  0  0  0  0  0  0  0  0  0  0
    7.1418    9.7077    3.9825 N   0  0  0  0  0  0  0  0  0  0  0  0
    5.7792   10.1394    3.8998 C   0  0  0  0  0  0  0  0  0  0  0  0
    5.0647   10.4417    2.7517 C   0  0  0  0  0  0  0  0  0  0  0  0
    3.8097   10.8171    3.1813 C   0  0  0  0  0  0  0  0  0  0  0  0
    3.8131   10.7275    4.5588 C   0  0  0  0  0  0  0  0  0  0  0  0
    5.0153   10.3140    4.9921 N   0  0  0  0  0  0  0  0  0  0  0  0
   10.4251   10.1479    3.0666 C   0  0  0  0  0  0  0  0  0  0  0  0
   11.8597    9.6372    3.2818 C   0  0  0  0  0  0  0  0  0  0  0  0
   13.4188    6.3264    0.9275 H   0  0  0  0  0  0  0  0  0  0  0  0
   15.0969    6.8578    1.1808 H   0  0  0  0  0  0  0  0  0  0  0  0
   13.9787    7.8972    0.2276 H   0  0  0  0  0  0  0  0  0  0  0  0
   13.6922    7.2247    3.2393 H   0  0  0  0  0  0  0  0  0  0  0  0
   14.4972    9.3930    3.6371 H   0  0  0  0  0  0  0  0  0  0  0  0
   15.6011    8.6298    2.6302 H   0  0  0  0  0  0  0  0  0  0  0  0
   14.5439    9.7863    1.9688 H   0  0  0  0  0  0  0  0  0  0  0  0
   12.0890    8.9469    1.2540 H   0  0  0  0  0  0  0  0  0  0  0  0
   11.2356    6.9389    3.4625 H   0  0  0  0  0  0  0  0  0  0  0  0
   11.3838    6.5440    1.7195 H   0  0  0  0  0  0  0  0  0  0  0  0
    9.0583    7.0271    2.2753 H   0  0  0  0  0  0  0  0  0  0  0  0
    9.7126    8.2290    1.1040 H   0  0  0  0  0  0  0  0  0  0  0  0
    9.4479    8.5654    4.1613 H   0  0  0  0  0  0  0  0  0  0  0  0
    7.5215    9.5475    4.9428 H   0  0  0  0  0  0  0  0  0  0  0  0
    5.3814   10.4091    1.7210 H   0  0  0  0  0  0  0  0  0  0  0  0
    2.9806   11.1242    2.5580 H   0  0  0  0  0  0  0  0  0  0  0  0
    2.9783   10.9546    5.2088 H   0  0  0  0  0  0  0  0  0  0  0  0
    5.2972   10.1622    5.9861 H   0  0  0  0  0  0  0  0  0  0  0  0
   10.1864   10.8995    3.8506 H   0  0  0  0  0  0  0  0  0  0  0  0
   10.3598   10.6519    2.0764 H   0  0  0  0  0  0  0  0  0  0  0  0
   12.5389   10.5044    3.1423 H   0  0  0  0  0  0  0  0  0  0  0  0
   11.9749    9.2649    4.3238 H   0  0  0  0  0  0  0  0  0  0  0  0
  1  2  1  0
  2  3  1  0
  2  4  1  0
  4  5  1  0
  5  6  1  0
  6  7  1  0
  7  8  1  0
  8  9  2  0
  8 10  1  0
 10 11  1  0
 11 12  2  0
 12 13  1  0
 13 14  2  0
 14 15  1  0
  7 16  1  0
 16 17  1  0
 17  4  1  0
 15 11  1  0
  1 18  1  0
  1 19  1  0
  1 20  1  0
  2 21  1  0
  3 22  1  0
  3 23  1  0
  3 24  1  0
  4 25  1  0
  5 26  1  0
  5 27  1  0
  6 28  1  0
  6 29  1  0
  7 30  1  0
 10 31  1  0
 12 32  1  0
 13 33  1  0
 14 34  1  0
 15 35  1  0
 16 36  1  0
 16 37  1  0
 17 38  1  0
 17 39  1  0
M  CHG  1   3   1
M  END
>  <EmbedRMS>  (28) 
0.03061905892919758

$$$$

     RDKit          3D

 39 40  0  0  0  0  0  0  0  0999 V2000
   14.0110    7.0511    1.2526 C   0  0  0  0  0  0  0  0  0  0  0  0
   13.6007    8.3248    1.9901 C   0  0  0  0  0  0  0  0  0  0  0  0
   14.7033    8.8921    2.7690 N   0  0  0  0  0  4  0  0  0  0  0  0
   12.2625    8.3270    2.7691 C   0  0  0  0  0  0  0  0  0  0  0  0
   11.1802    7.4398    2.1370 C   0  0  0  0  0  0  0  0  0  0  0  0
    9.7464    7.7250    2.5506 C   0  0  0  0  0  0  0  0  0  0  0  0
    9.4528    9.2006    2.6508 C   0  0  0  0  0  0  0  0  0  0  0  0
    7.9907    9.5272    2.7197 C   0  0  0  0  0  0  0  0  0  0  0  0
    7.4511    9.6605    1.5982 O   0  0  0  0  0  0  0  0  0  0  0  0
    7.2032    9.6917    3.9188 N   0  0  0  0  0  0  0  0  0  0  0  0
    5.8190   10.1244    3.8864 C   0  0  0  0  0  0  0  0  0  0  0  0
    5.0492   10.4501    2.7707 C   0  0  0  0  0  0  0  0  0  0  0  0
    3.8118   10.8137    3.2504 C   0  0  0  0  0  0  0  0  0  0  0  0
    3.7917   10.7296    4.5924 N   0  0  0  0  0  0  0  0  0  0  0  0
    5.0092   10.3116    4.9903 C   0  0  0  0  0  0  0  0  0  0  0  0
   10.3879   10.0193    3.4937 C   0  0  0  0  0  0  0  0  0  0  0  0
   11.8511    9.7804    3.1265 C   0  0  0  0  0  0  0  0  0  0  0  0
   13.2659    6.7648    0.4822 H   0  0  0  0  0  0  0  0  0  0  0  0
   14.9817    7.1940    0.7316 H   0  0  0  0  0  0  0  0  0  0  0  0
   14.1182    6.2183    1.9789 H   0  0  0  0  0  0  0  0  0  0  0  0
   13.4353    9.0292    1.1418 H   0  0  0  0  0  0  0  0  0  0  0  0
   14.5218    9.8930    3.0061 H   0  0  0  0  0  0  0  0  0  0  0  0
   15.5925    8.8665    2.2188 H   0  0  0  0  0  0  0  0  0  0  0  0
   14.8389    8.3426    3.6484 H   0  0  0  0  0  0  0  0  0  0  0  0
   12.4711    7.8390    3.7480 H   0  0  0  0  0  0  0  0  0  0  0  0
   11.2117    7.5939    1.0361 H   0  0  0  0  0  0  0  0  0  0  0  0
   11.4077    6.3669    2.3236 H   0  0  0  0  0  0  0  0  0  0  0  0
    9.0547    7.2379    1.8268 H   0  0  0  0  0  0  0  0  0  0  0  0
    9.5649    7.2656    3.5467 H   0  0  0  0  0  0  0  0  0  0  0  0
    9.7356    9.5600    1.6294 H   0  0  0  0  0  0  0  0  0  0  0  0
    7.6552    9.5149    4.8435 H   0  0  0  0  0  0  0  0  0  0  0  0
    5.3065   10.4537    1.7245 H   0  0  0  0  0  0  0  0  0  0  0  0
    2.9693   11.1301    2.6494 H   0  0  0  0  0  0  0  0  0  0  0  0
    2.9817   10.9503    5.2127 H   0  0  0  0  0  0  0  0  0  0  0  0
    5.2923   10.1545    6.0229 H   0  0  0  0  0  0  0  0  0  0  0  0
   10.1492   11.1022    3.3982 H   0  0  0  0  0  0  0  0  0  0  0  0
   10.2369    9.7340    4.5575 H   0  0  0  0  0  0  0  0  0  0  0  0
   12.4748   10.1510    3.9689 H   0  0  0  0  0  0  0  0  0  0  0  0
   12.0642   10.4412    2.2573 H   0  0  0  0  0  0  0  0  0  0  0  0
  1  2  1  0
  2  3  1  0
  2  4  1  0
  4  5  1  0
  5  6  1  0
  6  7  1  0
  7  8  1  0
  8  9  2  0
  8 10  1  0
 10 11  1  0
 11 12  1  0
 12 13  2  0
 13 14  1  0
 14 15  1  0
  7 16  1  0
 16 17  1  0
 17  4  1  0
 15 11  2  0
  1 18  1  0
  1 19  1  0
  1 20  1  0
  2 21  1  0
  3 22  1  0
  3 23  1  0
  3 24  1  0
  4 25  1  0
  5 26  1  0
  5 27  1  0
  6 28  1  0
  6 29  1  0
  7 30  1  0
 10 31  1  0
 12 32  1  0
 13 33  1  0
 14 34  1  0
 15 35  1  0
 16 36  1  0
 16 37  1  0
 17 38  1  0
 17 39  1  0
M  CHG  1   3   1
M  END
>  <EmbedRMS>  (29) 
0.3005329260886256

$$$$

     RDKit          3D

 44 44  0  0  0  0  0  0  0  0999 V2000
   13.9334    7.3330    1.0253 C   0  0  0  0  0  0  0  0  0  0  0  0
   13.7118    7.9150    2.4296 C   0  0  0  0  0  0  0  0  0  0  0  0
   14.6496    9.0169    2.6727 N   0  0  0  0  0  4  0  0  0  0  0  0
   12.2351    8.2984    2.7966 C   0  0  0  0  0  0  0  0  0  0  0  0
   11.1502    7.3131    2.3232 C   0  0  0  0  0  0  0  0  0  0  0  0
    9.7894    7.9333    2.0729 C   0  0  0  0  0  0  0  0  0  0  0  0
    9.4245    8.9812    3.1177 C   0  0  0  0  0  0  0  0  0  0  0  0
    8.0182    9.4615    2.8688 C   0  0  0  0  0  0  0  0  0  0  0  0
    7.6244    9.6616    1.6854 O   0  0  0  0  0  0  0  0  0  0  0  0
    7.1502    9.7110    3.9824 N   0  0  0  0  0  0  0  0  0  0  0  0
    5.7481   10.1454    3.8690 C   0  0  0  0  0  0  0  0  0  0  0  0
    5.1834   10.2953    5.2967 C   0  0  0  0  0  0  0  0  0  0  0  0
    4.9325    9.0683    3.1206 C   0  0  0  0  0  0  0  0  0  0  0  0
    5.6947   11.4496    3.1718 N   0  0  0  0  0  0  0  0  0  0  0  0
    4.3581   11.8819    3.0608 N   0  0  0  0  0  0  0  0  0  0  0  0
   10.3948   10.1665    3.0637 C   0  0  0  0  0  0  0  0  0  0  0  0
   11.8869    9.7887    2.9933 C   0  0  0  0  0  0  0  0  0  0  0  0
   13.5400    6.2972    0.9562 H   0  0  0  0  0  0  0  0  0  0  0  0
   15.0176    7.2778    0.7896 H   0  0  0  0  0  0  0  0  0  0  0  0
   13.4402    7.9745    0.2645 H   0  0  0  0  0  0  0  0  0  0  0  0
   14.0096    7.0850    3.1151 H   0  0  0  0  0  0  0  0  0  0  0  0
   14.5092    9.7871    1.9801 H   0  0  0  0  0  0  0  0  0  0  0  0
   15.6330    8.6710    2.5826 H   0  0  0  0  0  0  0  0  0  0  0  0
   14.5425    9.3805    3.6468 H   0  0  0  0  0  0  0  0  0  0  0  0
   12.2401    8.0308    3.8817 H   0  0  0  0  0  0  0  0  0  0  0  0
   11.0336    6.4819    3.0575 H   0  0  0  0  0  0  0  0  0  0  0  0
   11.4347    6.8267    1.3717 H   0  0  0  0  0  0  0  0  0  0  0  0
    9.7975    8.4021    1.0623 H   0  0  0  0  0  0  0  0  0  0  0  0
    9.0244    7.1246    2.0620 H   0  0  0  0  0  0  0  0  0  0  0  0
    9.4838    8.5091    4.1239 H   0  0  0  0  0  0  0  0  0  0  0  0
    7.5612    9.5776    4.9352 H   0  0  0  0  0  0  0  0  0  0  0  0
    5.3145    9.3503    5.8673 H   0  0  0  0  0  0  0  0  0  0  0  0
    5.7156   11.1086    5.8354 H   0  0  0  0  0  0  0  0  0  0  0  0
    4.0982   10.5315    5.2847 H   0  0  0  0  0  0  0  0  0  0  0  0
    3.8445    9.2884    3.1657 H   0  0  0  0  0  0  0  0  0  0  0  0
    5.2205    9.0151    2.0510 H   0  0  0  0  0  0  0  0  0  0  0  0
    5.1026    8.0708    3.5800 H   0  0  0  0  0  0  0  0  0  0  0  0
    6.0696   11.3471    2.2020 H   0  0  0  0  0  0  0  0  0  0  0  0
    4.2777   12.4977    2.2177 H   0  0  0  0  0  0  0  0  0  0  0  0
    4.1726   12.5093    3.8759 H   0  0  0  0  0  0  0  0  0  0  0  0
   10.1524   10.7913    2.1734 H   0  0  0  0  0  0  0  0  0  0  0  0
   10.2210   10.8099    3.9546 H   0  0  0  0  0  0  0  0  0  0  0  0
   12.3129   10.3445    2.1310 H   0  0  0  0  0  0  0  0  0  0  0  0
   12.3952   10.1949    3.8977 H   0  0  0  0  0  0  0  0  0  0  0  0
  1  2  1  0
  2  3  1  0
  2  4  1  0
  4  5  1  0
  5  6  1  0
  6  7  1  0
  7  8  1  0
  8  9  2  0
  8 10  1  0
 10 11  1  0
 11 12  1  0
 11 13  1  0
 11 14  1  0
 14 15  1  0
  7 16  1  0
 16 17  1  0
 17  4  1  0
  1 18  1  0
  1 19  1  0
  1 20  1  0
  2 21  1  0
  3 22  1  0
  3 23  1  0
  3 24  1  0
  4 25  1  0
  5 26  1  0
  5 27  1  0
  6 28  1  0
  6 29  1  0
  7 30  1  0
 10 31  1  0
 12 32  1  0
 12 33  1  0
 12 34  1  0
 13 35  1  0
 13 36  1  0
 13 37  1  0
 14 38  1  0
 15 39  1  0
 15 40  1  0
 16 41  1  0
 16 42  1  0
 17 43  1  0
 17 44  1  0
M  CHG  1   3   1
M  END
>  <EmbedRMS>  (30) 
0.16937543786419249

$$$$

     RDKit          3D

 41 41  0  0  0  0  0  0  0  0999 V2000
    6.7770   12.3654    2.7126 C   0  0  0  0  0  0  0  0  0  0  0  0
    5.6974   11.5291    3.3298 C   0  0  0  0  0  0  0  0  0  0  0  0
    5.9071   10.3345    3.9183 C   0  0  0  0  0  0  0  0  0  0  0  0
    4.7582    9.7050    4.6113 C   0  0  0  0  0  0  0  0  0  0  0  0
    4.8526    8.5607    5.2060 N   0  0  0  0  0  0  0  0  0  0  0  0
    7.2208    9.7158    3.9414 N   0  0  0  0  0  0  0  0  0  0  0  0
    7.9775    9.5190    2.7303 C   0  0  0  0  0  0  0  0  0  0  0  0
    7.3964    9.6239    1.6236 O   0  0  0  0  0  0  0  0  0  0  0  0
    9.4425    9.2007    2.6418 C   0  0  0  0  0  0  0  0  0  0  0  0
    9.7426    7.7259    2.5455 C   0  0  0  0  0  0  0  0  0  0  0  0
   11.1775    7.4420    2.1332 C   0  0  0  0  0  0  0  0  0  0  0  0
   12.2590    8.3281    2.7672 C   0  0  0  0  0  0  0  0  0  0  0  0
   13.5991    8.3250    1.9902 C   0  0  0  0  0  0  0  0  0  0  0  0
   14.0099    7.0513    1.2530 C   0  0  0  0  0  0  0  0  0  0  0  0
   14.7010    8.8918    2.7704 N   0  0  0  0  0  4  0  0  0  0  0  0
   11.8456    9.7814    3.1211 C   0  0  0  0  0  0  0  0  0  0  0  0
   10.3808   10.0207    3.4839 C   0  0  0  0  0  0  0  0  0  0  0  0
    7.6955   12.3494    3.3368 H   0  0  0  0  0  0  0  0  0  0  0  0
    6.4283   13.4173    2.6458 H   0  0  0  0  0  0  0  0  0  0  0  0
    7.0012   12.0278    1.6823 H   0  0  0  0  0  0  0  0  0  0  0  0
    4.7076   11.9716    3.3608 H   0  0  0  0  0  0  0  0  0  0  0  0
    3.8001   10.2103    4.6298 H   0  0  0  0  0  0  0  0  0  0  0  0
    5.7349    8.0037    5.2308 H   0  0  0  0  0  0  0  0  0  0  0  0
    7.6110    9.3650    4.8441 H   0  0  0  0  0  0  0  0  0  0  0  0
    9.7090    9.5627    1.6178 H   0  0  0  0  0  0  0  0  0  0  0  0
    9.5621    7.2682    3.5427 H   0  0  0  0  0  0  0  0  0  0  0  0
    9.0524    7.2349    1.8230 H   0  0  0  0  0  0  0  0  0  0  0  0
   11.2101    7.5976    1.0326 H   0  0  0  0  0  0  0  0  0  0  0  0
   11.4051    6.3689    2.3187 H   0  0  0  0  0  0  0  0  0  0  0  0
   12.4654    7.8411    3.7469 H   0  0  0  0  0  0  0  0  0  0  0  0
   13.4354    9.0295    1.1417 H   0  0  0  0  0  0  0  0  0  0  0  0
   14.1161    6.2184    1.9794 H   0  0  0  0  0  0  0  0  0  0  0  0
   13.2655    6.7652    0.4819 H   0  0  0  0  0  0  0  0  0  0  0  0
   14.9812    7.1940    0.7331 H   0  0  0  0  0  0  0  0  0  0  0  0
   15.5904    8.8679    2.2205 H   0  0  0  0  0  0  0  0  0  0  0  0
   14.5184    9.8921    3.0094 H   0  0  0  0  0  0  0  0  0  0  0  0
   14.8365    8.3409    3.6489 H   0  0  0  0  0  0  0  0  0  0  0  0
   12.4672   10.1539    3.9643 H   0  0  0  0  0  0  0  0  0  0  0  0
   12.0602   10.4406    2.2511 H   0  0  0  0  0  0  0  0  0  0  0  0
   10.2276    9.7391    4.5485 H   0  0  0  0  0  0  0  0  0  0  0  0
   10.1427   11.1035    3.3855 H   0  0  0  0  0  0  0  0  0  0  0  0
  1  2  1  0
  2  3  2  3
  3  4  1  0
  4  5  2  3
  3  6  1  0
  6  7  1  0
  7  8  2  0
  7  9  1  0
  9 10  1  0
 10 11  1  0
 11 12  1  0
 12 13  1  0
 13 14  1  0
 13 15  1  0
 12 16  1  0
 16 17  1  0
 17  9  1  0
  1 18  1  0
  1 19  1  0
  1 20  1  0
  2 21  1  0
  4 22  1  0
  5 23  1  0
  6 24  1  0
  9 25  1  0
 10 26  1  0
 10 27  1  0
 11 28  1  0
 11 29  1  0
 12 30  1  0
 13 31  1  0
 14 32  1  0
 14 33  1  0
 14 34  1  0
 15 35  1  0
 15 36  1  0
 15 37  1  0
 16 38  1  0
 16 39  1  0
 17 40  1  0
 17 41  1  0
M  CHG  1  15   1
M  END
>  <EmbedRMS>  (31) 
0.3022183700925627

$$$$

     RDKit          3D

 43 43  0  0  0  0  0  0  0  0999 V2000
    5.0050   11.5098    7.1986 C   0  0  0  0  0  0  0  0  0  0  0  0
    5.6534   11.4114    5.8925 N   0  0  0  0  0  4  0  0  0  0  0  0
    5.0764   10.2943    5.1324 C   0  0  0  0  0  0  0  0  0  0  0  0
    5.7721   10.1344    3.7825 C   0  0  0  0  0  0  0  0  0  0  0  0
    7.1449    9.6763    3.9645 N   0  0  0  0  0  0  0  0  0  0  0  0
    8.0156    9.4656    2.8537 C   0  0  0  0  0  0  0  0  0  0  0  0
    7.6126    9.6911    1.6783 O   0  0  0  0  0  0  0  0  0  0  0  0
    9.4195    8.9872    3.0996 C   0  0  0  0  0  0  0  0  0  0  0  0
    9.8040    7.9211    2.0779 C   0  0  0  0  0  0  0  0  0  0  0  0
   11.1610    7.3109    2.3955 C   0  0  0  0  0  0  0  0  0  0  0  0
   12.2775    8.3210    2.7732 C   0  0  0  0  0  0  0  0  0  0  0  0
   13.5820    8.3572    1.9533 C   0  0  0  0  0  0  0  0  0  0  0  0
   13.9851    7.0989    1.1848 C   0  0  0  0  0  0  0  0  0  0  0  0
   14.7126    8.8837    2.7301 N   0  0  0  0  0  4  0  0  0  0  0  0
   11.8333    9.7186    3.3042 C   0  0  0  0  0  0  0  0  0  0  0  0
   10.3996   10.1507    3.0037 C   0  0  0  0  0  0  0  0  0  0  0  0
    5.4336   12.3647    7.7650 H   0  0  0  0  0  0  0  0  0  0  0  0
    3.9123   11.6848    7.0844 H   0  0  0  0  0  0  0  0  0  0  0  0
    5.1724   10.5840    7.7923 H   0  0  0  0  0  0  0  0  0  0  0  0
    6.6785   11.2701    6.0448 H   0  0  0  0  0  0  0  0  0  0  0  0
    5.5017   12.3081    5.3736 H   0  0  0  0  0  0  0  0  0  0  0  0
    3.9953   10.4845    4.9454 H   0  0  0  0  0  0  0  0  0  0  0  0
    5.1645    9.3419    5.7036 H   0  0  0  0  0  0  0  0  0  0  0  0
    5.7677   11.1042    3.2388 H   0  0  0  0  0  0  0  0  0  0  0  0
    5.2166    9.3875    3.1751 H   0  0  0  0  0  0  0  0  0  0  0  0
    7.4993    9.4473    4.9211 H   0  0  0  0  0  0  0  0  0  0  0  0
    9.4791    8.5430    4.1189 H   0  0  0  0  0  0  0  0  0  0  0  0
    9.0401    7.1115    2.0710 H   0  0  0  0  0  0  0  0  0  0  0  0
    9.8381    8.3604    1.0554 H   0  0  0  0  0  0  0  0  0  0  0  0
   11.0035    6.5987    3.2390 H   0  0  0  0  0  0  0  0  0  0  0  0
   11.4463    6.6777    1.5353 H   0  0  0  0  0  0  0  0  0  0  0  0
   12.6602    7.8393    3.7041 H   0  0  0  0  0  0  0  0  0  0  0  0
   13.3818    9.1014    1.1484 H   0  0  0  0  0  0  0  0  0  0  0  0
   15.0014    7.2122    0.7511 H   0  0  0  0  0  0  0  0  0  0  0  0
   13.9884    6.2217    1.8658 H   0  0  0  0  0  0  0  0  0  0  0  0
   13.2939    6.9116    0.3364 H   0  0  0  0  0  0  0  0  0  0  0  0
   14.9962    8.1893    3.4593 H   0  0  0  0  0  0  0  0  0  0  0  0
   14.4937    9.7895    3.1978 H   0  0  0  0  0  0  0  0  0  0  0  0
   15.5301    9.0536    2.0996 H   0  0  0  0  0  0  0  0  0  0  0  0
   12.4794   10.5257    2.9005 H   0  0  0  0  0  0  0  0  0  0  0  0
   11.9640    9.7479    4.4104 H   0  0  0  0  0  0  0  0  0  0  0  0
   10.1046   10.9516    3.7180 H   0  0  0  0  0  0  0  0  0  0  0  0
   10.3605   10.5876    1.9801 H   0  0  0  0  0  0  0  0  0  0  0  0
  1  2  1  0
  2  3  1  0
  3  4  1  0
  4  5  1  0
  5  6  1  0
  6  7  2  0
  6  8  1  0
  8  9  1  0
  9 10  1  0
 10 11  1  0
 11 12  1  0
 12 13  1  0
 12 14  1  0
 11 15  1  0
 15 16  1  0
 16  8  1  0
  1 17  1  0
  1 18  1  0
  1 19  1  0
  2 20  1  0
  2 21  1  0
  3 22  1  0
  3 23  1  0
  4 24  1  0
  4 25  1  0
  5 26  1  0
  8 27  1  0
  9 28  1  0
  9 29  1  0
 10 30  1  0
 10 31  1  0
 11 32  1  0
 12 33  1  0
 13 34  1  0
 13 35  1  0
 13 36  1  0
 14 37  1  0
 14 38  1  0
 14 39  1  0
 15 40  1  0
 15 41  1  0
 16 42  1  0
 16 43  1  0
M  CHG  2   2   1  14   1
M  END
>  <EmbedRMS>  (32) 
0.2153162907233524

$$$$

     RDKit          3D

 43 43  0  0  0  0  0  0  0  0999 V2000
    5.7455   11.3191    6.0203 C   0  0  0  0  0  0  0  0  0  0  0  0
    5.0047   10.7821    4.8077 C   0  0  0  0  0  0  0  0  0  0  0  0
    3.5728   10.3507    5.0822 C   0  0  0  0  0  0  0  0  0  0  0  0
    5.7224    9.8551    3.8187 C   0  0  0  0  0  0  0  0  0  0  0  0
    7.1673    9.7742    3.9858 N   0  0  0  0  0  0  0  0  0  0  0  0
    8.0197    9.4860    2.8700 C   0  0  0  0  0  0  0  0  0  0  0  0
    7.6120    9.6782    1.6893 O   0  0  0  0  0  0  0  0  0  0  0  0
    9.4200    8.9947    3.1117 C   0  0  0  0  0  0  0  0  0  0  0  0
    9.7988    7.9256    2.0876 C   0  0  0  0  0  0  0  0  0  0  0  0
   11.1582    7.3137    2.3954 C   0  0  0  0  0  0  0  0  0  0  0  0
   12.2771    8.3213    2.7736 C   0  0  0  0  0  0  0  0  0  0  0  0
   13.5816    8.3566    1.9535 C   0  0  0  0  0  0  0  0  0  0  0  0
   13.9838    7.0979    1.1851 C   0  0  0  0  0  0  0  0  0  0  0  0
   14.7128    8.8826    2.7299 N   0  0  0  0  0  4  0  0  0  0  0  0
   11.8363    9.7189    3.3063 C   0  0  0  0  0  0  0  0  0  0  0  0
   10.4036   10.1539    3.0090 C   0  0  0  0  0  0  0  0  0  0  0  0
    6.6922   11.8134    5.7137 H   0  0  0  0  0  0  0  0  0  0  0  0
    5.9786   10.4860    6.7163 H   0  0  0  0  0  0  0  0  0  0  0  0
    5.1250   12.0678    6.5586 H   0  0  0  0  0  0  0  0  0  0  0  0
    4.8657   11.7152    4.2129 H   0  0  0  0  0  0  0  0  0  0  0  0
    3.0203   11.1491    5.6229 H   0  0  0  0  0  0  0  0  0  0  0  0
    3.0383   10.1417    4.1302 H   0  0  0  0  0  0  0  0  0  0  0  0
    3.5694    9.4316    5.7057 H   0  0  0  0  0  0  0  0  0  0  0  0
    5.4637   10.1654    2.7814 H   0  0  0  0  0  0  0  0  0  0  0  0
    5.3247    8.8235    3.9382 H   0  0  0  0  0  0  0  0  0  0  0  0
    7.5474    9.6168    4.9461 H   0  0  0  0  0  0  0  0  0  0  0  0
    9.4774    8.5519    4.1318 H   0  0  0  0  0  0  0  0  0  0  0  0
    9.0337    7.1173    2.0860 H   0  0  0  0  0  0  0  0  0  0  0  0
    9.8270    8.3640    1.0645 H   0  0  0  0  0  0  0  0  0  0  0  0
   11.4397    6.6861    1.5299 H   0  0  0  0  0  0  0  0  0  0  0  0
   11.0047    6.5964    3.2353 H   0  0  0  0  0  0  0  0  0  0  0  0
   12.6593    7.8378    3.7038 H   0  0  0  0  0  0  0  0  0  0  0  0
   13.3817    9.1007    1.1484 H   0  0  0  0  0  0  0  0  0  0  0  0
   15.0002    7.2104    0.7513 H   0  0  0  0  0  0  0  0  0  0  0  0
   13.9864    6.2209    1.8663 H   0  0  0  0  0  0  0  0  0  0  0  0
   13.2924    6.9108    0.3370 H   0  0  0  0  0  0  0  0  0  0  0  0
   14.4954    9.7894    3.1965 H   0  0  0  0  0  0  0  0  0  0  0  0
   15.5306    9.0506    2.0995 H   0  0  0  0  0  0  0  0  0  0  0  0
   14.9953    8.1887    3.4600 H   0  0  0  0  0  0  0  0  0  0  0  0
   12.4825   10.5253    2.9014 H   0  0  0  0  0  0  0  0  0  0  0  0
   11.9695    9.7477    4.4122 H   0  0  0  0  0  0  0  0  0  0  0  0
   10.1142   10.9583    3.7217 H   0  0  0  0  0  0  0  0  0  0  0  0
   10.3629   10.5881    1.9841 H   0  0  0  0  0  0  0  0  0  0  0  0
  1  2  1  0
  2  3  1  0
  2  4  1  0
  4  5  1  0
  5  6  1  0
  6  7  2  0
  6  8  1  0
  8  9  1  0
  9 10  1  0
 10 11  1  0
 11 12  1  0
 12 13  1  0
 12 14  1  0
 11 15  1  0
 15 16  1  0
 16  8  1  0
  1 17  1  0
  1 18  1  0
  1 19  1  0
  2 20  1  0
  3 21  1  0
  3 22  1  0
  3 23  1  0
  4 24  1  0
  4 25  1  0
  5 26  1  0
  8 27  1  0
  9 28  1  0
  9 29  1  0
 10 30  1  0
 10 31  1  0
 11 32  1  0
 12 33  1  0
 13 34  1  0
 13 35  1  0
 13 36  1  0
 14 37  1  0
 14 38  1  0
 14 39  1  0
 15 40  1  0
 15 41  1  0
 16 42  1  0
 16 43  1  0
M  CHG  1  14   1
M  END
>  <EmbedRMS>  (33) 
0.28373172213554615

$$$$

     RDKit          3D

 41 42  0  0  0  0  0  0  0  0999 V2000
   14.0095    7.0504    1.2533 C   0  0  0  0  0  0  0  0  0  0  0  0
   13.5989    8.3243    1.9899 C   0  0  0  0  0  0  0  0  0  0  0  0
   14.7011    8.8919    2.7694 N   0  0  0  0  0  4  0  0  0  0  0  0
   12.2592    8.3278    2.7674 C   0  0  0  0  0  0  0  0  0  0  0  0
   11.1759    7.4411    2.1356 C   0  0  0  0  0  0  0  0  0  0  0  0
    9.7400    7.7280    2.5467 C   0  0  0  0  0  0  0  0  0  0  0  0
    9.4448    9.2039    2.6453 C   0  0  0  0  0  0  0  0  0  0  0  0
    7.9811    9.5345    2.7316 C   0  0  0  0  0  0  0  0  0  0  0  0
    7.4312    9.7485    1.6252 O   0  0  0  0  0  0  0  0  0  0  0  0
    7.2028    9.6519    3.9403 N   0  0  0  0  0  0  0  0  0  0  0  0
    5.7647    9.8228    3.9029 C   0  0  0  0  0  0  0  0  0  0  0  0
    5.0339   10.6545    4.7293 C   0  0  0  0  0  0  0  0  0  0  0  0
    3.7178   10.4471    4.3485 C   0  0  0  0  0  0  0  0  0  0  0  0
    3.6678    9.5270    3.3645 N   0  0  0  0  0  0  0  0  0  0  0  0
    4.9080    9.1444    3.1025 N   0  0  0  0  0  0  0  0  0  0  0  0
    5.2116    8.0687    2.1641 C   0  0  0  0  0  0  0  0  0  0  0  0
   10.3846   10.0206    3.4874 C   0  0  0  0  0  0  0  0  0  0  0  0
   11.8476    9.7815    3.1207 C   0  0  0  0  0  0  0  0  0  0  0  0
   13.2641    6.7630    0.4837 H   0  0  0  0  0  0  0  0  0  0  0  0
   14.9800    7.1933    0.7318 H   0  0  0  0  0  0  0  0  0  0  0  0
   14.1174    6.2183    1.9804 H   0  0  0  0  0  0  0  0  0  0  0  0
   13.4348    9.0282    1.1409 H   0  0  0  0  0  0  0  0  0  0  0  0
   14.5199    9.8932    3.0051 H   0  0  0  0  0  0  0  0  0  0  0  0
   15.5910    8.8651    2.2203 H   0  0  0  0  0  0  0  0  0  0  0  0
   14.8352    8.3434    3.6497 H   0  0  0  0  0  0  0  0  0  0  0  0
   12.4662    7.8415    3.7474 H   0  0  0  0  0  0  0  0  0  0  0  0
   11.2089    7.5939    1.0347 H   0  0  0  0  0  0  0  0  0  0  0  0
   11.4022    6.3682    2.3235 H   0  0  0  0  0  0  0  0  0  0  0  0
    9.0483    7.2415    1.8226 H   0  0  0  0  0  0  0  0  0  0  0  0
    9.5565    7.2691    3.5427 H   0  0  0  0  0  0  0  0  0  0  0  0
    9.7192    9.5615    1.6215 H   0  0  0  0  0  0  0  0  0  0  0  0
    7.7017    9.7686    4.8500 H   0  0  0  0  0  0  0  0  0  0  0  0
    5.4044   11.3205    5.4970 H   0  0  0  0  0  0  0  0  0  0  0  0
    2.8492   10.9330    4.7718 H   0  0  0  0  0  0  0  0  0  0  0  0
    4.3831    7.3291    2.1649 H   0  0  0  0  0  0  0  0  0  0  0  0
    5.3078    8.4776    1.1374 H   0  0  0  0  0  0  0  0  0  0  0  0
    6.1374    7.5328    2.4609 H   0  0  0  0  0  0  0  0  0  0  0  0
   10.1473   11.1039    3.3931 H   0  0  0  0  0  0  0  0  0  0  0  0
   10.2352    9.7351    4.5514 H   0  0  0  0  0  0  0  0  0  0  0  0
   12.4714   10.1547    3.9619 H   0  0  0  0  0  0  0  0  0  0  0  0
   12.0600   10.4399    2.2495 H   0  0  0  0  0  0  0  0  0  0  0  0
  1  2  1  0
  2  3  1  0
  2  4  1  0
  4  5  1  0
  5  6  1  0
  6  7  1  0
  7  8  1  0
  8  9  2  0
  8 10  1  0
 10 11  1  0
 11 12  2  0
 12 13  1  0
 13 14  2  0
 14 15  1  0
 15 16  1  0
  7 17  1  0
 17 18  1  0
 18  4  1  0
 15 11  1  0
  1 19  1  0
  1 20  1  0
  1 21  1  0
  2 22  1  0
  3 23  1  0
  3 24  1  0
  3 25  1  0
  4 26  1  0
  5 27  1  0
  5 28  1  0
  6 29  1  0
  6 30  1  0
  7 31  1  0
 10 32  1  0
 12 33  1  0
 13 34  1  0
 16 35  1  0
 16 36  1  0
 16 37  1  0
 17 38  1  0
 17 39  1  0
 18 40  1  0
 18 41  1  0
M  CHG  1   3   1
M  END
>  <EmbedRMS>  (34) 
0.2930144483433324

$$$$

     RDKit          3D

 39 40  0  0  0  0  0  0  0  0999 V2000
   14.0110    7.0511    1.2526 C   0  0  0  0  0  0  0  0  0  0  0  0
   13.6007    8.3248    1.9901 C   0  0  0  0  0  0  0  0  0  0  0  0
   14.7033    8.8921    2.7690 N   0  0  0  0  0  4  0  0  0  0  0  0
   12.2625    8.3270    2.7691 C   0  0  0  0  0  0  0  0  0  0  0  0
   11.1802    7.4398    2.1370 C   0  0  0  0  0  0  0  0  0  0  0  0
    9.7464    7.7250    2.5506 C   0  0  0  0  0  0  0  0  0  0  0  0
    9.4528    9.2006    2.6508 C   0  0  0  0  0  0  0  0  0  0  0  0
    7.9907    9.5272    2.7197 C   0  0  0  0  0  0  0  0  0  0  0  0
    7.4511    9.6605    1.5982 O   0  0  0  0  0  0  0  0  0  0  0  0
    7.2032    9.6917    3.9188 N   0  0  0  0  0  0  0  0  0  0  0  0
    5.8190   10.1244    3.8864 C   0  0  0  0  0  0  0  0  0  0  0  0
    5.0492   10.4501    2.7707 C   0  0  0  0  0  0  0  0  0  0  0  0
    3.8118   10.8137    3.2504 C   0  0  0  0  0  0  0  0  0  0  0  0
    3.7917   10.7296    4.5924 N   0  0  0  0  0  0  0  0  0  0  0  0
    5.0092   10.3116    4.9903 C   0  0  0  0  0  0  0  0  0  0  0  0
   10.3879   10.0193    3.4937 C   0  0  0  0  0  0  0  0  0  0  0  0
   11.8511    9.7804    3.1265 C   0  0  0  0  0  0  0  0  0  0  0  0
   13.2659    6.7648    0.4822 H   0  0  0  0  0  0  0  0  0  0  0  0
   14.9817    7.1940    0.7316 H   0  0  0  0  0  0  0  0  0  0  0  0
   14.1182    6.2183    1.9789 H   0  0  0  0  0  0  0  0  0  0  0  0
   13.4353    9.0292    1.1418 H   0  0  0  0  0  0  0  0  0  0  0  0
   14.5218    9.8930    3.0061 H   0  0  0  0  0  0  0  0  0  0  0  0
   15.5925    8.8665    2.2188 H   0  0  0  0  0  0  0  0  0  0  0  0
   14.8389    8.3426    3.6484 H   0  0  0  0  0  0  0  0  0  0  0  0
   12.4711    7.8390    3.7480 H   0  0  0  0  0  0  0  0  0  0  0  0
   11.2117    7.5939    1.0361 H   0  0  0  0  0  0  0  0  0  0  0  0
   11.4077    6.3669    2.3236 H   0  0  0  0  0  0  0  0  0  0  0  0
    9.0547    7.2379    1.8268 H   0  0  0  0  0  0  0  0  0  0  0  0
    9.5649    7.2656    3.5467 H   0  0  0  0  0  0  0  0  0  0  0  0
    9.7356    9.5600    1.6294 H   0  0  0  0  0  0  0  0  0  0  0  0
    7.6552    9.5149    4.8435 H   0  0  0  0  0  0  0  0  0  0  0  0
    5.3065   10.4537    1.7245 H   0  0  0  0  0  0  0  0  0  0  0  0
    2.9693   11.1301    2.6494 H   0  0  0  0  0  0  0  0  0  0  0  0
    2.9817   10.9503    5.2127 H   0  0  0  0  0  0  0  0  0  0  0  0
    5.2923   10.1545    6.0229 H   0  0  0  0  0  0  0  0  0  0  0  0
   10.1492   11.1022    3.3982 H   0  0  0  0  0  0  0  0  0  0  0  0
   10.2369    9.7340    4.5575 H   0  0  0  0  0  0  0  0  0  0  0  0
   12.4748   10.1510    3.9689 H   0  0  0  0  0  0  0  0  0  0  0  0
   12.0642   10.4412    2.2573 H   0  0  0  0  0  0  0  0  0  0  0  0
  1  2  1  0
  2  3  1  0
  2  4  1  0
  4  5  1  0
  5  6  1  0
  6  7  1  0
  7  8  1  0
  8  9  2  0
  8 10  1  0
 10 11  1  0
 11 12  1  0
 12 13  2  0
 13 14  1  0
 14 15  1  0
  7 16  1  0
 16 17  1  0
 17  4  1  0
 15 11  2  0
  1 18  1  0
  1 19  1  0
  1 20  1  0
  2 21  1  0
  3 22  1  0
  3 23  1  0
  3 24  1  0
  4 25  1  0
  5 26  1  0
  5 27  1  0
  6 28  1  0
  6 29  1  0
  7 30  1  0
 10 31  1  0
 12 32  1  0
 13 33  1  0
 14 34  1  0
 15 35  1  0
 16 36  1  0
 16 37  1  0
 17 38  1  0
 17 39  1  0
M  CHG  1   3   1
M  END
>  <EmbedRMS>  (35) 
0.3005329260886256

$$$$

     RDKit          3D

 41 42  0  0  0  0  0  0  0  0999 V2000
   13.9848    7.0986    1.1851 C   0  0  0  0  0  0  0  0  0  0  0  0
   13.5818    8.3571    1.9535 C   0  0  0  0  0  0  0  0  0  0  0  0
   14.7125    8.8837    2.7300 N   0  0  0  0  0  4  0  0  0  0  0  0
   12.2774    8.3210    2.7736 C   0  0  0  0  0  0  0  0  0  0  0  0
   11.1608    7.3109    2.3965 C   0  0  0  0  0  0  0  0  0  0  0  0
    9.8027    7.9207    2.0828 C   0  0  0  0  0  0  0  0  0  0  0  0
    9.4191    8.9871    3.1060 C   0  0  0  0  0  0  0  0  0  0  0  0
    8.0160    9.4679    2.8600 C   0  0  0  0  0  0  0  0  0  0  0  0
    7.6248    9.6823    1.6801 O   0  0  0  0  0  0  0  0  0  0  0  0
    7.1498    9.7002    3.9783 N   0  0  0  0  0  0  0  0  0  0  0  0
    5.7892   10.1357    3.8873 C   0  0  0  0  0  0  0  0  0  0  0  0
    5.0500   10.4463    2.7574 C   0  0  0  0  0  0  0  0  0  0  0  0
    3.8154   10.8163    3.1459 N   0  0  0  0  0  0  0  0  0  0  0  0
    3.7653   10.7356    4.4672 N   0  0  0  0  0  0  0  0  0  0  0  0
    2.5952   11.0848    5.2570 C   0  0  0  0  0  0  0  0  0  0  0  0
    4.9506   10.3352    4.9580 C   0  0  0  0  0  0  0  0  0  0  0  0
   10.3996   10.1503    3.0069 C   0  0  0  0  0  0  0  0  0  0  0  0
   11.8338    9.7186    3.3047 C   0  0  0  0  0  0  0  0  0  0  0  0
   13.9881    6.2215    1.8662 H   0  0  0  0  0  0  0  0  0  0  0  0
   15.0011    7.2119    0.7512 H   0  0  0  0  0  0  0  0  0  0  0  0
   13.2935    6.9112    0.3369 H   0  0  0  0  0  0  0  0  0  0  0  0
   13.3814    9.1011    1.1484 H   0  0  0  0  0  0  0  0  0  0  0  0
   15.5300    9.0533    2.0994 H   0  0  0  0  0  0  0  0  0  0  0  0
   14.9961    8.1897    3.4594 H   0  0  0  0  0  0  0  0  0  0  0  0
   14.4937    9.7898    3.1972 H   0  0  0  0  0  0  0  0  0  0  0  0
   12.6603    7.8393    3.7045 H   0  0  0  0  0  0  0  0  0  0  0  0
   11.0055    6.5970    3.2390 H   0  0  0  0  0  0  0  0  0  0  0  0
   11.4449    6.6797    1.5345 H   0  0  0  0  0  0  0  0  0  0  0  0
    9.0392    7.1109    2.0771 H   0  0  0  0  0  0  0  0  0  0  0  0
    9.8350    8.3599    1.0601 H   0  0  0  0  0  0  0  0  0  0  0  0
    9.4783    8.5432    4.1255 H   0  0  0  0  0  0  0  0  0  0  0  0
    7.5318    9.5376    4.9374 H   0  0  0  0  0  0  0  0  0  0  0  0
    5.3608   10.4205    1.7246 H   0  0  0  0  0  0  0  0  0  0  0  0
    1.6866   11.0770    4.6182 H   0  0  0  0  0  0  0  0  0  0  0  0
    2.7274   12.0990    5.6885 H   0  0  0  0  0  0  0  0  0  0  0  0
    2.4588   10.3506    6.0792 H   0  0  0  0  0  0  0  0  0  0  0  0
    5.1820   10.2005    6.0071 H   0  0  0  0  0  0  0  0  0  0  0  0
   10.3586   10.5864    1.9829 H   0  0  0  0  0  0  0  0  0  0  0  0
   10.1064   10.9521    3.7209 H   0  0  0  0  0  0  0  0  0  0  0  0
   11.9668    9.7488    4.4106 H   0  0  0  0  0  0  0  0  0  0  0  0
   12.4789   10.5257    2.8991 H   0  0  0  0  0  0  0  0  0  0  0  0
  1  2  1  0
  2  3  1  0
  2  4  1  0
  4  5  1  0
  5  6  1  0
  6  7  1  0
  7  8  1  0
  8  9  2  0
  8 10  1  0
 10 11  1  0
 11 12  1  0
 12 13  2  0
 13 14  1  0
 14 15  1  0
 14 16  1  0
  7 17  1  0
 17 18  1  0
 18  4  1  0
 16 11  2  0
  1 19  1  0
  1 20  1  0
  1 21  1  0
  2 22  1  0
  3 23  1  0
  3 24  1  0
  3 25  1  0
  4 26  1  0
  5 27  1  0
  5 28  1  0
  6 29  1  0
  6 30  1  0
  7 31  1  0
 10 32  1  0
 12 33  1  0
 15 34  1  0
 15 35  1  0
 15 36  1  0
 16 37  1  0
 17 38  1  0
 17 39  1  0
 18 40  1  0
 18 41  1  0
M  CHG  1   3   1
M  END
>  <EmbedRMS>  (36) 
0.202216898800577

$$$$

     RDKit          3D

 34 34  0  0  0  0  0  0  0  0999 V2000
    5.8329   10.1084    3.8848 C   0  0  0  0  0  0  0  0  0  0  0  0
    7.2300    9.6721    3.9456 N   0  0  0  0  0  0  0  0  0  0  0  0
    7.9825    9.5176    2.7336 C   0  0  0  0  0  0  0  0  0  0  0  0
    7.4038    9.6808    1.6309 O   0  0  0  0  0  0  0  0  0  0  0  0
    9.4450    9.1949    2.6523 C   0  0  0  0  0  0  0  0  0  0  0  0
    9.7659    7.7145    2.4310 C   0  0  0  0  0  0  0  0  0  0  0  0
   11.2645    7.3643    2.5394 C   0  0  0  0  0  0  0  0  0  0  0  0
   12.1440    8.5865    2.2316 C   0  0  0  0  0  0  0  0  0  0  0  0
   13.6550    8.3396    1.9330 C   0  0  0  0  0  0  0  0  0  0  0  0
   14.0142    7.0445    1.2245 C   0  0  0  0  0  0  0  0  0  0  0  0
   14.6175    8.7737    2.9400 N   0  0  0  0  0  4  0  0  0  0  0  0
   11.8902    9.6847    3.2842 C   0  0  0  0  0  0  0  0  0  0  0  0
   10.4057   10.0818    3.4290 C   0  0  0  0  0  0  0  0  0  0  0  0
    5.7674   11.1015    3.3922 H   0  0  0  0  0  0  0  0  0  0  0  0
    5.4215   10.1915    4.9127 H   0  0  0  0  0  0  0  0  0  0  0  0
    5.2299    9.3684    3.3173 H   0  0  0  0  0  0  0  0  0  0  0  0
    7.6848    9.4991    4.8697 H   0  0  0  0  0  0  0  0  0  0  0  0
    9.6804    9.5858    1.6329 H   0  0  0  0  0  0  0  0  0  0  0  0
    9.2153    7.1145    3.1879 H   0  0  0  0  0  0  0  0  0  0  0  0
    9.3849    7.3947    1.4340 H   0  0  0  0  0  0  0  0  0  0  0  0
   11.4945    7.0012    3.5653 H   0  0  0  0  0  0  0  0  0  0  0  0
   11.4746    6.5314    1.8369 H   0  0  0  0  0  0  0  0  0  0  0  0
   11.7511    8.9795    1.2646 H   0  0  0  0  0  0  0  0  0  0  0  0
   13.8453    9.0650    1.1029 H   0  0  0  0  0  0  0  0  0  0  0  0
   15.0594    7.0787    0.8480 H   0  0  0  0  0  0  0  0  0  0  0  0
   13.3413    6.8737    0.3566 H   0  0  0  0  0  0  0  0  0  0  0  0
   13.9245    6.1932    1.9314 H   0  0  0  0  0  0  0  0  0  0  0  0
   15.5929    8.5546    2.6319 H   0  0  0  0  0  0  0  0  0  0  0  0
   14.5663    9.8048    3.1021 H   0  0  0  0  0  0  0  0  0  0  0  0
   14.4328    8.2662    3.8350 H   0  0  0  0  0  0  0  0  0  0  0  0
   12.2711    9.3420    4.2714 H   0  0  0  0  0  0  0  0  0  0  0  0
   12.4559   10.5993    3.0033 H   0  0  0  0  0  0  0  0  0  0  0  0
   10.1327   10.0263    4.5050 H   0  0  0  0  0  0  0  0  0  0  0  0
   10.2681   11.1447    3.1242 H   0  0  0  0  0  0  0  0  0  0  0  0
  1  2  1  0
  2  3  1  0
  3  4  2  0
  3  5  1  0
  5  6  1  0
  6  7  1  0
  7  8  1  0
  8  9  1  0
  9 10  1  0
  9 11  1  0
  8 12  1  0
 12 13  1  0
 13  5  1  0
  1 14  1  0
  1 15  1  0
  1 16  1  0
  2 17  1  0
  5 18  1  0
  6 19  1  0
  6 20  1  0
  7 21  1  0
  7 22  1  0
  8 23  1  0
  9 24  1  0
 10 25  1  0
 10 26  1  0
 10 27  1  0
 11 28  1  0
 11 29  1  0
 11 30  1  0
 12 31  1  0
 12 32  1  0
 13 33  1  0
 13 34  1  0
M  CHG  1  11   1
M  END
>  <EmbedRMS>  (37) 
0.29639754771625826

$$$$

     RDKit          3D

 34 34  0  0  0  0  0  0  0  0999 V2000
    5.8329   10.1084    3.8848 C   0  0  0  0  0  0  0  0  0  0  0  0
    7.2300    9.6721    3.9456 N   0  0  0  0  0  0  0  0  0  0  0  0
    7.9825    9.5176    2.7336 C   0  0  0  0  0  0  0  0  0  0  0  0
    7.4038    9.6808    1.6309 O   0  0  0  0  0  0  0  0  0  0  0  0
    9.4450    9.1949    2.6523 C   0  0  0  0  0  0  0  0  0  0  0  0
    9.7659    7.7145    2.4310 C   0  0  0  0  0  0  0  0  0  0  0  0
   11.2645    7.3643    2.5394 C   0  0  0  0  0  0  0  0  0  0  0  0
   12.1440    8.5865    2.2316 C   0  0  0  0  0  0  0  0  0  0  0  0
   13.6550    8.3396    1.9330 C   0  0  0  0  0  0  0  0  0  0  0  0
   14.0142    7.0445    1.2245 C   0  0  0  0  0  0  0  0  0  0  0  0
   14.6175    8.7737    2.9400 N   0  0  0  0  0  4  0  0  0  0  0  0
   11.8902    9.6847    3.2842 C   0  0  0  0  0  0  0  0  0  0  0  0
   10.4057   10.0818    3.4290 C   0  0  0  0  0  0  0  0  0  0  0  0
    5.7674   11.1015    3.3922 H   0  0  0  0  0  0  0  0  0  0  0  0
    5.4215   10.1915    4.9127 H   0  0  0  0  0  0  0  0  0  0  0  0
    5.2299    9.3684    3.3173 H   0  0  0  0  0  0  0  0  0  0  0  0
    7.6848    9.4991    4.8697 H   0  0  0  0  0  0  0  0  0  0  0  0
    9.6804    9.5858    1.6329 H   0  0  0  0  0  0  0  0  0  0  0  0
    9.2153    7.1145    3.1879 H   0  0  0  0  0  0  0  0  0  0  0  0
    9.3849    7.3947    1.4340 H   0  0  0  0  0  0  0  0  0  0  0  0
   11.4945    7.0012    3.5653 H   0  0  0  0  0  0  0  0  0  0  0  0
   11.4746    6.5314    1.8369 H   0  0  0  0  0  0  0  0  0  0  0  0
   11.7511    8.9795    1.2646 H   0  0  0  0  0  0  0  0  0  0  0  0
   13.8453    9.0650    1.1029 H   0  0  0  0  0  0  0  0  0  0  0  0
   15.0594    7.0787    0.8480 H   0  0  0  0  0  0  0  0  0  0  0  0
   13.3413    6.8737    0.3566 H   0  0  0  0  0  0  0  0  0  0  0  0
   13.9245    6.1932    1.9314 H   0  0  0  0  0  0  0  0  0  0  0  0
   15.5929    8.5546    2.6319 H   0  0  0  0  0  0  0  0  0  0  0  0
   14.5663    9.8048    3.1021 H   0  0  0  0  0  0  0  0  0  0  0  0
   14.4328    8.2662    3.8350 H   0  0  0  0  0  0  0  0  0  0  0  0
   12.2711    9.3420    4.2714 H   0  0  0  0  0  0  0  0  0  0  0  0
   12.4559   10.5993    3.0033 H   0  0  0  0  0  0  0  0  0  0  0  0
   10.1327   10.0263    4.5050 H   0  0  0  0  0  0  0  0  0  0  0  0
   10.2681   11.1447    3.1242 H   0  0  0  0  0  0  0  0  0  0  0  0
  1  2  1  0
  2  3  1  0
  3  4  2  0
  3  5  1  0
  5  6  1  0
  6  7  1  0
  7  8  1  0
  8  9  1  0
  9 10  1  0
  9 11  1  0
  8 12  1  0
 12 13  1  0
 13  5  1  0
  1 14  1  0
  1 15  1  0
  1 16  1  0
  2 17  1  0
  5 18  1  0
  6 19  1  0
  6 20  1  0
  7 21  1  0
  7 22  1  0
  8 23  1  0
  9 24  1  0
 10 25  1  0
 10 26  1  0
 10 27  1  0
 11 28  1  0
 11 29  1  0
 11 30  1  0
 12 31  1  0
 12 32  1  0
 13 33  1  0
 13 34  1  0
M  CHG  1  11   1
M  END
>  <EmbedRMS>  (38) 
0.29639754771625826

$$$$

     RDKit          3D

 42 42  0  0  0  0  0  0  0  0999 V2000
    8.6750    8.1658    7.0703 C   0  0  0  0  0  0  0  0  0  0  0  0
    8.3763    8.4580    5.8022 C   0  0  0  0  0  0  0  0  0  0  0  0
    7.3143    9.3915    5.3537 C   0  0  0  0  0  0  0  0  0  0  0  0
    6.4078    9.8578    6.2465 C   0  0  0  0  0  0  0  0  0  0  0  0
    5.2565   10.7471    5.8877 C   0  0  0  0  0  0  0  0  0  0  0  0
    7.1493    9.7152    3.9495 N   0  0  0  0  0  0  0  0  0  0  0  0
    7.9765    9.4983    2.7821 C   0  0  0  0  0  0  0  0  0  0  0  0
    7.4301    9.6608    1.6607 O   0  0  0  0  0  0  0  0  0  0  0  0
    9.4445    9.1811    2.6937 C   0  0  0  0  0  0  0  0  0  0  0  0
    9.7537    7.7156    2.4382 C   0  0  0  0  0  0  0  0  0  0  0  0
   11.2038    7.4507    2.0892 C   0  0  0  0  0  0  0  0  0  0  0  0
   12.2683    8.3270    2.7571 C   0  0  0  0  0  0  0  0  0  0  0  0
   13.6145    8.3244    1.9914 C   0  0  0  0  0  0  0  0  0  0  0  0
   14.0289    7.0506    1.2546 C   0  0  0  0  0  0  0  0  0  0  0  0
   14.7105    8.8911    2.7788 N   0  0  0  0  0  4  0  0  0  0  0  0
   11.8580    9.7797    3.1035 C   0  0  0  0  0  0  0  0  0  0  0  0
   10.4067   10.0105    3.5026 C   0  0  0  0  0  0  0  0  0  0  0  0
    9.4522    7.4407    7.2763 H   0  0  0  0  0  0  0  0  0  0  0  0
    8.2207    8.6429    7.9236 H   0  0  0  0  0  0  0  0  0  0  0  0
    8.9290    7.9270    5.0689 H   0  0  0  0  0  0  0  0  0  0  0  0
    6.4522    9.5905    7.2899 H   0  0  0  0  0  0  0  0  0  0  0  0
    5.6232   11.6730    5.3961 H   0  0  0  0  0  0  0  0  0  0  0  0
    4.7085   11.0385    6.8086 H   0  0  0  0  0  0  0  0  0  0  0  0
    4.5465   10.2109    5.2233 H   0  0  0  0  0  0  0  0  0  0  0  0
    6.2337   10.1339    3.6758 H   0  0  0  0  0  0  0  0  0  0  0  0
    9.6986    9.5966    1.6856 H   0  0  0  0  0  0  0  0  0  0  0  0
    9.1148    7.3426    1.6051 H   0  0  0  0  0  0  0  0  0  0  0  0
    9.4972    7.0769    3.2974 H   0  0  0  0  0  0  0  0  0  0  0  0
   11.2718    7.6249    0.9927 H   0  0  0  0  0  0  0  0  0  0  0  0
   11.4331    6.3748    2.2587 H   0  0  0  0  0  0  0  0  0  0  0  0
   12.4573    7.8339    3.7373 H   0  0  0  0  0  0  0  0  0  0  0  0
   13.4588    9.0294    1.1415 H   0  0  0  0  0  0  0  0  0  0  0  0
   14.1162    6.2135    1.9787 H   0  0  0  0  0  0  0  0  0  0  0  0
   13.3003    6.7723    0.4659 H   0  0  0  0  0  0  0  0  0  0  0  0
   15.0110    7.1880    0.7539 H   0  0  0  0  0  0  0  0  0  0  0  0
   14.5373    9.8979    2.9966 H   0  0  0  0  0  0  0  0  0  0  0  0
   15.6086    8.8475    2.2446 H   0  0  0  0  0  0  0  0  0  0  0  0
   14.8256    8.3542    3.6688 H   0  0  0  0  0  0  0  0  0  0  0  0
   12.4979   10.1655    3.9267 H   0  0  0  0  0  0  0  0  0  0  0  0
   12.0458   10.4293    2.2200 H   0  0  0  0  0  0  0  0  0  0  0  0
   10.1603   11.0919    3.4053 H   0  0  0  0  0  0  0  0  0  0  0  0
   10.3056    9.7529    4.5738 H   0  0  0  0  0  0  0  0  0  0  0  0
  1  2  2  3
  2  3  1  0
  3  4  2  3
  4  5  1  0
  3  6  1  0
  6  7  1  0
  7  8  2  0
  7  9  1  0
  9 10  1  0
 10 11  1  0
 11 12  1  0
 12 13  1  0
 13 14  1  0
 13 15  1  0
 12 16  1  0
 16 17  1  0
 17  9  1  0
  1 18  1  0
  1 19  1  0
  2 20  1  0
  4 21  1  0
  5 22  1  0
  5 23  1  0
  5 24  1  0
  6 25  1  0
  9 26  1  0
 10 27  1  0
 10 28  1  0
 11 29  1  0
 11 30  1  0
 12 31  1  0
 13 32  1  0
 14 33  1  0
 14 34  1  0
 14 35  1  0
 15 36  1  0
 15 37  1  0
 15 38  1  0
 16 39  1  0
 16 40  1  0
 17 41  1  0
 17 42  1  0
M  CHG  1  15   1
M  END
>  <EmbedRMS>  (39) 
0.29216731409503444

$$$$

     RDKit          3D

 38 38  0  0  0  0  0  0  0  0999 V2000
   13.9838    7.0986    1.1854 C   0  0  0  0  0  0  0  0  0  0  0  0
   13.5808    8.3571    1.9537 C   0  0  0  0  0  0  0  0  0  0  0  0
   14.7116    8.8837    2.7302 N   0  0  0  0  0  4  0  0  0  0  0  0
   12.2760    8.3215    2.7737 C   0  0  0  0  0  0  0  0  0  0  0  0
   11.1588    7.3120    2.3967 C   0  0  0  0  0  0  0  0  0  0  0  0
    9.8002    7.9222    2.0840 C   0  0  0  0  0  0  0  0  0  0  0  0
    9.4158    8.9895    3.1070 C   0  0  0  0  0  0  0  0  0  0  0  0
    8.0116    9.4733    2.8596 C   0  0  0  0  0  0  0  0  0  0  0  0
    7.6272    9.6851    1.6778 O   0  0  0  0  0  0  0  0  0  0  0  0
    7.1398    9.6998    3.9789 N   0  0  0  0  0  0  0  0  0  0  0  0
    5.7848   10.1825    3.9275 C   0  0  0  0  0  0  0  0  0  0  0  0
    4.9516   10.3047    5.3328 S   0  0  0  0  0  0  0  0  0  0  0  0
    5.1684   10.7917    2.6941 C   0  0  0  0  0  0  0  0  0  0  0  0
    5.6286   12.1643    2.5055 N   0  0  0  0  0  0  0  0  0  0  0  0
   10.3982   10.1514    3.0075 C   0  0  0  0  0  0  0  0  0  0  0  0
   11.8325    9.7190    3.3050 C   0  0  0  0  0  0  0  0  0  0  0  0
   13.9872    6.2216    1.8666 H   0  0  0  0  0  0  0  0  0  0  0  0
   13.2922    6.9109    0.3374 H   0  0  0  0  0  0  0  0  0  0  0  0
   14.9999    7.2119    0.7513 H   0  0  0  0  0  0  0  0  0  0  0  0
   13.3806    9.1011    1.1486 H   0  0  0  0  0  0  0  0  0  0  0  0
   14.9950    8.1897    3.4598 H   0  0  0  0  0  0  0  0  0  0  0  0
   14.4928    9.7899    3.1974 H   0  0  0  0  0  0  0  0  0  0  0  0
   15.5291    9.0531    2.0997 H   0  0  0  0  0  0  0  0  0  0  0  0
   12.6587    7.8396    3.7046 H   0  0  0  0  0  0  0  0  0  0  0  0
   11.0038    6.5976    3.2387 H   0  0  0  0  0  0  0  0  0  0  0  0
   11.4424    6.6814    1.5341 H   0  0  0  0  0  0  0  0  0  0  0  0
    9.8319    8.3610    1.0611 H   0  0  0  0  0  0  0  0  0  0  0  0
    9.0365    7.1125    2.0788 H   0  0  0  0  0  0  0  0  0  0  0  0
    9.4758    8.5455    4.1263 H   0  0  0  0  0  0  0  0  0  0  0  0
    7.5193    9.4704    4.9255 H   0  0  0  0  0  0  0  0  0  0  0  0
    4.0614   10.8043    2.7990 H   0  0  0  0  0  0  0  0  0  0  0  0
    5.3576   10.1885    1.7869 H   0  0  0  0  0  0  0  0  0  0  0  0
    6.6706   12.1646    2.4161 H   0  0  0  0  0  0  0  0  0  0  0  0
    5.3838   12.7238    3.3551 H   0  0  0  0  0  0  0  0  0  0  0  0
   10.1057   10.9537    3.7212 H   0  0  0  0  0  0  0  0  0  0  0  0
   10.3572   10.5875    1.9835 H   0  0  0  0  0  0  0  0  0  0  0  0
   12.4778   10.5259    2.8994 H   0  0  0  0  0  0  0  0  0  0  0  0
   11.9657    9.7491    4.4109 H   0  0  0  0  0  0  0  0  0  0  0  0
  1  2  1  0
  2  3  1  0
  2  4  1  0
  4  5  1  0
  5  6  1  0
  6  7  1  0
  7  8  1  0
  8  9  2  0
  8 10  1  0
 10 11  1  0
 11 12  2  0
 11 13  1  0
 13 14  1  0
  7 15  1  0
 15 16  1  0
 16  4  1  0
  1 17  1  0
  1 18  1  0
  1 19  1  0
  2 20  1  0
  3 21  1  0
  3 22  1  0
  3 23  1  0
  4 24  1  0
  5 25  1  0
  5 26  1  0
  6 27  1  0
  6 28  1  0
  7 29  1  0
 10 30  1  0
 13 31  1  0
 13 32  1  0
 14 33  1  0
 14 34  1  0
 15 35  1  0
 15 36  1  0
 16 37  1  0
 16 38  1  0
M  CHG  1   3   1
M  END
>  <EmbedRMS>  (40) 
0.21492586170883154

$$$$

     RDKit          3D

 41 42  0  0  0  0  0  0  0  0999 V2000
   14.0109    7.0504    1.2530 C   0  0  0  0  0  0  0  0  0  0  0  0
   13.6001    8.3242    1.9897 C   0  0  0  0  0  0  0  0  0  0  0  0
   14.7019    8.8917    2.7696 N   0  0  0  0  0  4  0  0  0  0  0  0
   12.2605    8.3272    2.7670 C   0  0  0  0  0  0  0  0  0  0  0  0
   11.1785    7.4395    2.1347 C   0  0  0  0  0  0  0  0  0  0  0  0
    9.7431    7.7265    2.5438 C   0  0  0  0  0  0  0  0  0  0  0  0
    9.4480    9.2022    2.6348 C   0  0  0  0  0  0  0  0  0  0  0  0
    7.9855    9.5269    2.7212 C   0  0  0  0  0  0  0  0  0  0  0  0
    7.4160    9.6964    1.6166 O   0  0  0  0  0  0  0  0  0  0  0  0
    7.2200    9.6619    3.9307 N   0  0  0  0  0  0  0  0  0  0  0  0
    5.8087   10.0702    3.8756 C   0  0  0  0  0  0  0  0  0  0  0  0
    4.9486    8.9371    3.3964 C   0  0  0  0  0  0  0  0  0  0  0  0
    4.4548    8.7452    2.1230 C   0  0  0  0  0  0  0  0  0  0  0  0
    3.7772    7.5798    2.0873 N   0  0  0  0  0  0  0  0  0  0  0  0
    3.8798    7.0921    3.3428 C   0  0  0  0  0  0  0  0  0  0  0  0
    4.5889    7.8937    4.1582 N   0  0  0  0  0  0  0  0  0  0  0  0
   10.3837   10.0201    3.4813 C   0  0  0  0  0  0  0  0  0  0  0  0
   11.8482    9.7807    3.1209 C   0  0  0  0  0  0  0  0  0  0  0  0
   13.2670    6.7643    0.4814 H   0  0  0  0  0  0  0  0  0  0  0  0
   14.9826    7.1928    0.7336 H   0  0  0  0  0  0  0  0  0  0  0  0
   14.1165    6.2176    1.9796 H   0  0  0  0  0  0  0  0  0  0  0  0
   13.4361    9.0283    1.1408 H   0  0  0  0  0  0  0  0  0  0  0  0
   15.5914    8.8672    2.2198 H   0  0  0  0  0  0  0  0  0  0  0  0
   14.5195    9.8922    3.0077 H   0  0  0  0  0  0  0  0  0  0  0  0
   14.8374    8.3415    3.6486 H   0  0  0  0  0  0  0  0  0  0  0  0
   12.4676    7.8407    3.7469 H   0  0  0  0  0  0  0  0  0  0  0  0
   11.4048    6.3669    2.3242 H   0  0  0  0  0  0  0  0  0  0  0  0
   11.2125    7.5910    1.0336 H   0  0  0  0  0  0  0  0  0  0  0  0
    9.0527    7.2359    1.8211 H   0  0  0  0  0  0  0  0  0  0  0  0
    9.5596    7.2719    3.5418 H   0  0  0  0  0  0  0  0  0  0  0  0
    9.7204    9.5601    1.6109 H   0  0  0  0  0  0  0  0  0  0  0  0
    7.6822    9.5153    4.8558 H   0  0  0  0  0  0  0  0  0  0  0  0
    5.6911   10.9573    3.2159 H   0  0  0  0  0  0  0  0  0  0  0  0
    5.4737   10.3634    4.8934 H   0  0  0  0  0  0  0  0  0  0  0  0
    4.5840    9.4038    1.2744 H   0  0  0  0  0  0  0  0  0  0  0  0
    3.4435    6.1529    3.6564 H   0  0  0  0  0  0  0  0  0  0  0  0
    4.8181    7.7294    5.1636 H   0  0  0  0  0  0  0  0  0  0  0  0
   10.2295    9.7357    4.5450 H   0  0  0  0  0  0  0  0  0  0  0  0
   10.1466   11.1032    3.3848 H   0  0  0  0  0  0  0  0  0  0  0  0
   12.4688   10.1523    3.9652 H   0  0  0  0  0  0  0  0  0  0  0  0
   12.0645   10.4404    2.2517 H   0  0  0  0  0  0  0  0  0  0  0  0
  1  2  1  0
  2  3  1  0
  2  4  1  0
  4  5  1  0
  5  6  1  0
  6  7  1  0
  7  8  1  0
  8  9  2  0
  8 10  1  0
 10 11  1  0
 11 12  1  0
 12 13  2  0
 13 14  1  0
 14 15  2  0
 15 16  1  0
  7 17  1  0
 17 18  1  0
 18  4  1  0
 16 12  1  0
  1 19  1  0
  1 20  1  0
  1 21  1  0
  2 22  1  0
  3 23  1  0
  3 24  1  0
  3 25  1  0
  4 26  1  0
  5 27  1  0
  5 28  1  0
  6 29  1  0
  6 30  1  0
  7 31  1  0
 10 32  1  0
 11 33  1  0
 11 34  1  0
 13 35  1  0
 15 36  1  0
 16 37  1  0
 17 38  1  0
 17 39  1  0
 18 40  1  0
 18 41  1  0
M  CHG  1   3   1
M  END
>  <EmbedRMS>  (41) 
0.29359866989900446

$$$$

     RDKit          3D

 41 42  0  0  0  0  0  0  0  0999 V2000
   14.0155    7.0452    1.2243 C   0  0  0  0  0  0  0  0  0  0  0  0
   13.6577    8.3402    1.9340 C   0  0  0  0  0  0  0  0  0  0  0  0
   14.6213    8.7734    2.9399 N   0  0  0  0  0  4  0  0  0  0  0  0
   12.1479    8.5868    2.2358 C   0  0  0  0  0  0  0  0  0  0  0  0
   11.2708    7.3634    2.5450 C   0  0  0  0  0  0  0  0  0  0  0  0
    9.7738    7.7130    2.4384 C   0  0  0  0  0  0  0  0  0  0  0  0
    9.4545    9.1902    2.6817 C   0  0  0  0  0  0  0  0  0  0  0  0
    7.9930    9.5119    2.7236 C   0  0  0  0  0  0  0  0  0  0  0  0
    7.4746    9.6077    1.5899 O   0  0  0  0  0  0  0  0  0  0  0  0
    7.1920    9.7025    3.9130 N   0  0  0  0  0  0  0  0  0  0  0  0
    5.8002   10.1396    3.9098 C   0  0  0  0  0  0  0  0  0  0  0  0
    5.1136   10.2622    5.1332 C   0  0  0  0  0  0  0  0  0  0  0  0
    3.7791   10.6918    5.1678 C   0  0  0  0  0  0  0  0  0  0  0  0
    3.1050   10.9965    3.9846 C   0  0  0  0  0  0  0  0  0  0  0  0
    3.7620   10.8848    2.7663 C   0  0  0  0  0  0  0  0  0  0  0  0
    5.0915   10.4774    2.7238 C   0  0  0  0  0  0  0  0  0  0  0  0
   10.4123   10.0785    3.4530 C   0  0  0  0  0  0  0  0  0  0  0  0
   11.8967    9.6862    3.2904 C   0  0  0  0  0  0  0  0  0  0  0  0
   13.3412    6.8748    0.3575 H   0  0  0  0  0  0  0  0  0  0  0  0
   15.0600    7.0795    0.8460 H   0  0  0  0  0  0  0  0  0  0  0  0
   13.9272    6.1936    1.9310 H   0  0  0  0  0  0  0  0  0  0  0  0
   13.8472    9.0661    1.1041 H   0  0  0  0  0  0  0  0  0  0  0  0
   14.4394    8.2635    3.8342 H   0  0  0  0  0  0  0  0  0  0  0  0
   14.5690    9.8041    3.1044 H   0  0  0  0  0  0  0  0  0  0  0  0
   15.5964    8.5564    2.6293 H   0  0  0  0  0  0  0  0  0  0  0  0
   11.7549    8.9789    1.2687 H   0  0  0  0  0  0  0  0  0  0  0  0
   11.4801    6.5302    1.8427 H   0  0  0  0  0  0  0  0  0  0  0  0
   11.5022    7.0014    3.5710 H   0  0  0  0  0  0  0  0  0  0  0  0
    9.3960    7.4069    1.4357 H   0  0  0  0  0  0  0  0  0  0  0  0
    9.2216    7.1022    3.1855 H   0  0  0  0  0  0  0  0  0  0  0  0
    9.7131    9.5882    1.6698 H   0  0  0  0  0  0  0  0  0  0  0  0
    7.6559    9.5263    4.8324 H   0  0  0  0  0  0  0  0  0  0  0  0
    5.6153   10.0259    6.0630 H   0  0  0  0  0  0  0  0  0  0  0  0
    3.2672   10.7820    6.1172 H   0  0  0  0  0  0  0  0  0  0  0  0
    2.0739   11.3242    4.0170 H   0  0  0  0  0  0  0  0  0  0  0  0
    3.2415   11.1383    1.8510 H   0  0  0  0  0  0  0  0  0  0  0  0
    5.5040   10.4952    1.7386 H   0  0  0  0  0  0  0  0  0  0  0  0
   10.1475   10.0136    4.5305 H   0  0  0  0  0  0  0  0  0  0  0  0
   10.2671   11.1433    3.1573 H   0  0  0  0  0  0  0  0  0  0  0  0
   12.4562   10.6027    3.0029 H   0  0  0  0  0  0  0  0  0  0  0  0
   12.2889    9.3466    4.2742 H   0  0  0  0  0  0  0  0  0  0  0  0
  1  2  1  0
  2  3  1  0
  2  4  1  0
  4  5  1  0
  5  6  1  0
  6  7  1  0
  7  8  1  0
  8  9  2  0
  8 10  1  0
 10 11  1  0
 11 12  2  0
 12 13  1  0
 13 14  2  0
 14 15  1  0
 15 16  2  0
  7 17  1  0
 17 18  1  0
 18  4  1  0
 16 11  1  0
  1 19  1  0
  1 20  1  0
  1 21  1  0
  2 22  1  0
  3 23  1  0
  3 24  1  0
  3 25  1  0
  4 26  1  0
  5 27  1  0
  5 28  1  0
  6 29  1  0
  6 30  1  0
  7 31  1  0
 10 32  1  0
 12 33  1  0
 13 34  1  0
 14 35  1  0
 15 36  1  0
 16 37  1  0
 17 38  1  0
 17 39  1  0
 18 40  1  0
 18 41  1  0
M  CHG  1   3   1
M  END
>  <EmbedRMS>  (42) 
0.24964892458419108

$$$$

     RDKit          3D

 41 42  0  0  0  0  0  0  0  0999 V2000
   14.0155    7.0452    1.2243 C   0  0  0  0  0  0  0  0  0  0  0  0
   13.6577    8.3402    1.9340 C   0  0  0  0  0  0  0  0  0  0  0  0
   14.6213    8.7734    2.9399 N   0  0  0  0  0  4  0  0  0  0  0  0
   12.1479    8.5868    2.2358 C   0  0  0  0  0  0  0  0  0  0  0  0
   11.2708    7.3634    2.5450 C   0  0  0  0  0  0  0  0  0  0  0  0
    9.7738    7.7130    2.4384 C   0  0  0  0  0  0  0  0  0  0  0  0
    9.4545    9.1902    2.6817 C   0  0  0  0  0  0  0  0  0  0  0  0
    7.9930    9.5119    2.7236 C   0  0  0  0  0  0  0  0  0  0  0  0
    7.4746    9.6077    1.5899 O   0  0  0  0  0  0  0  0  0  0  0  0
    7.1920    9.7025    3.9130 N   0  0  0  0  0  0  0  0  0  0  0  0
    5.8002   10.1396    3.9098 C   0  0  0  0  0  0  0  0  0  0  0  0
    5.1136   10.2622    5.1332 C   0  0  0  0  0  0  0  0  0  0  0  0
    3.7791   10.6918    5.1678 C   0  0  0  0  0  0  0  0  0  0  0  0
    3.1050   10.9965    3.9846 C   0  0  0  0  0  0  0  0  0  0  0  0
    3.7620   10.8848    2.7663 C   0  0  0  0  0  0  0  0  0  0  0  0
    5.0915   10.4774    2.7238 C   0  0  0  0  0  0  0  0  0  0  0  0
   10.4123   10.0785    3.4530 C   0  0  0  0  0  0  0  0  0  0  0  0
   11.8967    9.6862    3.2904 C   0  0  0  0  0  0  0  0  0  0  0  0
   13.3412    6.8748    0.3575 H   0  0  0  0  0  0  0  0  0  0  0  0
   15.0600    7.0795    0.8460 H   0  0  0  0  0  0  0  0  0  0  0  0
   13.9272    6.1936    1.9310 H   0  0  0  0  0  0  0  0  0  0  0  0
   13.8472    9.0661    1.1041 H   0  0  0  0  0  0  0  0  0  0  0  0
   14.4394    8.2635    3.8342 H   0  0  0  0  0  0  0  0  0  0  0  0
   14.5690    9.8041    3.1044 H   0  0  0  0  0  0  0  0  0  0  0  0
   15.5964    8.5564    2.6293 H   0  0  0  0  0  0  0  0  0  0  0  0
   11.7549    8.9789    1.2687 H   0  0  0  0  0  0  0  0  0  0  0  0
   11.4801    6.5302    1.8427 H   0  0  0  0  0  0  0  0  0  0  0  0
   11.5022    7.0014    3.5710 H   0  0  0  0  0  0  0  0  0  0  0  0
    9.3960    7.4069    1.4357 H   0  0  0  0  0  0  0  0  0  0  0  0
    9.2216    7.1022    3.1855 H   0  0  0  0  0  0  0  0  0  0  0  0
    9.7131    9.5882    1.6698 H   0  0  0  0  0  0  0  0  0  0  0  0
    7.6559    9.5263    4.8324 H   0  0  0  0  0  0  0  0  0  0  0  0
    5.6153   10.0259    6.0630 H   0  0  0  0  0  0  0  0  0  0  0  0
    3.2672   10.7820    6.1172 H   0  0  0  0  0  0  0  0  0  0  0  0
    2.0739   11.3242    4.0170 H   0  0  0  0  0  0  0  0  0  0  0  0
    3.2415   11.1383    1.8510 H   0  0  0  0  0  0  0  0  0  0  0  0
    5.5040   10.4952    1.7386 H   0  0  0  0  0  0  0  0  0  0  0  0
   10.1475   10.0136    4.5305 H   0  0  0  0  0  0  0  0  0  0  0  0
   10.2671   11.1433    3.1573 H   0  0  0  0  0  0  0  0  0  0  0  0
   12.4562   10.6027    3.0029 H   0  0  0  0  0  0  0  0  0  0  0  0
   12.2889    9.3466    4.2742 H   0  0  0  0  0  0  0  0  0  0  0  0
  1  2  1  0
  2  3  1  0
  2  4  1  0
  4  5  1  0
  5  6  1  0
  6  7  1  0
  7  8  1  0
  8  9  2  0
  8 10  1  0
 10 11  1  0
 11 12  2  0
 12 13  1  0
 13 14  2  0
 14 15  1  0
 15 16  2  0
  7 17  1  0
 17 18  1  0
 18  4  1  0
 16 11  1  0
  1 19  1  0
  1 20  1  0
  1 21  1  0
  2 22  1  0
  3 23  1  0
  3 24  1  0
  3 25  1  0
  4 26  1  0
  5 27  1  0
  5 28  1  0
  6 29  1  0
  6 30  1  0
  7 31  1  0
 10 32  1  0
 12 33  1  0
 13 34  1  0
 14 35  1  0
 15 36  1  0
 16 37  1  0
 17 38  1  0
 17 39  1  0
 18 40  1  0
 18 41  1  0
M  CHG  1   3   1
M  END
>  <EmbedRMS>  (43) 
0.24964892458419108

$$$$

     RDKit          3D

 41 42  0  0  0  0  0  0  0  0999 V2000
   14.0155    7.0452    1.2243 C   0  0  0  0  0  0  0  0  0  0  0  0
   13.6577    8.3402    1.9340 C   0  0  0  0  0  0  0  0  0  0  0  0
   14.6213    8.7734    2.9399 N   0  0  0  0  0  4  0  0  0  0  0  0
   12.1479    8.5868    2.2358 C   0  0  0  0  0  0  0  0  0  0  0  0
   11.2708    7.3634    2.5450 C   0  0  0  0  0  0  0  0  0  0  0  0
    9.7738    7.7130    2.4384 C   0  0  0  0  0  0  0  0  0  0  0  0
    9.4545    9.1902    2.6817 C   0  0  0  0  0  0  0  0  0  0  0  0
    7.9930    9.5119    2.7236 C   0  0  0  0  0  0  0  0  0  0  0  0
    7.4746    9.6077    1.5899 O   0  0  0  0  0  0  0  0  0  0  0  0
    7.1920    9.7025    3.9130 N   0  0  0  0  0  0  0  0  0  0  0  0
    5.8002   10.1396    3.9098 C   0  0  0  0  0  0  0  0  0  0  0  0
    5.1136   10.2622    5.1332 C   0  0  0  0  0  0  0  0  0  0  0  0
    3.7791   10.6918    5.1678 C   0  0  0  0  0  0  0  0  0  0  0  0
    3.1050   10.9965    3.9846 C   0  0  0  0  0  0  0  0  0  0  0  0
    3.7620   10.8848    2.7663 C   0  0  0  0  0  0  0  0  0  0  0  0
    5.0915   10.4774    2.7238 C   0  0  0  0  0  0  0  0  0  0  0  0
   10.4123   10.0785    3.4530 C   0  0  0  0  0  0  0  0  0  0  0  0
   11.8967    9.6862    3.2904 C   0  0  0  0  0  0  0  0  0  0  0  0
   13.3412    6.8748    0.3575 H   0  0  0  0  0  0  0  0  0  0  0  0
   15.0600    7.0795    0.8460 H   0  0  0  0  0  0  0  0  0  0  0  0
   13.9272    6.1936    1.9310 H   0  0  0  0  0  0  0  0  0  0  0  0
   13.8472    9.0661    1.1041 H   0  0  0  0  0  0  0  0  0  0  0  0
   14.4394    8.2635    3.8342 H   0  0  0  0  0  0  0  0  0  0  0  0
   14.5690    9.8041    3.1044 H   0  0  0  0  0  0  0  0  0  0  0  0
   15.5964    8.5564    2.6293 H   0  0  0  0  0  0  0  0  0  0  0  0
   11.7549    8.9789    1.2687 H   0  0  0  0  0  0  0  0  0  0  0  0
   11.4801    6.5302    1.8427 H   0  0  0  0  0  0  0  0  0  0  0  0
   11.5022    7.0014    3.5710 H   0  0  0  0  0  0  0  0  0  0  0  0
    9.3960    7.4069    1.4357 H   0  0  0  0  0  0  0  0  0  0  0  0
    9.2216    7.1022    3.1855 H   0  0  0  0  0  0  0  0  0  0  0  0
    9.7131    9.5882    1.6698 H   0  0  0  0  0  0  0  0  0  0  0  0
    7.6559    9.5263    4.8324 H   0  0  0  0  0  0  0  0  0  0  0  0
    5.6153   10.0259    6.0630 H   0  0  0  0  0  0  0  0  0  0  0  0
    3.2672   10.7820    6.1172 H   0  0  0  0  0  0  0  0  0  0  0  0
    2.0739   11.3242    4.0170 H   0  0  0  0  0  0  0  0  0  0  0  0
    3.2415   11.1383    1.8510 H   0  0  0  0  0  0  0  0  0  0  0  0
    5.5040   10.4952    1.7386 H   0  0  0  0  0  0  0  0  0  0  0  0
   10.1475   10.0136    4.5305 H   0  0  0  0  0  0  0  0  0  0  0  0
   10.2671   11.1433    3.1573 H   0  0  0  0  0  0  0  0  0  0  0  0
   12.4562   10.6027    3.0029 H   0  0  0  0  0  0  0  0  0  0  0  0
   12.2889    9.3466    4.2742 H   0  0  0  0  0  0  0  0  0  0  0  0
  1  2  1  0
  2  3  1  0
  2  4  1  0
  4  5  1  0
  5  6  1  0
  6  7  1  0
  7  8  1  0
  8  9  2  0
  8 10  1  0
 10 11  1  0
 11 12  2  0
 12 13  1  0
 13 14  2  0
 14 15  1  0
 15 16  2  0
  7 17  1  0
 17 18  1  0
 18  4  1  0
 16 11  1  0
  1 19  1  0
  1 20  1  0
  1 21  1  0
  2 22  1  0
  3 23  1  0
  3 24  1  0
  3 25  1  0
  4 26  1  0
  5 27  1  0
  5 28  1  0
  6 29  1  0
  6 30  1  0
  7 31  1  0
 10 32  1  0
 12 33  1  0
 13 34  1  0
 14 35  1  0
 15 36  1  0
 16 37  1  0
 17 38  1  0
 17 39  1  0
 18 40  1  0
 18 41  1  0
M  CHG  1   3   1
M  END
>  <EmbedRMS>  (44) 
0.24964892458419108

$$$$

     RDKit          3D

 41 42  0  0  0  0  0  0  0  0999 V2000
   14.0109    7.0504    1.2530 C   0  0  0  0  0  0  0  0  0  0  0  0
   13.6001    8.3242    1.9897 C   0  0  0  0  0  0  0  0  0  0  0  0
   14.7019    8.8917    2.7696 N   0  0  0  0  0  4  0  0  0  0  0  0
   12.2605    8.3272    2.7670 C   0  0  0  0  0  0  0  0  0  0  0  0
   11.1785    7.4395    2.1347 C   0  0  0  0  0  0  0  0  0  0  0  0
    9.7431    7.7265    2.5438 C   0  0  0  0  0  0  0  0  0  0  0  0
    9.4480    9.2022    2.6348 C   0  0  0  0  0  0  0  0  0  0  0  0
    7.9855    9.5269    2.7212 C   0  0  0  0  0  0  0  0  0  0  0  0
    7.4160    9.6964    1.6166 O   0  0  0  0  0  0  0  0  0  0  0  0
    7.2200    9.6619    3.9307 N   0  0  0  0  0  0  0  0  0  0  0  0
    5.8087   10.0702    3.8756 C   0  0  0  0  0  0  0  0  0  0  0  0
    4.9486    8.9371    3.3964 C   0  0  0  0  0  0  0  0  0  0  0  0
    4.4548    8.7452    2.1230 C   0  0  0  0  0  0  0  0  0  0  0  0
    3.7772    7.5798    2.0873 N   0  0  0  0  0  0  0  0  0  0  0  0
    3.8798    7.0921    3.3428 C   0  0  0  0  0  0  0  0  0  0  0  0
    4.5889    7.8937    4.1582 N   0  0  0  0  0  0  0  0  0  0  0  0
   10.3837   10.0201    3.4813 C   0  0  0  0  0  0  0  0  0  0  0  0
   11.8482    9.7807    3.1209 C   0  0  0  0  0  0  0  0  0  0  0  0
   13.2670    6.7643    0.4814 H   0  0  0  0  0  0  0  0  0  0  0  0
   14.9826    7.1928    0.7336 H   0  0  0  0  0  0  0  0  0  0  0  0
   14.1165    6.2176    1.9796 H   0  0  0  0  0  0  0  0  0  0  0  0
   13.4361    9.0283    1.1408 H   0  0  0  0  0  0  0  0  0  0  0  0
   15.5914    8.8672    2.2198 H   0  0  0  0  0  0  0  0  0  0  0  0
   14.5195    9.8922    3.0077 H   0  0  0  0  0  0  0  0  0  0  0  0
   14.8374    8.3415    3.6486 H   0  0  0  0  0  0  0  0  0  0  0  0
   12.4676    7.8407    3.7469 H   0  0  0  0  0  0  0  0  0  0  0  0
   11.4048    6.3669    2.3242 H   0  0  0  0  0  0  0  0  0  0  0  0
   11.2125    7.5910    1.0336 H   0  0  0  0  0  0  0  0  0  0  0  0
    9.0527    7.2359    1.8211 H   0  0  0  0  0  0  0  0  0  0  0  0
    9.5596    7.2719    3.5418 H   0  0  0  0  0  0  0  0  0  0  0  0
    9.7204    9.5601    1.6109 H   0  0  0  0  0  0  0  0  0  0  0  0
    7.6822    9.5153    4.8558 H   0  0  0  0  0  0  0  0  0  0  0  0
    5.6911   10.9573    3.2159 H   0  0  0  0  0  0  0  0  0  0  0  0
    5.4737   10.3634    4.8934 H   0  0  0  0  0  0  0  0  0  0  0  0
    4.5840    9.4038    1.2744 H   0  0  0  0  0  0  0  0  0  0  0  0
    3.4435    6.1529    3.6564 H   0  0  0  0  0  0  0  0  0  0  0  0
    4.8181    7.7294    5.1636 H   0  0  0  0  0  0  0  0  0  0  0  0
   10.2295    9.7357    4.5450 H   0  0  0  0  0  0  0  0  0  0  0  0
   10.1466   11.1032    3.3848 H   0  0  0  0  0  0  0  0  0  0  0  0
   12.4688   10.1523    3.9652 H   0  0  0  0  0  0  0  0  0  0  0  0
   12.0645   10.4404    2.2517 H   0  0  0  0  0  0  0  0  0  0  0  0
  1  2  1  0
  2  3  1  0
  2  4  1  0
  4  5  1  0
  5  6  1  0
  6  7  1  0
  7  8  1  0
  8  9  2  0
  8 10  1  0
 10 11  1  0
 11 12  1  0
 12 13  2  0
 13 14  1  0
 14 15  2  0
 15 16  1  0
  7 17  1  0
 17 18  1  0
 18  4  1  0
 16 12  1  0
  1 19  1  0
  1 20  1  0
  1 21  1  0
  2 22  1  0
  3 23  1  0
  3 24  1  0
  3 25  1  0
  4 26  1  0
  5 27  1  0
  5 28  1  0
  6 29  1  0
  6 30  1  0
  7 31  1  0
 10 32  1  0
 11 33  1  0
 11 34  1  0
 13 35  1  0
 15 36  1  0
 16 37  1  0
 17 38  1  0
 17 39  1  0
 18 40  1  0
 18 41  1  0
M  CHG  1   3   1
M  END
>  <EmbedRMS>  (45) 
0.29359866989900446

$$$$

     RDKit          3D

 42 43  0  0  0  0  0  0  0  0999 V2000
   13.9330    7.3325    1.0256 C   0  0  0  0  0  0  0  0  0  0  0  0
   13.7106    7.9149    2.4295 C   0  0  0  0  0  0  0  0  0  0  0  0
   14.6488    9.0165    2.6728 N   0  0  0  0  0  4  0  0  0  0  0  0
   12.2335    8.2987    2.7956 C   0  0  0  0  0  0  0  0  0  0  0  0
   11.1476    7.3151    2.3199 C   0  0  0  0  0  0  0  0  0  0  0  0
    9.7858    7.9360    2.0712 C   0  0  0  0  0  0  0  0  0  0  0  0
    9.4225    8.9842    3.1156 C   0  0  0  0  0  0  0  0  0  0  0  0
    8.0148    9.4662    2.8718 C   0  0  0  0  0  0  0  0  0  0  0  0
    7.6102    9.6878    1.6948 O   0  0  0  0  0  0  0  0  0  0  0  0
    7.1468    9.6942    3.9816 N   0  0  0  0  0  0  0  0  0  0  0  0
    5.7747   10.1495    3.7934 C   0  0  0  0  0  0  0  0  0  0  0  0
    5.0988   10.2774    5.1198 C   0  0  0  0  0  0  0  0  0  0  0  0
    4.3766    9.2083    5.6642 C   0  0  0  0  0  0  0  0  0  0  0  0
    3.8165    9.3401    6.8944 N   0  0  0  0  0  0  0  0  0  0  0  0
    3.9555   10.4857    7.6119 C   0  0  0  0  0  0  0  0  0  0  0  0
    4.6940   11.5443    7.0800 C   0  0  0  0  0  0  0  0  0  0  0  0
    5.2544   11.4148    5.8496 N   0  0  0  0  0  0  0  0  0  0  0  0
   10.3943   10.1681    3.0614 C   0  0  0  0  0  0  0  0  0  0  0  0
   11.8863    9.7889    2.9949 C   0  0  0  0  0  0  0  0  0  0  0  0
   15.0174    7.2755    0.7913 H   0  0  0  0  0  0  0  0  0  0  0  0
   13.5378    6.2975    0.9560 H   0  0  0  0  0  0  0  0  0  0  0  0
   13.4418    7.9748    0.2642 H   0  0  0  0  0  0  0  0  0  0  0  0
   14.0079    7.0850    3.1154 H   0  0  0  0  0  0  0  0  0  0  0  0
   15.6320    8.6700    2.5840 H   0  0  0  0  0  0  0  0  0  0  0  0
   14.5095    9.7863    1.9794 H   0  0  0  0  0  0  0  0  0  0  0  0
   14.5408    9.3810    3.6465 H   0  0  0  0  0  0  0  0  0  0  0  0
   12.2371    8.0290    3.8802 H   0  0  0  0  0  0  0  0  0  0  0  0
   11.0314    6.4817    3.0516 H   0  0  0  0  0  0  0  0  0  0  0  0
   11.4320    6.8317    1.3668 H   0  0  0  0  0  0  0  0  0  0  0  0
    9.0206    7.1275    2.0619 H   0  0  0  0  0  0  0  0  0  0  0  0
    9.7911    8.4049    1.0607 H   0  0  0  0  0  0  0  0  0  0  0  0
    9.4832    8.5126    4.1221 H   0  0  0  0  0  0  0  0  0  0  0  0
    7.5143    9.5279    4.9470 H   0  0  0  0  0  0  0  0  0  0  0  0
    5.7787   11.1375    3.2841 H   0  0  0  0  0  0  0  0  0  0  0  0
    5.2258    9.4286    3.1487 H   0  0  0  0  0  0  0  0  0  0  0  0
    4.2596    8.2807    5.1187 H   0  0  0  0  0  0  0  0  0  0  0  0
    3.5021   10.5709    8.5904 H   0  0  0  0  0  0  0  0  0  0  0  0
    4.8237   12.4598    7.6415 H   0  0  0  0  0  0  0  0  0  0  0  0
   10.1542   10.7909    2.1692 H   0  0  0  0  0  0  0  0  0  0  0  0
   10.2194   10.8139    3.9505 H   0  0  0  0  0  0  0  0  0  0  0  0
   12.3155   10.3468    2.1357 H   0  0  0  0  0  0  0  0  0  0  0  0
   12.3921   10.1921    3.9021 H   0  0  0  0  0  0  0  0  0  0  0  0
  1  2  1  0
  2  3  1  0
  2  4  1  0
  4  5  1  0
  5  6  1  0
  6  7  1  0
  7  8  1  0
  8  9  2  0
  8 10  1  0
 10 11  1  0
 11 12  1  0
 12 13  2  0
 13 14  1  0
 14 15  2  0
 15 16  1  0
 16 17  2  0
  7 18  1  0
 18 19  1  0
 19  4  1  0
 17 12  1  0
  1 20  1  0
  1 21  1  0
  1 22  1  0
  2 23  1  0
  3 24  1  0
  3 25  1  0
  3 26  1  0
  4 27  1  0
  5 28  1  0
  5 29  1  0
  6 30  1  0
  6 31  1  0
  7 32  1  0
 10 33  1  0
 11 34  1  0
 11 35  1  0
 13 36  1  0
 15 37  1  0
 16 38  1  0
 18 39  1  0
 18 40  1  0
 19 41  1  0
 19 42  1  0
M  CHG  1   3   1
M  END
>  <EmbedRMS>  (46) 
0.15954075783698252

$$$$

     RDKit          3D

 44 45  0  0  0  0  0  0  0  0999 V2000
   13.9839    7.0986    1.1859 C   0  0  0  0  0  0  0  0  0  0  0  0
   13.5805    8.3573    1.9538 C   0  0  0  0  0  0  0  0  0  0  0  0
   14.7109    8.8841    2.7307 N   0  0  0  0  0  4  0  0  0  0  0  0
   12.2751    8.3221    2.7731 C   0  0  0  0  0  0  0  0  0  0  0  0
   11.1580    7.3128    2.3949 C   0  0  0  0  0  0  0  0  0  0  0  0
    9.7984    7.9226    2.0841 C   0  0  0  0  0  0  0  0  0  0  0  0
    9.4144    8.9888    3.1081 C   0  0  0  0  0  0  0  0  0  0  0  0
    8.0087    9.4688    2.8654 C   0  0  0  0  0  0  0  0  0  0  0  0
    7.6068    9.6884    1.6882 O   0  0  0  0  0  0  0  0  0  0  0  0
    7.1357    9.6903    3.9796 N   0  0  0  0  0  0  0  0  0  0  0  0
    5.7735   10.1841    3.8210 C   0  0  0  0  0  0  0  0  0  0  0  0
    5.7940   11.6487    3.5371 C   0  0  0  0  0  0  0  0  0  0  0  0
    5.6451   12.2639    2.3095 C   0  0  0  0  0  0  0  0  0  0  0  0
    5.7724   13.5950    2.4709 N   0  0  0  0  0  0  0  0  0  0  0  0
    6.0119   13.8216    3.7540 N   0  0  0  0  0  0  0  0  0  0  0  0
    6.1879   15.1475    4.3266 C   0  0  0  0  0  0  0  0  0  0  0  0
    6.0316   12.6636    4.4370 C   0  0  0  0  0  0  0  0  0  0  0  0
   10.3958   10.1516    3.0079 C   0  0  0  0  0  0  0  0  0  0  0  0
   11.8313    9.7200    3.3035 C   0  0  0  0  0  0  0  0  0  0  0  0
   15.0005    7.2114    0.7529 H   0  0  0  0  0  0  0  0  0  0  0  0
   13.9863    6.2216    1.8671 H   0  0  0  0  0  0  0  0  0  0  0  0
   13.2932    6.9111    0.3372 H   0  0  0  0  0  0  0  0  0  0  0  0
   13.3809    9.1010    1.1484 H   0  0  0  0  0  0  0  0  0  0  0  0
   14.9939    8.1902    3.4607 H   0  0  0  0  0  0  0  0  0  0  0  0
   15.5287    9.0534    2.1006 H   0  0  0  0  0  0  0  0  0  0  0  0
   14.4915    9.7903    3.1975 H   0  0  0  0  0  0  0  0  0  0  0  0
   12.6568    7.8404    3.7044 H   0  0  0  0  0  0  0  0  0  0  0  0
   11.4413    6.6843    1.5308 H   0  0  0  0  0  0  0  0  0  0  0  0
   11.0041    6.5965    3.2356 H   0  0  0  0  0  0  0  0  0  0  0  0
    9.0353    7.1124    2.0792 H   0  0  0  0  0  0  0  0  0  0  0  0
    9.8279    8.3625    1.0617 H   0  0  0  0  0  0  0  0  0  0  0  0
    9.4744    8.5458    4.1279 H   0  0  0  0  0  0  0  0  0  0  0  0
    7.4794    9.4927    4.9466 H   0  0  0  0  0  0  0  0  0  0  0  0
    5.2059   10.0091    4.7602 H   0  0  0  0  0  0  0  0  0  0  0  0
    5.2575    9.6320    3.0058 H   0  0  0  0  0  0  0  0  0  0  0  0
    5.4567   11.7772    1.3618 H   0  0  0  0  0  0  0  0  0  0  0  0
    7.0448   15.1443    5.0332 H   0  0  0  0  0  0  0  0  0  0  0  0
    5.2656   15.4435    4.8689 H   0  0  0  0  0  0  0  0  0  0  0  0
    6.3905   15.8875    3.5235 H   0  0  0  0  0  0  0  0  0  0  0  0
    6.2088   12.5665    5.5007 H   0  0  0  0  0  0  0  0  0  0  0  0
   10.1033   10.9533    3.7223 H   0  0  0  0  0  0  0  0  0  0  0  0
   10.3528   10.5881    1.9842 H   0  0  0  0  0  0  0  0  0  0  0  0
   11.9665    9.7515    4.4091 H   0  0  0  0  0  0  0  0  0  0  0  0
   12.4756   10.5267    2.8958 H   0  0  0  0  0  0  0  0  0  0  0  0
  1  2  1  0
  2  3  1  0
  2  4  1  0
  4  5  1  0
  5  6  1  0
  6  7  1  0
  7  8  1  0
  8  9  2  0
  8 10  1  0
 10 11  1  0
 11 12  1  0
 12 13  1  0
 13 14  2  0
 14 15  1  0
 15 16  1  0
 15 17  1  0
  7 18  1  0
 18 19  1  0
 19  4  1  0
 17 12  2  0
  1 20  1  0
  1 21  1  0
  1 22  1  0
  2 23  1  0
  3 24  1  0
  3 25  1  0
  3 26  1  0
  4 27  1  0
  5 28  1  0
  5 29  1  0
  6 30  1  0
  6 31  1  0
  7 32  1  0
 10 33  1  0
 11 34  1  0
 11 35  1  0
 13 36  1  0
 16 37  1  0
 16 38  1  0
 16 39  1  0
 17 40  1  0
 18 41  1  0
 18 42  1  0
 19 43  1  0
 19 44  1  0
M  CHG  1   3   1
M  END
>  <EmbedRMS>  (47) 
0.19659211194601114

$$$$

     RDKit          3D

 47 47  0  0  0  0  0  0  0  0999 V2000
    5.1047    7.8810    5.6812 C   0  0  0  0  0  0  0  0  0  0  0  0
    4.6304    7.9103    4.2600 C   0  0  0  0  0  0  0  0  0  0  0  0
    4.9029    8.9099    3.3923 C   0  0  0  0  0  0  0  0  0  0  0  0
    5.7359   10.1027    3.8260 C   0  0  0  0  0  0  0  0  0  0  0  0
    7.1361    9.7260    3.9838 N   0  0  0  0  0  0  0  0  0  0  0  0
    8.0073    9.4824    2.8742 C   0  0  0  0  0  0  0  0  0  0  0  0
    7.6108    9.6863    1.6926 O   0  0  0  0  0  0  0  0  0  0  0  0
    9.4049    8.9955    3.1351 C   0  0  0  0  0  0  0  0  0  0  0  0
    9.7687    7.8725    2.1577 C   0  0  0  0  0  0  0  0  0  0  0  0
   11.1779    7.3665    2.4361 C   0  0  0  0  0  0  0  0  0  0  0  0
   12.1983    8.5123    2.2741 C   0  0  0  0  0  0  0  0  0  0  0  0
   13.6480    7.9558    2.3995 C   0  0  0  0  0  0  0  0  0  0  0  0
   14.0473    7.2194    1.1054 C   0  0  0  0  0  0  0  0  0  0  0  0
   14.6275    9.0157    2.6716 N   0  0  0  0  0  4  0  0  0  0  0  0
   11.8564    9.6378    3.2819 C   0  0  0  0  0  0  0  0  0  0  0  0
   10.4211   10.1490    3.0672 C   0  0  0  0  0  0  0  0  0  0  0  0
    4.3801    8.8557    1.9938 C   0  0  0  0  0  0  0  0  0  0  0  0
    3.6085    7.6654    1.4884 C   0  0  0  0  0  0  0  0  0  0  0  0
    4.5738    9.8630    1.1999 N   0  0  0  0  0  0  0  0  0  0  0  0
    6.2122    7.8436    5.7191 H   0  0  0  0  0  0  0  0  0  0  0  0
    4.7307    8.7661    6.2363 H   0  0  0  0  0  0  0  0  0  0  0  0
    4.7149    6.9708    6.1834 H   0  0  0  0  0  0  0  0  0  0  0  0
    4.0275    7.0657    3.9564 H   0  0  0  0  0  0  0  0  0  0  0  0
    5.6631   10.9528    3.1163 H   0  0  0  0  0  0  0  0  0  0  0  0
    5.3487   10.4962    4.7898 H   0  0  0  0  0  0  0  0  0  0  0  0
    7.5301    9.6942    4.9512 H   0  0  0  0  0  0  0  0  0  0  0  0
    9.4385    8.5691    4.1634 H   0  0  0  0  0  0  0  0  0  0  0  0
    9.0531    7.0291    2.2772 H   0  0  0  0  0  0  0  0  0  0  0  0
    9.7061    8.2313    1.1058 H   0  0  0  0  0  0  0  0  0  0  0  0
   11.2320    6.9402    3.4628 H   0  0  0  0  0  0  0  0  0  0  0  0
   11.3793    6.5456    1.7197 H   0  0  0  0  0  0  0  0  0  0  0  0
   12.0860    8.9475    1.2542 H   0  0  0  0  0  0  0  0  0  0  0  0
   13.6894    7.2251    3.2396 H   0  0  0  0  0  0  0  0  0  0  0  0
   13.9778    7.8976    0.2282 H   0  0  0  0  0  0  0  0  0  0  0  0
   13.4155    6.3274    0.9274 H   0  0  0  0  0  0  0  0  0  0  0  0
   15.0944    6.8568    1.1819 H   0  0  0  0  0  0  0  0  0  0  0  0
   15.5990    8.6296    2.6311 H   0  0  0  0  0  0  0  0  0  0  0  0
   14.4947    9.3935    3.6372 H   0  0  0  0  0  0  0  0  0  0  0  0
   14.5422    9.7863    1.9689 H   0  0  0  0  0  0  0  0  0  0  0  0
   11.9717    9.2655    4.3239 H   0  0  0  0  0  0  0  0  0  0  0  0
   12.5357   10.5049    3.1425 H   0  0  0  0  0  0  0  0  0  0  0  0
   10.3553   10.6527    2.0770 H   0  0  0  0  0  0  0  0  0  0  0  0
   10.1832   10.9012    3.8509 H   0  0  0  0  0  0  0  0  0  0  0  0
    3.3606    7.7659    0.4104 H   0  0  0  0  0  0  0  0  0  0  0  0
    4.2147    6.7431    1.6095 H   0  0  0  0  0  0  0  0  0  0  0  0
    2.6570    7.5671    2.0517 H   0  0  0  0  0  0  0  0  0  0  0  0
    4.2238    9.8839    0.2159 H   0  0  0  0  0  0  0  0  0  0  0  0
  1  2  1  0
  2  3  2  3
  3  4  1  0
  4  5  1  0
  5  6  1  0
  6  7  2  0
  6  8  1  0
  8  9  1  0
  9 10  1  0
 10 11  1  0
 11 12  1  0
 12 13  1  0
 12 14  1  0
 11 15  1  0
 15 16  1  0
  3 17  1  0
 17 18  1  0
 17 19  2  3
 16  8  1  0
  1 20  1  0
  1 21  1  0
  1 22  1  0
  2 23  1  0
  4 24  1  0
  4 25  1  0
  5 26  1  0
  8 27  1  0
  9 28  1  0
  9 29  1  0
 10 30  1  0
 10 31  1  0
 11 32  1  0
 12 33  1  0
 13 34  1  0
 13 35  1  0
 13 36  1  0
 14 37  1  0
 14 38  1  0
 14 39  1  0
 15 40  1  0
 15 41  1  0
 16 42  1  0
 16 43  1  0
 18 44  1  0
 18 45  1  0
 18 46  1  0
 19 47  1  0
M  CHG  1  14   1
M  END
>  <EmbedRMS>  (48) 
0.029553590920788075

$$$$

     RDKit          3D

 41 42  0  0  0  0  0  0  0  0999 V2000
   14.0155    7.0452    1.2243 C   0  0  0  0  0  0  0  0  0  0  0  0
   13.6577    8.3402    1.9340 C   0  0  0  0  0  0  0  0  0  0  0  0
   14.6213    8.7734    2.9399 N   0  0  0  0  0  4  0  0  0  0  0  0
   12.1479    8.5868    2.2358 C   0  0  0  0  0  0  0  0  0  0  0  0
   11.2708    7.3634    2.5450 C   0  0  0  0  0  0  0  0  0  0  0  0
    9.7738    7.7130    2.4384 C   0  0  0  0  0  0  0  0  0  0  0  0
    9.4545    9.1902    2.6817 C   0  0  0  0  0  0  0  0  0  0  0  0
    7.9930    9.5119    2.7236 C   0  0  0  0  0  0  0  0  0  0  0  0
    7.4746    9.6077    1.5899 O   0  0  0  0  0  0  0  0  0  0  0  0
    7.1920    9.7025    3.9130 N   0  0  0  0  0  0  0  0  0  0  0  0
    5.8002   10.1396    3.9098 C   0  0  0  0  0  0  0  0  0  0  0  0
    5.1136   10.2622    5.1332 C   0  0  0  0  0  0  0  0  0  0  0  0
    3.7791   10.6918    5.1678 C   0  0  0  0  0  0  0  0  0  0  0  0
    3.1050   10.9965    3.9846 C   0  0  0  0  0  0  0  0  0  0  0  0
    3.7620   10.8848    2.7663 C   0  0  0  0  0  0  0  0  0  0  0  0
    5.0915   10.4774    2.7238 C   0  0  0  0  0  0  0  0  0  0  0  0
   10.4123   10.0785    3.4530 C   0  0  0  0  0  0  0  0  0  0  0  0
   11.8967    9.6862    3.2904 C   0  0  0  0  0  0  0  0  0  0  0  0
   13.3412    6.8748    0.3575 H   0  0  0  0  0  0  0  0  0  0  0  0
   15.0600    7.0795    0.8460 H   0  0  0  0  0  0  0  0  0  0  0  0
   13.9272    6.1936    1.9310 H   0  0  0  0  0  0  0  0  0  0  0  0
   13.8472    9.0661    1.1041 H   0  0  0  0  0  0  0  0  0  0  0  0
   14.4394    8.2635    3.8342 H   0  0  0  0  0  0  0  0  0  0  0  0
   14.5690    9.8041    3.1044 H   0  0  0  0  0  0  0  0  0  0  0  0
   15.5964    8.5564    2.6293 H   0  0  0  0  0  0  0  0  0  0  0  0
   11.7549    8.9789    1.2687 H   0  0  0  0  0  0  0  0  0  0  0  0
   11.4801    6.5302    1.8427 H   0  0  0  0  0  0  0  0  0  0  0  0
   11.5022    7.0014    3.5710 H   0  0  0  0  0  0  0  0  0  0  0  0
    9.3960    7.4069    1.4357 H   0  0  0  0  0  0  0  0  0  0  0  0
    9.2216    7.1022    3.1855 H   0  0  0  0  0  0  0  0  0  0  0  0
    9.7131    9.5882    1.6698 H   0  0  0  0  0  0  0  0  0  0  0  0
    7.6559    9.5263    4.8324 H   0  0  0  0  0  0  0  0  0  0  0  0
    5.6153   10.0259    6.0630 H   0  0  0  0  0  0  0  0  0  0  0  0
    3.2672   10.7820    6.1172 H   0  0  0  0  0  0  0  0  0  0  0  0
    2.0739   11.3242    4.0170 H   0  0  0  0  0  0  0  0  0  0  0  0
    3.2415   11.1383    1.8510 H   0  0  0  0  0  0  0  0  0  0  0  0
    5.5040   10.4952    1.7386 H   0  0  0  0  0  0  0  0  0  0  0  0
   10.1475   10.0136    4.5305 H   0  0  0  0  0  0  0  0  0  0  0  0
   10.2671   11.1433    3.1573 H   0  0  0  0  0  0  0  0  0  0  0  0
   12.4562   10.6027    3.0029 H   0  0  0  0  0  0  0  0  0  0  0  0
   12.2889    9.3466    4.2742 H   0  0  0  0  0  0  0  0  0  0  0  0
  1  2  1  0
  2  3  1  0
  2  4  1  0
  4  5  1  0
  5  6  1  0
  6  7  1  0
  7  8  1  0
  8  9  2  0
  8 10  1  0
 10 11  1  0
 11 12  2  0
 12 13  1  0
 13 14  2  0
 14 15  1  0
 15 16  2  0
  7 17  1  0
 17 18  1  0
 18  4  1  0
 16 11  1  0
  1 19  1  0
  1 20  1  0
  1 21  1  0
  2 22  1  0
  3 23  1  0
  3 24  1  0
  3 25  1  0
  4 26  1  0
  5 27  1  0
  5 28  1  0
  6 29  1  0
  6 30  1  0
  7 31  1  0
 10 32  1  0
 12 33  1  0
 13 34  1  0
 14 35  1  0
 15 36  1  0
 16 37  1  0
 17 38  1  0
 17 39  1  0
 18 40  1  0
 18 41  1  0
M  CHG  1   3   1
M  END
>  <EmbedRMS>  (49) 
0.24964892458419108

$$$$

     RDKit          3D

 40 40  0  0  0  0  0  0  0  0999 V2000
    5.5407   11.6180    3.6554 C   0  0  0  0  0  0  0  0  0  0  0  0
    5.8058   10.1638    3.3935 C   0  0  0  0  0  0  0  0  0  0  0  0
    4.7538    9.0949    3.4999 C   0  0  0  0  0  0  0  0  0  0  0  0
    7.1646    9.7213    3.7622 N   0  0  0  0  0  0  0  0  0  0  0  0
    8.0477    9.5200    2.6445 C   0  0  0  0  0  0  0  0  0  0  0  0
    7.5830    9.6174    1.4822 O   0  0  0  0  0  0  0  0  0  0  0  0
    9.4927    9.1844    2.6542 C   0  0  0  0  0  0  0  0  0  0  0  0
    9.7616    7.7064    2.5582 C   0  0  0  0  0  0  0  0  0  0  0  0
   11.1938    7.4035    2.1625 C   0  0  0  0  0  0  0  0  0  0  0  0
   12.2467    8.2884    2.8294 C   0  0  0  0  0  0  0  0  0  0  0  0
   13.7211    7.9200    2.4417 C   0  0  0  0  0  0  0  0  0  0  0  0
   13.9297    7.3296    1.0369 C   0  0  0  0  0  0  0  0  0  0  0  0
   14.6532    9.0282    2.6670 N   0  0  0  0  0  4  0  0  0  0  0  0
   11.8971    9.7807    3.0224 C   0  0  0  0  0  0  0  0  0  0  0  0
   10.4425   10.0439    3.4437 C   0  0  0  0  0  0  0  0  0  0  0  0
    5.5188   11.7897    4.7518 H   0  0  0  0  0  0  0  0  0  0  0  0
    4.5582   11.9308    3.2364 H   0  0  0  0  0  0  0  0  0  0  0  0
    6.3437   12.2510    3.2170 H   0  0  0  0  0  0  0  0  0  0  0  0
    5.7140   10.2669    2.2952 H   0  0  0  0  0  0  0  0  0  0  0  0
    5.0730    8.1743    2.9631 H   0  0  0  0  0  0  0  0  0  0  0  0
    4.6011    8.8424    4.5699 H   0  0  0  0  0  0  0  0  0  0  0  0
    3.7828    9.4433    3.0829 H   0  0  0  0  0  0  0  0  0  0  0  0
    7.4775    9.6222    4.7533 H   0  0  0  0  0  0  0  0  0  0  0  0
    9.8037    9.5074    1.6267 H   0  0  0  0  0  0  0  0  0  0  0  0
    9.0743    7.2236    1.8269 H   0  0  0  0  0  0  0  0  0  0  0  0
    9.5619    7.2532    3.5538 H   0  0  0  0  0  0  0  0  0  0  0  0
   11.2595    7.5502    1.0627 H   0  0  0  0  0  0  0  0  0  0  0  0
   11.4058    6.3313    2.3716 H   0  0  0  0  0  0  0  0  0  0  0  0
   12.1870    7.9396    3.8879 H   0  0  0  0  0  0  0  0  0  0  0  0
   14.0315    7.0958    3.1273 H   0  0  0  0  0  0  0  0  0  0  0  0
   13.5712    8.0448    0.2667 H   0  0  0  0  0  0  0  0  0  0  0  0
   15.0067    7.1259    0.8564 H   0  0  0  0  0  0  0  0  0  0  0  0
   13.3906    6.3656    0.9259 H   0  0  0  0  0  0  0  0  0  0  0  0
   15.6338    8.7137    2.4825 H   0  0  0  0  0  0  0  0  0  0  0  0
   14.6153    9.3357    3.6654 H   0  0  0  0  0  0  0  0  0  0  0  0
   14.4385    9.8295    2.0304 H   0  0  0  0  0  0  0  0  0  0  0  0
   12.5558   10.2477    3.7848 H   0  0  0  0  0  0  0  0  0  0  0  0
   12.0785   10.3039    2.0584 H   0  0  0  0  0  0  0  0  0  0  0  0
   10.2028   11.1216    3.3039 H   0  0  0  0  0  0  0  0  0  0  0  0
   10.3242    9.8024    4.5222 H   0  0  0  0  0  0  0  0  0  0  0  0
  1  2  1  0
  2  3  1  0
  2  4  1  0
  4  5  1  0
  5  6  2  0
  5  7  1  0
  7  8  1  0
  8  9  1  0
  9 10  1  0
 10 11  1  0
 11 12  1  0
 11 13  1  0
 10 14  1  0
 14 15  1  0
 15  7  1  0
  1 16  1  0
  1 17  1  0
  1 18  1  0
  2 19  1  0
  3 20  1  0
  3 21  1  0
  3 22  1  0
  4 23  1  0
  7 24  1  0
  8 25  1  0
  8 26  1  0
  9 27  1  0
  9 28  1  0
 10 29  1  0
 11 30  1  0
 12 31  1  0
 12 32  1  0
 12 33  1  0
 13 34  1  0
 13 35  1  0
 13 36  1  0
 14 37  1  0
 14 38  1  0
 15 39  1  0
 15 40  1  0
M  CHG  1  13   1
M  END
>  <EmbedRMS>  (50) 
0.35838126622633487

$$$$

     RDKit          3D

 44 45  0  0  0  0  0  0  0  0999 V2000
   14.0106    7.0506    1.2529 C   0  0  0  0  0  0  0  0  0  0  0  0
   13.6001    8.3244    1.9899 C   0  0  0  0  0  0  0  0  0  0  0  0
   14.7022    8.8917    2.7695 N   0  0  0  0  0  4  0  0  0  0  0  0
   12.2608    8.3275    2.7676 C   0  0  0  0  0  0  0  0  0  0  0  0
   11.1783    7.4408    2.1351 C   0  0  0  0  0  0  0  0  0  0  0  0
    9.7434    7.7273    2.5461 C   0  0  0  0  0  0  0  0  0  0  0  0
    9.4484    9.2031    2.6420 C   0  0  0  0  0  0  0  0  0  0  0  0
    7.9862    9.5293    2.7260 C   0  0  0  0  0  0  0  0  0  0  0  0
    7.4178    9.6826    1.6172 O   0  0  0  0  0  0  0  0  0  0  0  0
    7.2162    9.6914    3.9303 N   0  0  0  0  0  0  0  0  0  0  0  0
    5.8078   10.0987    3.8073 C   0  0  0  0  0  0  0  0  0  0  0  0
    5.1545   10.2653    5.1404 C   0  0  0  0  0  0  0  0  0  0  0  0
    4.4410    9.3005    5.8244 C   0  0  0  0  0  0  0  0  0  0  0  0
    4.0350    9.7900    7.0130 N   0  0  0  0  0  0  0  0  0  0  0  0
    4.4801   11.0584    7.1034 C   0  0  0  0  0  0  0  0  0  0  0  0
    5.1753   11.3772    5.9590 C   0  0  0  0  0  0  0  0  0  0  0  0
    5.8080   12.6293    5.6970 N   0  0  0  0  0  0  0  0  0  0  0  0
   10.3854   10.0205    3.4864 C   0  0  0  0  0  0  0  0  0  0  0  0
   11.8490    9.7810    3.1224 C   0  0  0  0  0  0  0  0  0  0  0  0
   14.9816    7.1933    0.7324 H   0  0  0  0  0  0  0  0  0  0  0  0
   14.1174    6.2180    1.9796 H   0  0  0  0  0  0  0  0  0  0  0  0
   13.2659    6.7641    0.4823 H   0  0  0  0  0  0  0  0  0  0  0  0
   13.4358    9.0286    1.1412 H   0  0  0  0  0  0  0  0  0  0  0  0
   14.8375    8.3418    3.6487 H   0  0  0  0  0  0  0  0  0  0  0  0
   15.5917    8.8666    2.2196 H   0  0  0  0  0  0  0  0  0  0  0  0
   14.5204    9.8924    3.0070 H   0  0  0  0  0  0  0  0  0  0  0  0
   12.4681    7.8404    3.7472 H   0  0  0  0  0  0  0  0  0  0  0  0
   11.2114    7.5939    1.0341 H   0  0  0  0  0  0  0  0  0  0  0  0
   11.4048    6.3678    2.3228 H   0  0  0  0  0  0  0  0  0  0  0  0
    9.5608    7.2701    3.5431 H   0  0  0  0  0  0  0  0  0  0  0  0
    9.0525    7.2387    1.8227 H   0  0  0  0  0  0  0  0  0  0  0  0
    9.7210    9.5625    1.6185 H   0  0  0  0  0  0  0  0  0  0  0  0
    7.6650    9.5507    4.8635 H   0  0  0  0  0  0  0  0  0  0  0  0
    5.7392   11.0509    3.2394 H   0  0  0  0  0  0  0  0  0  0  0  0
    5.2537    9.3260    3.2312 H   0  0  0  0  0  0  0  0  0  0  0  0
    4.2382    8.2945    5.4803 H   0  0  0  0  0  0  0  0  0  0  0  0
    3.4817    9.2775    7.7347 H   0  0  0  0  0  0  0  0  0  0  0  0
    4.3116   11.7073    7.9530 H   0  0  0  0  0  0  0  0  0  0  0  0
    6.3519   12.7920    4.8213 H   0  0  0  0  0  0  0  0  0  0  0  0
    6.3521   12.7924    4.8214 H   0  0  0  0  0  0  0  0  0  0  0  0
   10.1480   11.1037    3.3910 H   0  0  0  0  0  0  0  0  0  0  0  0
   10.2330    9.7357    4.5502 H   0  0  0  0  0  0  0  0  0  0  0  0
   12.4714   10.1526    3.9654 H   0  0  0  0  0  0  0  0  0  0  0  0
   12.0635   10.4407    2.2527 H   0  0  0  0  0  0  0  0  0  0  0  0
  1  2  1  0
  2  3  1  0
  2  4  1  0
  4  5  1  0
  5  6  1  0
  6  7  1  0
  7  8  1  0
  8  9  2  0
  8 10  1  0
 10 11  1  0
 11 12  1  0
 12 13  2  0
 13 14  1  0
 14 15  1  0
 15 16  2  0
 16 17  1  0
  7 18  1  0
 18 19  1  0
 19  4  1  0
 16 12  1  0
  1 20  1  0
  1 21  1  0
  1 22  1  0
  2 23  1  0
  3 24  1  0
  3 25  1  0
  3 26  1  0
  4 27  1  0
  5 28  1  0
  5 29  1  0
  6 30  1  0
  6 31  1  0
  7 32  1  0
 10 33  1  0
 11 34  1  0
 11 35  1  0
 13 36  1  0
 14 37  1  0
 15 38  1  0
 17 39  1  0
 17 40  1  0
 18 41  1  0
 18 42  1  0
 19 43  1  0
 19 44  1  0
M  CHG  1   3   1
M  END
>  <EmbedRMS>  (51) 
0.2848972241218716

$$$$

     RDKit          3D

 38 38  0  0  0  0  0  0  0  0999 V2000
   13.9838    7.0986    1.1854 C   0  0  0  0  0  0  0  0  0  0  0  0
   13.5808    8.3571    1.9537 C   0  0  0  0  0  0  0  0  0  0  0  0
   14.7116    8.8837    2.7302 N   0  0  0  0  0  4  0  0  0  0  0  0
   12.2760    8.3215    2.7737 C   0  0  0  0  0  0  0  0  0  0  0  0
   11.1588    7.3120    2.3967 C   0  0  0  0  0  0  0  0  0  0  0  0
    9.8002    7.9222    2.0840 C   0  0  0  0  0  0  0  0  0  0  0  0
    9.4158    8.9895    3.1070 C   0  0  0  0  0  0  0  0  0  0  0  0
    8.0116    9.4733    2.8596 C   0  0  0  0  0  0  0  0  0  0  0  0
    7.6272    9.6851    1.6778 O   0  0  0  0  0  0  0  0  0  0  0  0
    7.1398    9.6998    3.9789 N   0  0  0  0  0  0  0  0  0  0  0  0
    5.7848   10.1825    3.9275 C   0  0  0  0  0  0  0  0  0  0  0  0
    4.9516   10.3047    5.3328 S   0  0  0  0  0  0  0  0  0  0  0  0
    5.1684   10.7917    2.6941 C   0  0  0  0  0  0  0  0  0  0  0  0
    5.6286   12.1643    2.5055 N   0  0  0  0  0  0  0  0  0  0  0  0
   10.3982   10.1514    3.0075 C   0  0  0  0  0  0  0  0  0  0  0  0
   11.8325    9.7190    3.3050 C   0  0  0  0  0  0  0  0  0  0  0  0
   13.9872    6.2216    1.8666 H   0  0  0  0  0  0  0  0  0  0  0  0
   13.2922    6.9109    0.3374 H   0  0  0  0  0  0  0  0  0  0  0  0
   14.9999    7.2119    0.7513 H   0  0  0  0  0  0  0  0  0  0  0  0
   13.3806    9.1011    1.1486 H   0  0  0  0  0  0  0  0  0  0  0  0
   14.9950    8.1897    3.4598 H   0  0  0  0  0  0  0  0  0  0  0  0
   14.4928    9.7899    3.1974 H   0  0  0  0  0  0  0  0  0  0  0  0
   15.5291    9.0531    2.0997 H   0  0  0  0  0  0  0  0  0  0  0  0
   12.6587    7.8396    3.7046 H   0  0  0  0  0  0  0  0  0  0  0  0
   11.0038    6.5976    3.2387 H   0  0  0  0  0  0  0  0  0  0  0  0
   11.4424    6.6814    1.5341 H   0  0  0  0  0  0  0  0  0  0  0  0
    9.8319    8.3610    1.0611 H   0  0  0  0  0  0  0  0  0  0  0  0
    9.0365    7.1125    2.0788 H   0  0  0  0  0  0  0  0  0  0  0  0
    9.4758    8.5455    4.1263 H   0  0  0  0  0  0  0  0  0  0  0  0
    7.5193    9.4704    4.9255 H   0  0  0  0  0  0  0  0  0  0  0  0
    4.0614   10.8043    2.7990 H   0  0  0  0  0  0  0  0  0  0  0  0
    5.3576   10.1885    1.7869 H   0  0  0  0  0  0  0  0  0  0  0  0
    6.6706   12.1646    2.4161 H   0  0  0  0  0  0  0  0  0  0  0  0
    5.3838   12.7238    3.3551 H   0  0  0  0  0  0  0  0  0  0  0  0
   10.1057   10.9537    3.7212 H   0  0  0  0  0  0  0  0  0  0  0  0
   10.3572   10.5875    1.9835 H   0  0  0  0  0  0  0  0  0  0  0  0
   12.4778   10.5259    2.8994 H   0  0  0  0  0  0  0  0  0  0  0  0
   11.9657    9.7491    4.4109 H   0  0  0  0  0  0  0  0  0  0  0  0
  1  2  1  0
  2  3  1  0
  2  4  1  0
  4  5  1  0
  5  6  1  0
  6  7  1  0
  7  8  1  0
  8  9  2  0
  8 10  1  0
 10 11  1  0
 11 12  2  0
 11 13  1  0
 13 14  1  0
  7 15  1  0
 15 16  1  0
 16  4  1  0
  1 17  1  0
  1 18  1  0
  1 19  1  0
  2 20  1  0
  3 21  1  0
  3 22  1  0
  3 23  1  0
  4 24  1  0
  5 25  1  0
  5 26  1  0
  6 27  1  0
  6 28  1  0
  7 29  1  0
 10 30  1  0
 13 31  1  0
 13 32  1  0
 14 33  1  0
 14 34  1  0
 15 35  1  0
 15 36  1  0
 16 37  1  0
 16 38  1  0
M  CHG  1   3   1
M  END
>  <EmbedRMS>  (52) 
0.21492586170883154

$$$$

     RDKit          3D

 45 45  0  0  0  0  0  0  0  0999 V2000
    6.6426   12.2821    2.6516 C   0  0  0  0  0  0  0  0  0  0  0  0
    5.6157   11.5113    3.0196 C   0  0  0  0  0  0  0  0  0  0  0  0
    4.2139   11.9100    2.6324 C   0  0  0  0  0  0  0  0  0  0  0  0
    5.8597   10.3523    3.9284 C   0  0  0  0  0  0  0  0  0  0  0  0
    4.8899    9.9517    4.7721 C   0  0  0  0  0  0  0  0  0  0  0  0
    5.0638    8.8198    5.7367 C   0  0  0  0  0  0  0  0  0  0  0  0
    7.1587    9.7297    4.0017 N   0  0  0  0  0  0  0  0  0  0  0  0
    8.0094    9.4770    2.8770 C   0  0  0  0  0  0  0  0  0  0  0  0
    7.5925    9.6699    1.6995 O   0  0  0  0  0  0  0  0  0  0  0  0
    9.4190    8.9882    3.1140 C   0  0  0  0  0  0  0  0  0  0  0  0
    9.7814    7.9392    2.0698 C   0  0  0  0  0  0  0  0  0  0  0  0
   11.1442    7.3173    2.3173 C   0  0  0  0  0  0  0  0  0  0  0  0
   12.2312    8.2990    2.7947 C   0  0  0  0  0  0  0  0  0  0  0  0
   13.7088    7.9146    2.4295 C   0  0  0  0  0  0  0  0  0  0  0  0
   13.9319    7.3320    1.0257 C   0  0  0  0  0  0  0  0  0  0  0  0
   14.6475    9.0159    2.6730 N   0  0  0  0  0  4  0  0  0  0  0  0
   11.8850    9.7892    2.9963 C   0  0  0  0  0  0  0  0  0  0  0  0
   10.3931   10.1701    3.0593 C   0  0  0  0  0  0  0  0  0  0  0  0
    6.5060   13.1634    2.0375 H   0  0  0  0  0  0  0  0  0  0  0  0
    6.5060   13.1634    2.0375 H   0  0  0  0  0  0  0  0  0  0  0  0
    4.2031   12.4754    1.6757 H   0  0  0  0  0  0  0  0  0  0  0  0
    3.5836   11.0078    2.4847 H   0  0  0  0  0  0  0  0  0  0  0  0
    3.7720   12.5450    3.4286 H   0  0  0  0  0  0  0  0  0  0  0  0
    3.9254   10.4428    4.7786 H   0  0  0  0  0  0  0  0  0  0  0  0
    5.3803    7.9015    5.1981 H   0  0  0  0  0  0  0  0  0  0  0  0
    5.8159    9.0848    6.5090 H   0  0  0  0  0  0  0  0  0  0  0  0
    4.0999    8.6139    6.2477 H   0  0  0  0  0  0  0  0  0  0  0  0
    7.5134    9.4348    4.9389 H   0  0  0  0  0  0  0  0  0  0  0  0
    9.4838    8.5152    4.1195 H   0  0  0  0  0  0  0  0  0  0  0  0
    9.7856    8.4081    1.0593 H   0  0  0  0  0  0  0  0  0  0  0  0
    9.0155    7.1315    2.0616 H   0  0  0  0  0  0  0  0  0  0  0  0
   11.4284    6.8358    1.3632 H   0  0  0  0  0  0  0  0  0  0  0  0
   11.0277    6.4824    3.0472 H   0  0  0  0  0  0  0  0  0  0  0  0
   12.2338    8.0276    3.8788 H   0  0  0  0  0  0  0  0  0  0  0  0
   14.0054    7.0847    3.1155 H   0  0  0  0  0  0  0  0  0  0  0  0
   13.5346    6.2977    0.9557 H   0  0  0  0  0  0  0  0  0  0  0  0
   13.4427    7.9752    0.2638 H   0  0  0  0  0  0  0  0  0  0  0  0
   15.0164    7.2729    0.7928 H   0  0  0  0  0  0  0  0  0  0  0  0
   14.5093    9.7854    1.9790 H   0  0  0  0  0  0  0  0  0  0  0  0
   14.5387    9.3811    3.6464 H   0  0  0  0  0  0  0  0  0  0  0  0
   15.6306    8.6688    2.5853 H   0  0  0  0  0  0  0  0  0  0  0  0
   12.3172   10.3488    2.1397 H   0  0  0  0  0  0  0  0  0  0  0  0
   12.3886   10.1897    3.9059 H   0  0  0  0  0  0  0  0  0  0  0  0
   10.1546   10.7911    2.1654 H   0  0  0  0  0  0  0  0  0  0  0  0
   10.2174   10.8183    3.9465 H   0  0  0  0  0  0  0  0  0  0  0  0
  1  2  2  3
  2  3  1  0
  2  4  1  0
  4  5  2  3
  5  6  1  0
  4  7  1  0
  7  8  1  0
  8  9  2  0
  8 10  1  0
 10 11  1  0
 11 12  1  0
 12 13  1  0
 13 14  1  0
 14 15  1  0
 14 16  1  0
 13 17  1  0
 17 18  1  0
 18 10  1  0
  1 19  1  0
  1 20  1  0
  3 21  1  0
  3 22  1  0
  3 23  1  0
  5 24  1  0
  6 25  1  0
  6 26  1  0
  6 27  1  0
  7 28  1  0
 10 29  1  0
 11 30  1  0
 11 31  1  0
 12 32  1  0
 12 33  1  0
 13 34  1  0
 14 35  1  0
 15 36  1  0
 15 37  1  0
 15 38  1  0
 16 39  1  0
 16 40  1  0
 16 41  1  0
 17 42  1  0
 17 43  1  0
 18 44  1  0
 18 45  1  0
M  CHG  1  16   1
M  END
>  <EmbedRMS>  (53) 
0.16480955270904202

$$$$

     RDKit          3D

 41 41  0  0  0  0  0  0  0  0999 V2000
   14.0128    7.0451    1.2246 C   0  0  0  0  0  0  0  0  0  0  0  0
   13.6534    8.3401    1.9332 C   0  0  0  0  0  0  0  0  0  0  0  0
   14.6165    8.7744    2.9395 N   0  0  0  0  0  4  0  0  0  0  0  0
   12.1420    8.5872    2.2327 C   0  0  0  0  0  0  0  0  0  0  0  0
   11.2631    7.3648    2.5405 C   0  0  0  0  0  0  0  0  0  0  0  0
    9.7641    7.7145    2.4333 C   0  0  0  0  0  0  0  0  0  0  0  0
    9.4407    9.1935    2.6636 C   0  0  0  0  0  0  0  0  0  0  0  0
    7.9759    9.5184    2.7373 C   0  0  0  0  0  0  0  0  0  0  0  0
    7.4055    9.6789    1.6302 O   0  0  0  0  0  0  0  0  0  0  0  0
    7.2040    9.6832    3.9346 N   0  0  0  0  0  0  0  0  0  0  0  0
    5.8641   10.1055    3.8043 N   0  0  0  0  0  0  0  0  0  0  0  0
    5.0841   10.3002    4.8217 C   0  0  0  0  0  0  0  0  0  0  0  0
    3.7250   10.7402    4.6402 N   0  0  0  0  0  0  0  0  0  0  0  0
    3.1736   10.9931    3.3107 C   0  0  0  0  0  0  0  0  0  0  0  0
    2.9039   10.9373    5.7626 N   0  0  0  0  0  0  0  0  0  0  0  0
   10.4042   10.0821    3.4346 C   0  0  0  0  0  0  0  0  0  0  0  0
   11.8889    9.6848    3.2863 C   0  0  0  0  0  0  0  0  0  0  0  0
   13.3395    6.8740    0.3571 H   0  0  0  0  0  0  0  0  0  0  0  0
   13.9237    6.1938    1.9316 H   0  0  0  0  0  0  0  0  0  0  0  0
   15.0578    7.0796    0.8475 H   0  0  0  0  0  0  0  0  0  0  0  0
   13.8429    9.0655    1.1030 H   0  0  0  0  0  0  0  0  0  0  0  0
   14.5651    9.8056    3.1016 H   0  0  0  0  0  0  0  0  0  0  0  0
   15.5918    8.5556    2.6309 H   0  0  0  0  0  0  0  0  0  0  0  0
   14.4325    8.2671    3.8348 H   0  0  0  0  0  0  0  0  0  0  0  0
   11.7481    8.9809    1.2663 H   0  0  0  0  0  0  0  0  0  0  0  0
   11.4729    6.5322    1.8376 H   0  0  0  0  0  0  0  0  0  0  0  0
   11.4938    7.0013    3.5661 H   0  0  0  0  0  0  0  0  0  0  0  0
    9.2137    7.1097    3.1865 H   0  0  0  0  0  0  0  0  0  0  0  0
    9.3838    7.3994    1.4344 H   0  0  0  0  0  0  0  0  0  0  0  0
    9.6779    9.5856    1.6451 H   0  0  0  0  0  0  0  0  0  0  0  0
    7.6358    9.5215    4.8725 H   0  0  0  0  0  0  0  0  0  0  0  0
    5.4574   10.1340    5.8255 H   0  0  0  0  0  0  0  0  0  0  0  0
    3.7613   11.7883    2.8055 H   0  0  0  0  0  0  0  0  0  0  0  0
    3.2128   10.0634    2.7049 H   0  0  0  0  0  0  0  0  0  0  0  0
    2.1160   11.3250    3.3845 H   0  0  0  0  0  0  0  0  0  0  0  0
    2.8597   10.0339    6.2873 H   0  0  0  0  0  0  0  0  0  0  0  0
    3.3700   11.6423    6.3784 H   0  0  0  0  0  0  0  0  0  0  0  0
   10.1334   10.0287    4.5113 H   0  0  0  0  0  0  0  0  0  0  0  0
   10.2657   11.1447    3.1286 H   0  0  0  0  0  0  0  0  0  0  0  0
   12.2714    9.3416    4.2727 H   0  0  0  0  0  0  0  0  0  0  0  0
   12.4541   10.5996    3.0053 H   0  0  0  0  0  0  0  0  0  0  0  0
  1  2  1  0
  2  3  1  0
  2  4  1  0
  4  5  1  0
  5  6  1  0
  6  7  1  0
  7  8  1  0
  8  9  2  0
  8 10  1  0
 10 11  1  0
 11 12  2  3
 12 13  1  0
 13 14  1  0
 13 15  1  0
  7 16  1  0
 16 17  1  0
 17  4  1  0
  1 18  1  0
  1 19  1  0
  1 20  1  0
  2 21  1  0
  3 22  1  0
  3 23  1  0
  3 24  1  0
  4 25  1  0
  5 26  1  0
  5 27  1  0
  6 28  1  0
  6 29  1  0
  7 30  1  0
 10 31  1  0
 12 32  1  0
 14 33  1  0
 14 34  1  0
 14 35  1  0
 15 36  1  0
 15 37  1  0
 16 38  1  0
 16 39  1  0
 17 40  1  0
 17 41  1  0
M  CHG  1   3   1
M  END
>  <EmbedRMS>  (54) 
0.2570984896337683

$$$$

     RDKit          3D

 39 40  0  0  0  0  0  0  0  0999 V2000
   14.0494    7.2192    1.1050 C   0  0  0  0  0  0  0  0  0  0  0  0
   13.6505    7.9554    2.3992 C   0  0  0  0  0  0  0  0  0  0  0  0
   14.6296    9.0156    2.6713 N   0  0  0  0  0  4  0  0  0  0  0  0
   12.2012    8.5116    2.2739 C   0  0  0  0  0  0  0  0  0  0  0  0
   11.1818    7.3650    2.4357 C   0  0  0  0  0  0  0  0  0  0  0  0
    9.7737    7.8706    2.1562 C   0  0  0  0  0  0  0  0  0  0  0  0
    9.4113    8.9931    3.1338 C   0  0  0  0  0  0  0  0  0  0  0  0
    8.0164    9.4805    2.8700 C   0  0  0  0  0  0  0  0  0  0  0  0
    7.6346    9.6877    1.6856 O   0  0  0  0  0  0  0  0  0  0  0  0
    7.1418    9.7077    3.9825 N   0  0  0  0  0  0  0  0  0  0  0  0
    5.7792   10.1394    3.8998 C   0  0  0  0  0  0  0  0  0  0  0  0
    5.0647   10.4417    2.7517 C   0  0  0  0  0  0  0  0  0  0  0  0
    3.8097   10.8171    3.1813 C   0  0  0  0  0  0  0  0  0  0  0  0
    3.8131   10.7275    4.5588 C   0  0  0  0  0  0  0  0  0  0  0  0
    5.0153   10.3140    4.9921 N   0  0  0  0  0  0  0  0  0  0  0  0
   10.4251   10.1479    3.0666 C   0  0  0  0  0  0  0  0  0  0  0  0
   11.8597    9.6372    3.2818 C   0  0  0  0  0  0  0  0  0  0  0  0
   13.4188    6.3264    0.9275 H   0  0  0  0  0  0  0  0  0  0  0  0
   15.0969    6.8578    1.1808 H   0  0  0  0  0  0  0  0  0  0  0  0
   13.9787    7.8972    0.2276 H   0  0  0  0  0  0  0  0  0  0  0  0
   13.6922    7.2247    3.2393 H   0  0  0  0  0  0  0  0  0  0  0  0
   14.4972    9.3930    3.6371 H   0  0  0  0  0  0  0  0  0  0  0  0
   15.6011    8.6298    2.6302 H   0  0  0  0  0  0  0  0  0  0  0  0
   14.5439    9.7863    1.9688 H   0  0  0  0  0  0  0  0  0  0  0  0
   12.0890    8.9469    1.2540 H   0  0  0  0  0  0  0  0  0  0  0  0
   11.2356    6.9389    3.4625 H   0  0  0  0  0  0  0  0  0  0  0  0
   11.3838    6.5440    1.7195 H   0  0  0  0  0  0  0  0  0  0  0  0
    9.0583    7.0271    2.2753 H   0  0  0  0  0  0  0  0  0  0  0  0
    9.7126    8.2290    1.1040 H   0  0  0  0  0  0  0  0  0  0  0  0
    9.4479    8.5654    4.1613 H   0  0  0  0  0  0  0  0  0  0  0  0
    7.5215    9.5475    4.9428 H   0  0  0  0  0  0  0  0  0  0  0  0
    5.3814   10.4091    1.7210 H   0  0  0  0  0  0  0  0  0  0  0  0
    2.9806   11.1242    2.5580 H   0  0  0  0  0  0  0  0  0  0  0  0
    2.9783   10.9546    5.2088 H   0  0  0  0  0  0  0  0  0  0  0  0
    5.2972   10.1622    5.9861 H   0  0  0  0  0  0  0  0  0  0  0  0
   10.1864   10.8995    3.8506 H   0  0  0  0  0  0  0  0  0  0  0  0
   10.3598   10.6519    2.0764 H   0  0  0  0  0  0  0  0  0  0  0  0
   12.5389   10.5044    3.1423 H   0  0  0  0  0  0  0  0  0  0  0  0
   11.9749    9.2649    4.3238 H   0  0  0  0  0  0  0  0  0  0  0  0
  1  2  1  0
  2  3  1  0
  2  4  1  0
  4  5  1  0
  5  6  1  0
  6  7  1  0
  7  8  1  0
  8  9  2  0
  8 10  1  0
 10 11  1  0
 11 12  2  0
 12 13  1  0
 13 14  2  0
 14 15  1  0
  7 16  1  0
 16 17  1  0
 17  4  1  0
 15 11  1  0
  1 18  1  0
  1 19  1  0
  1 20  1  0
  2 21  1  0
  3 22  1  0
  3 23  1  0
  3 24  1  0
  4 25  1  0
  5 26  1  0
  5 27  1  0
  6 28  1  0
  6 29  1  0
  7 30  1  0
 10 31  1  0
 12 32  1  0
 13 33  1  0
 14 34  1  0
 15 35  1  0
 16 36  1  0
 16 37  1  0
 17 38  1  0
 17 39  1  0
M  CHG  1   3   1
M  END
>  <EmbedRMS>  (55) 
0.03061905892919758

$$$$

     RDKit          3D

 41 42  0  0  0  0  0  0  0  0999 V2000
   14.0155    7.0452    1.2243 C   0  0  0  0  0  0  0  0  0  0  0  0
   13.6577    8.3402    1.9340 C   0  0  0  0  0  0  0  0  0  0  0  0
   14.6213    8.7734    2.9399 N   0  0  0  0  0  4  0  0  0  0  0  0
   12.1479    8.5868    2.2358 C   0  0  0  0  0  0  0  0  0  0  0  0
   11.2708    7.3634    2.5450 C   0  0  0  0  0  0  0  0  0  0  0  0
    9.7738    7.7130    2.4384 C   0  0  0  0  0  0  0  0  0  0  0  0
    9.4545    9.1902    2.6817 C   0  0  0  0  0  0  0  0  0  0  0  0
    7.9930    9.5119    2.7236 C   0  0  0  0  0  0  0  0  0  0  0  0
    7.4746    9.6077    1.5899 O   0  0  0  0  0  0  0  0  0  0  0  0
    7.1920    9.7025    3.9130 N   0  0  0  0  0  0  0  0  0  0  0  0
    5.8002   10.1396    3.9098 C   0  0  0  0  0  0  0  0  0  0  0  0
    5.1136   10.2622    5.1332 C   0  0  0  0  0  0  0  0  0  0  0  0
    3.7791   10.6918    5.1678 C   0  0  0  0  0  0  0  0  0  0  0  0
    3.1050   10.9965    3.9846 C   0  0  0  0  0  0  0  0  0  0  0  0
    3.7620   10.8848    2.7663 C   0  0  0  0  0  0  0  0  0  0  0  0
    5.0915   10.4774    2.7238 C   0  0  0  0  0  0  0  0  0  0  0  0
   10.4123   10.0785    3.4530 C   0  0  0  0  0  0  0  0  0  0  0  0
   11.8967    9.6862    3.2904 C   0  0  0  0  0  0  0  0  0  0  0  0
   13.3412    6.8748    0.3575 H   0  0  0  0  0  0  0  0  0  0  0  0
   15.0600    7.0795    0.8460 H   0  0  0  0  0  0  0  0  0  0  0  0
   13.9272    6.1936    1.9310 H   0  0  0  0  0  0  0  0  0  0  0  0
   13.8472    9.0661    1.1041 H   0  0  0  0  0  0  0  0  0  0  0  0
   14.4394    8.2635    3.8342 H   0  0  0  0  0  0  0  0  0  0  0  0
   14.5690    9.8041    3.1044 H   0  0  0  0  0  0  0  0  0  0  0  0
   15.5964    8.5564    2.6293 H   0  0  0  0  0  0  0  0  0  0  0  0
   11.7549    8.9789    1.2687 H   0  0  0  0  0  0  0  0  0  0  0  0
   11.4801    6.5302    1.8427 H   0  0  0  0  0  0  0  0  0  0  0  0
   11.5022    7.0014    3.5710 H   0  0  0  0  0  0  0  0  0  0  0  0
    9.3960    7.4069    1.4357 H   0  0  0  0  0  0  0  0  0  0  0  0
    9.2216    7.1022    3.1855 H   0  0  0  0  0  0  0  0  0  0  0  0
    9.7131    9.5882    1.6698 H   0  0  0  0  0  0  0  0  0  0  0  0
    7.6559    9.5263    4.8324 H   0  0  0  0  0  0  0  0  0  0  0  0
    5.6153   10.0259    6.0630 H   0  0  0  0  0  0  0  0  0  0  0  0
    3.2672   10.7820    6.1172 H   0  0  0  0  0  0  0  0  0  0  0  0
    2.0739   11.3242    4.0170 H   0  0  0  0  0  0  0  0  0  0  0  0
    3.2415   11.1383    1.8510 H   0  0  0  0  0  0  0  0  0  0  0  0
    5.5040   10.4952    1.7386 H   0  0  0  0  0  0  0  0  0  0  0  0
   10.1475   10.0136    4.5305 H   0  0  0  0  0  0  0  0  0  0  0  0
   10.2671   11.1433    3.1573 H   0  0  0  0  0  0  0  0  0  0  0  0
   12.4562   10.6027    3.0029 H   0  0  0  0  0  0  0  0  0  0  0  0
   12.2889    9.3466    4.2742 H   0  0  0  0  0  0  0  0  0  0  0  0
  1  2  1  0
  2  3  1  0
  2  4  1  0
  4  5  1  0
  5  6  1  0
  6  7  1  0
  7  8  1  0
  8  9  2  0
  8 10  1  0
 10 11  1  0
 11 12  2  0
 12 13  1  0
 13 14  2  0
 14 15  1  0
 15 16  2  0
  7 17  1  0
 17 18  1  0
 18  4  1  0
 16 11  1  0
  1 19  1  0
  1 20  1  0
  1 21  1  0
  2 22  1  0
  3 23  1  0
  3 24  1  0
  3 25  1  0
  4 26  1  0
  5 27  1  0
  5 28  1  0
  6 29  1  0
  6 30  1  0
  7 31  1  0
 10 32  1  0
 12 33  1  0
 13 34  1  0
 14 35  1  0
 15 36  1  0
 16 37  1  0
 17 38  1  0
 17 39  1  0
 18 40  1  0
 18 41  1  0
M  CHG  1   3   1
M  END
>  <EmbedRMS>  (56) 
0.24964892458419108

$$$$

     RDKit          3D

 42 42  0  0  0  0  0  0  0  0999 V2000
   14.0109    7.0504    1.2530 C   0  0  0  0  0  0  0  0  0  0  0  0
   13.6001    8.3242    1.9897 C   0  0  0  0  0  0  0  0  0  0  0  0
   14.7020    8.8917    2.7695 N   0  0  0  0  0  4  0  0  0  0  0  0
   12.2606    8.3273    2.7671 C   0  0  0  0  0  0  0  0  0  0  0  0
   11.1785    7.4396    2.1351 C   0  0  0  0  0  0  0  0  0  0  0  0
    9.7433    7.7270    2.5441 C   0  0  0  0  0  0  0  0  0  0  0  0
    9.4488    9.2029    2.6350 C   0  0  0  0  0  0  0  0  0  0  0  0
    7.9865    9.5275    2.7193 C   0  0  0  0  0  0  0  0  0  0  0  0
    7.4179    9.6876    1.6137 O   0  0  0  0  0  0  0  0  0  0  0  0
    7.2225    9.6776    3.9273 N   0  0  0  0  0  0  0  0  0  0  0  0
    5.8093   10.0840    3.8719 C   0  0  0  0  0  0  0  0  0  0  0  0
    4.9333    8.9484    3.3673 C   0  0  0  0  0  0  0  0  0  0  0  0
    4.3119    8.9957    2.1755 C   0  0  0  0  0  0  0  0  0  0  0  0
    4.4000   10.3568    1.0648 Cl  0  0  0  0  0  0  0  0  0  0  0  0
    4.7483    7.7773    4.1838 N   0  0  0  0  0  0  0  0  0  0  0  0
    5.3070    7.6521    5.4660 N   0  0  0  0  0  0  0  0  0  0  0  0
   10.3843   10.0203    3.4819 C   0  0  0  0  0  0  0  0  0  0  0  0
   11.8486    9.7809    3.1211 C   0  0  0  0  0  0  0  0  0  0  0  0
   13.2667    6.7639    0.4819 H   0  0  0  0  0  0  0  0  0  0  0  0
   14.9823    7.1928    0.7332 H   0  0  0  0  0  0  0  0  0  0  0  0
   14.1171    6.2177    1.9797 H   0  0  0  0  0  0  0  0  0  0  0  0
   13.4360    9.0282    1.1408 H   0  0  0  0  0  0  0  0  0  0  0  0
   14.5198    9.8924    3.0072 H   0  0  0  0  0  0  0  0  0  0  0  0
   15.5916    8.8669    2.2198 H   0  0  0  0  0  0  0  0  0  0  0  0
   14.8373    8.3418    3.6487 H   0  0  0  0  0  0  0  0  0  0  0  0
   12.4679    7.8408    3.7471 H   0  0  0  0  0  0  0  0  0  0  0  0
   11.4046    6.3669    2.3249 H   0  0  0  0  0  0  0  0  0  0  0  0
   11.2125    7.5908    1.0340 H   0  0  0  0  0  0  0  0  0  0  0  0
    9.0529    7.2366    1.8214 H   0  0  0  0  0  0  0  0  0  0  0  0
    9.5594    7.2726    3.5422 H   0  0  0  0  0  0  0  0  0  0  0  0
    9.7222    9.5609    1.6113 H   0  0  0  0  0  0  0  0  0  0  0  0
    7.7005    9.5889    4.8516 H   0  0  0  0  0  0  0  0  0  0  0  0
    5.7159   11.0053    3.2613 H   0  0  0  0  0  0  0  0  0  0  0  0
    5.4735   10.3727    4.8892 H   0  0  0  0  0  0  0  0  0  0  0  0
    3.6998    8.1610    1.8579 H   0  0  0  0  0  0  0  0  0  0  0  0
    4.1575    6.9888    3.8351 H   0  0  0  0  0  0  0  0  0  0  0  0
    4.9824    8.4552    6.0499 H   0  0  0  0  0  0  0  0  0  0  0  0
    6.3465    7.6825    5.3774 H   0  0  0  0  0  0  0  0  0  0  0  0
   10.1472   11.1036    3.3860 H   0  0  0  0  0  0  0  0  0  0  0  0
   10.2305    9.7354    4.5455 H   0  0  0  0  0  0  0  0  0  0  0  0
   12.4695   10.1523    3.9654 H   0  0  0  0  0  0  0  0  0  0  0  0
   12.0649   10.4406    2.2519 H   0  0  0  0  0  0  0  0  0  0  0  0
  1  2  1  0
  2  3  1  0
  2  4  1  0
  4  5  1  0
  5  6  1  0
  6  7  1  0
  7  8  1  0
  8  9  2  0
  8 10  1  0
 10 11  1  0
 11 12  1  0
 12 13  2  3
 13 14  1  0
 12 15  1  0
 15 16  1  0
  7 17  1  0
 17 18  1  0
 18  4  1  0
  1 19  1  0
  1 20  1  0
  1 21  1  0
  2 22  1  0
  3 23  1  0
  3 24  1  0
  3 25  1  0
  4 26  1  0
  5 27  1  0
  5 28  1  0
  6 29  1  0
  6 30  1  0
  7 31  1  0
 10 32  1  0
 11 33  1  0
 11 34  1  0
 13 35  1  0
 15 36  1  0
 16 37  1  0
 16 38  1  0
 17 39  1  0
 17 40  1  0
 18 41  1  0
 18 42  1  0
M  CHG  1   3   1
M  END
>  <EmbedRMS>  (57) 
0.2935962045462699

$$$$

     RDKit          3D

 39 40  0  0  0  0  0  0  0  0999 V2000
   14.0110    7.0511    1.2526 C   0  0  0  0  0  0  0  0  0  0  0  0
   13.6007    8.3248    1.9901 C   0  0  0  0  0  0  0  0  0  0  0  0
   14.7033    8.8921    2.7690 N   0  0  0  0  0  4  0  0  0  0  0  0
   12.2625    8.3270    2.7691 C   0  0  0  0  0  0  0  0  0  0  0  0
   11.1802    7.4398    2.1370 C   0  0  0  0  0  0  0  0  0  0  0  0
    9.7464    7.7250    2.5506 C   0  0  0  0  0  0  0  0  0  0  0  0
    9.4528    9.2006    2.6508 C   0  0  0  0  0  0  0  0  0  0  0  0
    7.9907    9.5272    2.7197 C   0  0  0  0  0  0  0  0  0  0  0  0
    7.4511    9.6605    1.5982 O   0  0  0  0  0  0  0  0  0  0  0  0
    7.2032    9.6917    3.9188 N   0  0  0  0  0  0  0  0  0  0  0  0
    5.8190   10.1244    3.8864 C   0  0  0  0  0  0  0  0  0  0  0  0
    5.0492   10.4501    2.7707 C   0  0  0  0  0  0  0  0  0  0  0  0
    3.8118   10.8137    3.2504 C   0  0  0  0  0  0  0  0  0  0  0  0
    3.7917   10.7296    4.5924 N   0  0  0  0  0  0  0  0  0  0  0  0
    5.0092   10.3116    4.9903 C   0  0  0  0  0  0  0  0  0  0  0  0
   10.3879   10.0193    3.4937 C   0  0  0  0  0  0  0  0  0  0  0  0
   11.8511    9.7804    3.1265 C   0  0  0  0  0  0  0  0  0  0  0  0
   13.2659    6.7648    0.4822 H   0  0  0  0  0  0  0  0  0  0  0  0
   14.9817    7.1940    0.7316 H   0  0  0  0  0  0  0  0  0  0  0  0
   14.1182    6.2183    1.9789 H   0  0  0  0  0  0  0  0  0  0  0  0
   13.4353    9.0292    1.1418 H   0  0  0  0  0  0  0  0  0  0  0  0
   14.5218    9.8930    3.0061 H   0  0  0  0  0  0  0  0  0  0  0  0
   15.5925    8.8665    2.2188 H   0  0  0  0  0  0  0  0  0  0  0  0
   14.8389    8.3426    3.6484 H   0  0  0  0  0  0  0  0  0  0  0  0
   12.4711    7.8390    3.7480 H   0  0  0  0  0  0  0  0  0  0  0  0
   11.2117    7.5939    1.0361 H   0  0  0  0  0  0  0  0  0  0  0  0
   11.4077    6.3669    2.3236 H   0  0  0  0  0  0  0  0  0  0  0  0
    9.0547    7.2379    1.8268 H   0  0  0  0  0  0  0  0  0  0  0  0
    9.5649    7.2656    3.5467 H   0  0  0  0  0  0  0  0  0  0  0  0
    9.7356    9.5600    1.6294 H   0  0  0  0  0  0  0  0  0  0  0  0
    7.6552    9.5149    4.8435 H   0  0  0  0  0  0  0  0  0  0  0  0
    5.3065   10.4537    1.7245 H   0  0  0  0  0  0  0  0  0  0  0  0
    2.9693   11.1301    2.6494 H   0  0  0  0  0  0  0  0  0  0  0  0
    2.9817   10.9503    5.2127 H   0  0  0  0  0  0  0  0  0  0  0  0
    5.2923   10.1545    6.0229 H   0  0  0  0  0  0  0  0  0  0  0  0
   10.1492   11.1022    3.3982 H   0  0  0  0  0  0  0  0  0  0  0  0
   10.2369    9.7340    4.5575 H   0  0  0  0  0  0  0  0  0  0  0  0
   12.4748   10.1510    3.9689 H   0  0  0  0  0  0  0  0  0  0  0  0
   12.0642   10.4412    2.2573 H   0  0  0  0  0  0  0  0  0  0  0  0
  1  2  1  0
  2  3  1  0
  2  4  1  0
  4  5  1  0
  5  6  1  0
  6  7  1  0
  7  8  1  0
  8  9  2  0
  8 10  1  0
 10 11  1  0
 11 12  1  0
 12 13  2  0
 13 14  1  0
 14 15  1  0
  7 16  1  0
 16 17  1  0
 17  4  1  0
 15 11  2  0
  1 18  1  0
  1 19  1  0
  1 20  1  0
  2 21  1  0
  3 22  1  0
  3 23  1  0
  3 24  1  0
  4 25  1  0
  5 26  1  0
  5 27  1  0
  6 28  1  0
  6 29  1  0
  7 30  1  0
 10 31  1  0
 12 32  1  0
 13 33  1  0
 14 34  1  0
 15 35  1  0
 16 36  1  0
 16 37  1  0
 17 38  1  0
 17 39  1  0
M  CHG  1   3   1
M  END
>  <EmbedRMS>  (58) 
0.3005329260886256

$$$$

     RDKit          3D

 44 45  0  0  0  0  0  0  0  0999 V2000
   14.0491    7.2192    1.1051 C   0  0  0  0  0  0  0  0  0  0  0  0
   13.6499    7.9554    2.3993 C   0  0  0  0  0  0  0  0  0  0  0  0
   14.6293    9.0155    2.6715 N   0  0  0  0  0  4  0  0  0  0  0  0
   12.2007    8.5120    2.2736 C   0  0  0  0  0  0  0  0  0  0  0  0
   11.1807    7.3658    2.4346 C   0  0  0  0  0  0  0  0  0  0  0  0
    9.7726    7.8720    2.1539 C   0  0  0  0  0  0  0  0  0  0  0  0
    9.4099    8.9946    3.1307 C   0  0  0  0  0  0  0  0  0  0  0  0
    8.0144    9.4819    2.8685 C   0  0  0  0  0  0  0  0  0  0  0  0
    7.6163    9.6899    1.6878 O   0  0  0  0  0  0  0  0  0  0  0  0
    7.1421    9.7123    3.9750 N   0  0  0  0  0  0  0  0  0  0  0  0
    5.7615   10.1355    3.7870 C   0  0  0  0  0  0  0  0  0  0  0  0
    5.0980   10.2938    5.1182 C   0  0  0  0  0  0  0  0  0  0  0  0
    4.3917    9.3155    5.7845 C   0  0  0  0  0  0  0  0  0  0  0  0
    4.0621    9.8968    6.9943 C   0  0  0  0  0  0  0  0  0  0  0  0
    4.5655   11.1466    7.0524 N   0  0  0  0  0  0  0  0  0  0  0  0
    5.2022   11.3746    5.9156 N   0  0  0  0  0  0  0  0  0  0  0  0
    5.8996   12.6191    5.6126 C   0  0  0  0  0  0  0  0  0  0  0  0
   10.4244   10.1488    3.0655 C   0  0  0  0  0  0  0  0  0  0  0  0
   11.8589    9.6374    3.2816 C   0  0  0  0  0  0  0  0  0  0  0  0
   15.0965    6.8576    1.1812 H   0  0  0  0  0  0  0  0  0  0  0  0
   13.4183    6.3265    0.9275 H   0  0  0  0  0  0  0  0  0  0  0  0
   13.9788    7.8972    0.2277 H   0  0  0  0  0  0  0  0  0  0  0  0
   13.6913    7.2248    3.2394 H   0  0  0  0  0  0  0  0  0  0  0  0
   14.5438    9.7862    1.9690 H   0  0  0  0  0  0  0  0  0  0  0  0
   15.6007    8.6296    2.6307 H   0  0  0  0  0  0  0  0  0  0  0  0
   14.4966    9.3930    3.6373 H   0  0  0  0  0  0  0  0  0  0  0  0
   12.0890    8.9476    1.2538 H   0  0  0  0  0  0  0  0  0  0  0  0
   11.2335    6.9397    3.4615 H   0  0  0  0  0  0  0  0  0  0  0  0
   11.3829    6.5448    1.7186 H   0  0  0  0  0  0  0  0  0  0  0  0
    9.7117    8.2308    1.1019 H   0  0  0  0  0  0  0  0  0  0  0  0
    9.0568    7.0288    2.2728 H   0  0  0  0  0  0  0  0  0  0  0  0
    9.4450    8.5671    4.1584 H   0  0  0  0  0  0  0  0  0  0  0  0
    7.5143    9.5749    4.9433 H   0  0  0  0  0  0  0  0  0  0  0  0
    5.2177    9.3738    3.1876 H   0  0  0  0  0  0  0  0  0  0  0  0
    5.7355   11.0991    3.2352 H   0  0  0  0  0  0  0  0  0  0  0  0
    4.1557    8.3159    5.4443 H   0  0  0  0  0  0  0  0  0  0  0  0
    3.4981    9.4307    7.7909 H   0  0  0  0  0  0  0  0  0  0  0  0
    5.8854   13.2918    6.4963 H   0  0  0  0  0  0  0  0  0  0  0  0
    6.9558   12.4043    5.3455 H   0  0  0  0  0  0  0  0  0  0  0  0
    5.3997   13.1315    4.7642 H   0  0  0  0  0  0  0  0  0  0  0  0
   10.1851   10.8999    3.8499 H   0  0  0  0  0  0  0  0  0  0  0  0
   10.3600   10.6536    2.0757 H   0  0  0  0  0  0  0  0  0  0  0  0
   12.5384   10.5044    3.1429 H   0  0  0  0  0  0  0  0  0  0  0  0
   11.9731    9.2648    4.3236 H   0  0  0  0  0  0  0  0  0  0  0  0
  1  2  1  0
  2  3  1  0
  2  4  1  0
  4  5  1  0
  5  6  1  0
  6  7  1  0
  7  8  1  0
  8  9  2  0
  8 10  1  0
 10 11  1  0
 11 12  1  0
 12 13  2  0
 13 14  1  0
 14 15  2  0
 15 16  1  0
 16 17  1  0
  7 18  1  0
 18 19  1  0
 19  4  1  0
 16 12  1  0
  1 20  1  0
  1 21  1  0
  1 22  1  0
  2 23  1  0
  3 24  1  0
  3 25  1  0
  3 26  1  0
  4 27  1  0
  5 28  1  0
  5 29  1  0
  6 30  1  0
  6 31  1  0
  7 32  1  0
 10 33  1  0
 11 34  1  0
 11 35  1  0
 13 36  1  0
 14 37  1  0
 17 38  1  0
 17 39  1  0
 17 40  1  0
 18 41  1  0
 18 42  1  0
 19 43  1  0
 19 44  1  0
M  CHG  1   3   1
M  END
>  <EmbedRMS>  (59) 
0.027804703519808214

$$$$

     RDKit          3D

 42 43  0  0  0  0  0  0  0  0999 V2000
   14.0094    7.0504    1.2533 C   0  0  0  0  0  0  0  0  0  0  0  0
   13.5988    8.3244    1.9900 C   0  0  0  0  0  0  0  0  0  0  0  0
   14.7011    8.8919    2.7695 N   0  0  0  0  0  4  0  0  0  0  0  0
   12.2591    8.3279    2.7674 C   0  0  0  0  0  0  0  0  0  0  0  0
   11.1757    7.4412    2.1357 C   0  0  0  0  0  0  0  0  0  0  0  0
    9.7398    7.7282    2.5466 C   0  0  0  0  0  0  0  0  0  0  0  0
    9.4445    9.2042    2.6453 C   0  0  0  0  0  0  0  0  0  0  0  0
    7.9808    9.5349    2.7314 C   0  0  0  0  0  0  0  0  0  0  0  0
    7.4308    9.7480    1.6249 O   0  0  0  0  0  0  0  0  0  0  0  0
    7.2020    9.6521    3.9398 N   0  0  0  0  0  0  0  0  0  0  0  0
    5.7636    9.8229    3.9010 C   0  0  0  0  0  0  0  0  0  0  0  0
    5.0451   10.6690    4.7275 C   0  0  0  0  0  0  0  0  0  0  0  0
    3.7119   10.5044    4.3882 C   0  0  0  0  0  0  0  0  0  0  0  0
    3.6686    9.5589    3.3830 C   0  0  0  0  0  0  0  0  0  0  0  0
    4.9155    9.1348    3.0973 N   0  0  0  0  0  0  0  0  0  0  0  0
    5.2230    8.0500    2.1686 C   0  0  0  0  0  0  0  0  0  0  0  0
   10.3845   10.0206    3.4875 C   0  0  0  0  0  0  0  0  0  0  0  0
   11.8475    9.7816    3.1206 C   0  0  0  0  0  0  0  0  0  0  0  0
   13.2643    6.7636    0.4832 H   0  0  0  0  0  0  0  0  0  0  0  0
   14.9802    7.1930    0.7324 H   0  0  0  0  0  0  0  0  0  0  0  0
   14.1164    6.2181    1.9802 H   0  0  0  0  0  0  0  0  0  0  0  0
   13.4348    9.0283    1.1410 H   0  0  0  0  0  0  0  0  0  0  0  0
   14.5198    9.8931    3.0054 H   0  0  0  0  0  0  0  0  0  0  0  0
   15.5909    8.8653    2.2203 H   0  0  0  0  0  0  0  0  0  0  0  0
   14.8353    8.3432    3.6496 H   0  0  0  0  0  0  0  0  0  0  0  0
   12.4661    7.8416    3.7475 H   0  0  0  0  0  0  0  0  0  0  0  0
   11.2089    7.5937    1.0347 H   0  0  0  0  0  0  0  0  0  0  0  0
   11.4019    6.3683    2.3238 H   0  0  0  0  0  0  0  0  0  0  0  0
    9.0482    7.2418    1.8223 H   0  0  0  0  0  0  0  0  0  0  0  0
    9.5561    7.2692    3.5425 H   0  0  0  0  0  0  0  0  0  0  0  0
    9.7190    9.5618    1.6216 H   0  0  0  0  0  0  0  0  0  0  0  0
    7.7005    9.7694    4.8497 H   0  0  0  0  0  0  0  0  0  0  0  0
    5.4436   11.3286    5.4867 H   0  0  0  0  0  0  0  0  0  0  0  0
    2.8662   11.0094    4.8351 H   0  0  0  0  0  0  0  0  0  0  0  0
    2.7693    9.1808    2.9134 H   0  0  0  0  0  0  0  0  0  0  0  0
    4.4056    7.2977    2.1821 H   0  0  0  0  0  0  0  0  0  0  0  0
    6.1567    7.5280    2.4648 H   0  0  0  0  0  0  0  0  0  0  0  0
    5.3103    8.4483    1.1367 H   0  0  0  0  0  0  0  0  0  0  0  0
   10.1472   11.1040    3.3934 H   0  0  0  0  0  0  0  0  0  0  0  0
   10.2352    9.7350    4.5515 H   0  0  0  0  0  0  0  0  0  0  0  0
   12.0598   10.4400    2.2494 H   0  0  0  0  0  0  0  0  0  0  0  0
   12.4713   10.1548    3.9619 H   0  0  0  0  0  0  0  0  0  0  0  0
  1  2  1  0
  2  3  1  0
  2  4  1  0
  4  5  1  0
  5  6  1  0
  6  7  1  0
  7  8  1  0
  8  9  2  0
  8 10  1  0
 10 11  1  0
 11 12  2  0
 12 13  1  0
 13 14  2  0
 14 15  1  0
 15 16  1  0
  7 17  1  0
 17 18  1  0
 18  4  1  0
 15 11  1  0
  1 19  1  0
  1 20  1  0
  1 21  1  0
  2 22  1  0
  3 23  1  0
  3 24  1  0
  3 25  1  0
  4 26  1  0
  5 27  1  0
  5 28  1  0
  6 29  1  0
  6 30  1  0
  7 31  1  0
 10 32  1  0
 12 33  1  0
 13 34  1  0
 14 35  1  0
 16 36  1  0
 16 37  1  0
 16 38  1  0
 17 39  1  0
 17 40  1  0
 18 41  1  0
 18 42  1  0
M  CHG  1   3   1
M  END
>  <EmbedRMS>  (60) 
0.293041831892948

$$$$

     RDKit          3D

 39 40  0  0  0  0  0  0  0  0999 V2000
   14.0110    7.0511    1.2526 C   0  0  0  0  0  0  0  0  0  0  0  0
   13.6007    8.3248    1.9901 C   0  0  0  0  0  0  0  0  0  0  0  0
   14.7033    8.8921    2.7690 N   0  0  0  0  0  4  0  0  0  0  0  0
   12.2625    8.3270    2.7691 C   0  0  0  0  0  0  0  0  0  0  0  0
   11.1802    7.4398    2.1370 C   0  0  0  0  0  0  0  0  0  0  0  0
    9.7464    7.7250    2.5506 C   0  0  0  0  0  0  0  0  0  0  0  0
    9.4528    9.2006    2.6508 C   0  0  0  0  0  0  0  0  0  0  0  0
    7.9907    9.5272    2.7197 C   0  0  0  0  0  0  0  0  0  0  0  0
    7.4511    9.6605    1.5982 O   0  0  0  0  0  0  0  0  0  0  0  0
    7.2032    9.6917    3.9188 N   0  0  0  0  0  0  0  0  0  0  0  0
    5.8190   10.1244    3.8864 C   0  0  0  0  0  0  0  0  0  0  0  0
    5.0492   10.4501    2.7707 C   0  0  0  0  0  0  0  0  0  0  0  0
    3.8118   10.8137    3.2504 C   0  0  0  0  0  0  0  0  0  0  0  0
    3.7917   10.7296    4.5924 N   0  0  0  0  0  0  0  0  0  0  0  0
    5.0092   10.3116    4.9903 C   0  0  0  0  0  0  0  0  0  0  0  0
   10.3879   10.0193    3.4937 C   0  0  0  0  0  0  0  0  0  0  0  0
   11.8511    9.7804    3.1265 C   0  0  0  0  0  0  0  0  0  0  0  0
   13.2659    6.7648    0.4822 H   0  0  0  0  0  0  0  0  0  0  0  0
   14.9817    7.1940    0.7316 H   0  0  0  0  0  0  0  0  0  0  0  0
   14.1182    6.2183    1.9789 H   0  0  0  0  0  0  0  0  0  0  0  0
   13.4353    9.0292    1.1418 H   0  0  0  0  0  0  0  0  0  0  0  0
   14.5218    9.8930    3.0061 H   0  0  0  0  0  0  0  0  0  0  0  0
   15.5925    8.8665    2.2188 H   0  0  0  0  0  0  0  0  0  0  0  0
   14.8389    8.3426    3.6484 H   0  0  0  0  0  0  0  0  0  0  0  0
   12.4711    7.8390    3.7480 H   0  0  0  0  0  0  0  0  0  0  0  0
   11.2117    7.5939    1.0361 H   0  0  0  0  0  0  0  0  0  0  0  0
   11.4077    6.3669    2.3236 H   0  0  0  0  0  0  0  0  0  0  0  0
    9.0547    7.2379    1.8268 H   0  0  0  0  0  0  0  0  0  0  0  0
    9.5649    7.2656    3.5467 H   0  0  0  0  0  0  0  0  0  0  0  0
    9.7356    9.5600    1.6294 H   0  0  0  0  0  0  0  0  0  0  0  0
    7.6552    9.5149    4.8435 H   0  0  0  0  0  0  0  0  0  0  0  0
    5.3065   10.4537    1.7245 H   0  0  0  0  0  0  0  0  0  0  0  0
    2.9693   11.1301    2.6494 H   0  0  0  0  0  0  0  0  0  0  0  0
    2.9817   10.9503    5.2127 H   0  0  0  0  0  0  0  0  0  0  0  0
    5.2923   10.1545    6.0229 H   0  0  0  0  0  0  0  0  0  0  0  0
   10.1492   11.1022    3.3982 H   0  0  0  0  0  0  0  0  0  0  0  0
   10.2369    9.7340    4.5575 H   0  0  0  0  0  0  0  0  0  0  0  0
   12.4748   10.1510    3.9689 H   0  0  0  0  0  0  0  0  0  0  0  0
   12.0642   10.4412    2.2573 H   0  0  0  0  0  0  0  0  0  0  0  0
  1  2  1  0
  2  3  1  0
  2  4  1  0
  4  5  1  0
  5  6  1  0
  6  7  1  0
  7  8  1  0
  8  9  2  0
  8 10  1  0
 10 11  1  0
 11 12  1  0
 12 13  2  0
 13 14  1  0
 14 15  1  0
  7 16  1  0
 16 17  1  0
 17  4  1  0
 15 11  2  0
  1 18  1  0
  1 19  1  0
  1 20  1  0
  2 21  1  0
  3 22  1  0
  3 23  1  0
  3 24  1  0
  4 25  1  0
  5 26  1  0
  5 27  1  0
  6 28  1  0
  6 29  1  0
  7 30  1  0
 10 31  1  0
 12 32  1  0
 13 33  1  0
 14 34  1  0
 15 35  1  0
 16 36  1  0
 16 37  1  0
 17 38  1  0
 17 39  1  0
M  CHG  1   3   1
M  END
>  <EmbedRMS>  (61) 
0.3005329260886256

$$$$

     RDKit          3D

 46 46  0  0  0  0  0  0  0  0999 V2000
    5.0019    9.9405    4.9151 C   0  0  0  0  0  0  0  0  0  0  0  0
    5.8886   10.3508    3.9959 C   0  0  0  0  0  0  0  0  0  0  0  0
    7.1661    9.6928    4.0108 N   0  0  0  0  0  0  0  0  0  0  0  0
    8.0118    9.4490    2.8760 C   0  0  0  0  0  0  0  0  0  0  0  0
    7.5857    9.6036    1.6984 O   0  0  0  0  0  0  0  0  0  0  0  0
    9.4212    8.9804    3.1068 C   0  0  0  0  0  0  0  0  0  0  0  0
    9.8046    7.9181    2.0806 C   0  0  0  0  0  0  0  0  0  0  0  0
   11.1629    7.3101    2.3935 C   0  0  0  0  0  0  0  0  0  0  0  0
   12.2774    8.3218    2.7722 C   0  0  0  0  0  0  0  0  0  0  0  0
   13.5826    8.3570    1.9534 C   0  0  0  0  0  0  0  0  0  0  0  0
   13.9863    7.0984    1.1856 C   0  0  0  0  0  0  0  0  0  0  0  0
   14.7122    8.8844    2.7307 N   0  0  0  0  0  4  0  0  0  0  0  0
   11.8324    9.7210    3.2994 C   0  0  0  0  0  0  0  0  0  0  0  0
   10.3953   10.1487    3.0056 C   0  0  0  0  0  0  0  0  0  0  0  0
    5.5662   11.4425    2.9660 C   0  0  0  0  0  0  0  0  0  0  0  0
    4.7050   12.4490    3.3554 C   0  0  0  0  0  0  0  0  0  0  0  0
    4.5454   11.0629    2.0431 C   0  0  0  0  0  0  0  0  0  0  0  0
    6.7370   12.1422    2.4189 N   0  0  0  0  0  0  0  0  0  0  0  0
    3.9988   10.3340    4.9910 H   0  0  0  0  0  0  0  0  0  0  0  0
    3.9988   10.3340    4.9910 H   0  0  0  0  0  0  0  0  0  0  0  0
    7.4883    9.3107    4.9298 H   0  0  0  0  0  0  0  0  0  0  0  0
    9.4939    8.5343    4.1245 H   0  0  0  0  0  0  0  0  0  0  0  0
    9.8357    8.3602    1.0591 H   0  0  0  0  0  0  0  0  0  0  0  0
    9.0428    7.1066    2.0734 H   0  0  0  0  0  0  0  0  0  0  0  0
   11.4476    6.6810    1.5302 H   0  0  0  0  0  0  0  0  0  0  0  0
   11.0091    6.5941    3.2346 H   0  0  0  0  0  0  0  0  0  0  0  0
   12.6586    7.8422    3.7048 H   0  0  0  0  0  0  0  0  0  0  0  0
   13.3830    9.1005    1.1476 H   0  0  0  0  0  0  0  0  0  0  0  0
   15.0038    7.2109    0.7544 H   0  0  0  0  0  0  0  0  0  0  0  0
   13.2972    6.9117    0.3355 H   0  0  0  0  0  0  0  0  0  0  0  0
   13.9873    6.2211    1.8665 H   0  0  0  0  0  0  0  0  0  0  0  0
   14.9957    8.1906    3.4604 H   0  0  0  0  0  0  0  0  0  0  0  0
   15.5300    9.0549    2.1008 H   0  0  0  0  0  0  0  0  0  0  0  0
   14.4916    9.7903    3.1978 H   0  0  0  0  0  0  0  0  0  0  0  0
   12.4745   10.5274    2.8876 H   0  0  0  0  0  0  0  0  0  0  0  0
   11.9703    9.7563    4.4045 H   0  0  0  0  0  0  0  0  0  0  0  0
   10.3478   10.5857    1.9824 H   0  0  0  0  0  0  0  0  0  0  0  0
   10.1005   10.9481    3.7215 H   0  0  0  0  0  0  0  0  0  0  0  0
    4.6099   13.3431    2.6700 H   0  0  0  0  0  0  0  0  0  0  0  0
    3.7038   12.2505    3.8399 H   0  0  0  0  0  0  0  0  0  0  0  0
    5.2077   12.9330    4.2252 H   0  0  0  0  0  0  0  0  0  0  0  0
    3.6096   10.5724    2.4398 H   0  0  0  0  0  0  0  0  0  0  0  0
    4.9802   10.2016    1.4905 H   0  0  0  0  0  0  0  0  0  0  0  0
    4.3280   11.7395    1.1642 H   0  0  0  0  0  0  0  0  0  0  0  0
    7.5739   12.0714    3.0414 H   0  0  0  0  0  0  0  0  0  0  0  0
    6.9580   11.8466    1.4418 H   0  0  0  0  0  0  0  0  0  0  0  0
  1  2  2  3
  2  3  1  0
  3  4  1  0
  4  5  2  0
  4  6  1  0
  6  7  1  0
  7  8  1  0
  8  9  1  0
  9 10  1  0
 10 11  1  0
 10 12  1  0
  9 13  1  0
 13 14  1  0
  2 15  1  0
 15 16  1  0
 15 17  1  0
 15 18  1  0
 14  6  1  0
  1 19  1  0
  1 20  1  0
  3 21  1  0
  6 22  1  0
  7 23  1  0
  7 24  1  0
  8 25  1  0
  8 26  1  0
  9 27  1  0
 10 28  1  0
 11 29  1  0
 11 30  1  0
 11 31  1  0
 12 32  1  0
 12 33  1  0
 12 34  1  0
 13 35  1  0
 13 36  1  0
 14 37  1  0
 14 38  1  0
 16 39  1  0
 16 40  1  0
 16 41  1  0
 17 42  1  0
 17 43  1  0
 17 44  1  0
 18 45  1  0
 18 46  1  0
M  CHG  1  12   1
M  END
>  <EmbedRMS>  (62) 
0.7547621203019138

$$$$

     RDKit          3D

 39 40  0  0  0  0  0  0  0  0999 V2000
   14.0274    7.0399    1.2346 C   0  0  0  0  0  0  0  0  0  0  0  0
   13.6685    8.3367    1.9397 C   0  0  0  0  0  0  0  0  0  0  0  0
   14.6127    8.7692    2.9622 N   0  0  0  0  0  4  0  0  0  0  0  0
   12.1569    8.5901    2.2121 C   0  0  0  0  0  0  0  0  0  0  0  0
   11.2393    7.3776    2.4524 C   0  0  0  0  0  0  0  0  0  0  0  0
    9.7869    7.8250    2.2132 C   0  0  0  0  0  0  0  0  0  0  0  0
    9.4106    8.9850    3.1541 C   0  0  0  0  0  0  0  0  0  0  0  0
    8.0129    9.4638    2.8807 C   0  0  0  0  0  0  0  0  0  0  0  0
    7.6333    9.7053    1.7003 O   0  0  0  0  0  0  0  0  0  0  0  0
    7.1397    9.6967    3.9895 N   0  0  0  0  0  0  0  0  0  0  0  0
    5.7512    9.8619    3.8621 N   0  0  0  0  0  0  0  0  0  0  0  0
    4.9670   10.5542    4.7024 C   0  0  0  0  0  0  0  0  0  0  0  0
    3.6676   10.3945    4.3827 N   0  0  0  0  0  0  0  0  0  0  0  0
    3.6124    9.5720    3.3423 N   0  0  0  0  0  0  0  0  0  0  0  0
    4.8819    9.2469    3.0375 C   0  0  0  0  0  0  0  0  0  0  0  0
    5.2184    8.2413    2.0810 N   0  0  0  0  0  0  0  0  0  0  0  0
   10.4054   10.1594    3.0875 C   0  0  0  0  0  0  0  0  0  0  0  0
   11.8548    9.6814    3.2540 C   0  0  0  0  0  0  0  0  0  0  0  0
   13.9073    6.1870    1.9351 H   0  0  0  0  0  0  0  0  0  0  0  0
   15.0825    7.0606    0.8859 H   0  0  0  0  0  0  0  0  0  0  0  0
   13.3763    6.8821    0.3478 H   0  0  0  0  0  0  0  0  0  0  0  0
   13.8821    9.0583    1.1114 H   0  0  0  0  0  0  0  0  0  0  0  0
   14.3772    8.3028    3.8677 H   0  0  0  0  0  0  0  0  0  0  0  0
   14.5954    9.8065    3.0878 H   0  0  0  0  0  0  0  0  0  0  0  0
   15.5889    8.5028    2.6972 H   0  0  0  0  0  0  0  0  0  0  0  0
   11.8015    9.0088    1.2374 H   0  0  0  0  0  0  0  0  0  0  0  0
   11.3690    6.9870    3.4855 H   0  0  0  0  0  0  0  0  0  0  0  0
   11.4615    6.5574    1.7396 H   0  0  0  0  0  0  0  0  0  0  0  0
    9.6557    8.1242    1.1492 H   0  0  0  0  0  0  0  0  0  0  0  0
    9.1111    6.9627    2.4044 H   0  0  0  0  0  0  0  0  0  0  0  0
    9.4430    8.5809    4.1914 H   0  0  0  0  0  0  0  0  0  0  0  0
    7.5695    9.8409    4.9314 H   0  0  0  0  0  0  0  0  0  0  0  0
    5.3247   11.1492    5.5326 H   0  0  0  0  0  0  0  0  0  0  0  0
    4.4795    7.8687    1.4446 H   0  0  0  0  0  0  0  0  0  0  0  0
    6.1338    7.7436    2.1119 H   0  0  0  0  0  0  0  0  0  0  0  0
   10.1716   10.8900    3.8927 H   0  0  0  0  0  0  0  0  0  0  0  0
   10.3020   10.6869    2.1127 H   0  0  0  0  0  0  0  0  0  0  0  0
   12.0200    9.2958    4.2839 H   0  0  0  0  0  0  0  0  0  0  0  0
   12.5078   10.5648    3.0943 H   0  0  0  0  0  0  0  0  0  0  0  0
  1  2  1  0
  2  3  1  0
  2  4  1  0
  4  5  1  0
  5  6  1  0
  6  7  1  0
  7  8  1  0
  8  9  2  0
  8 10  1  0
 10 11  1  0
 11 12  1  0
 12 13  2  0
 13 14  1  0
 14 15  2  0
 15 16  1  0
  7 17  1  0
 17 18  1  0
 18  4  1  0
 15 11  1  0
  1 19  1  0
  1 20  1  0
  1 21  1  0
  2 22  1  0
  3 23  1  0
  3 24  1  0
  3 25  1  0
  4 26  1  0
  5 27  1  0
  5 28  1  0
  6 29  1  0
  6 30  1  0
  7 31  1  0
 10 32  1  0
 12 33  1  0
 16 34  1  0
 16 35  1  0
 17 36  1  0
 17 37  1  0
 18 38  1  0
 18 39  1  0
M  CHG  1   3   1
M  END
>  <EmbedRMS>  (63) 
0.18254033061587324

$$$$

     RDKit          3D

 43 44  0  0  0  0  0  0  0  0999 V2000
   14.0276    7.2301    1.0858 C   0  0  0  0  0  0  0  0  0  0  0  0
   13.6459    7.9626    2.3850 C   0  0  0  0  0  0  0  0  0  0  0  0
   14.6273    9.0243    2.6470 N   0  0  0  0  0  4  0  0  0  0  0  0
   12.1819    8.5085    2.2960 C   0  0  0  0  0  0  0  0  0  0  0  0
   11.1978    7.3499    2.5409 C   0  0  0  0  0  0  0  0  0  0  0  0
    9.7345    7.7437    2.3739 C   0  0  0  0  0  0  0  0  0  0  0  0
    9.4500    9.2139    2.6409 C   0  0  0  0  0  0  0  0  0  0  0  0
    7.9871    9.5385    2.7237 C   0  0  0  0  0  0  0  0  0  0  0  0
    7.4165    9.6879    1.6153 O   0  0  0  0  0  0  0  0  0  0  0  0
    7.2149    9.6895    3.9283 N   0  0  0  0  0  0  0  0  0  0  0  0
    5.8138   10.1222    3.8054 C   0  0  0  0  0  0  0  0  0  0  0  0
    5.1472   10.2607    5.1400 C   0  0  0  0  0  0  0  0  0  0  0  0
    4.4718    9.1754    5.7134 C   0  0  0  0  0  0  0  0  0  0  0  0
    3.8687    9.3139    6.9637 C   0  0  0  0  0  0  0  0  0  0  0  0
    3.9494   10.5386    7.6297 C   0  0  0  0  0  0  0  0  0  0  0  0
    4.6077   11.5829    7.0597 N   0  0  0  0  0  0  0  0  0  0  0  0
    5.2027   11.4727    5.8424 C   0  0  0  0  0  0  0  0  0  0  0  0
   10.4185   10.0737    3.4302 C   0  0  0  0  0  0  0  0  0  0  0  0
   11.8964    9.6377    3.3188 C   0  0  0  0  0  0  0  0  0  0  0  0
   13.3803    6.3499    0.9044 H   0  0  0  0  0  0  0  0  0  0  0  0
   13.9572    7.9169    0.2153 H   0  0  0  0  0  0  0  0  0  0  0  0
   15.0709    6.8548    1.1517 H   0  0  0  0  0  0  0  0  0  0  0  0
   13.7144    7.2277    3.2199 H   0  0  0  0  0  0  0  0  0  0  0  0
   15.5990    8.6418    2.5845 H   0  0  0  0  0  0  0  0  0  0  0  0
   14.5149    9.3994    3.6159 H   0  0  0  0  0  0  0  0  0  0  0  0
   14.5263    9.7976    1.9494 H   0  0  0  0  0  0  0  0  0  0  0  0
   12.0112    8.9222    1.2764 H   0  0  0  0  0  0  0  0  0  0  0  0
   11.3979    6.4997    1.8580 H   0  0  0  0  0  0  0  0  0  0  0  0
   11.3436    6.9702    3.5775 H   0  0  0  0  0  0  0  0  0  0  0  0
    9.3957    7.4730    1.3468 H   0  0  0  0  0  0  0  0  0  0  0  0
    9.1283    7.1284    3.0751 H   0  0  0  0  0  0  0  0  0  0  0  0
    9.7095    9.6218    1.6318 H   0  0  0  0  0  0  0  0  0  0  0  0
    7.6566    9.5244    4.8608 H   0  0  0  0  0  0  0  0  0  0  0  0
    5.2544    9.3860    3.1871 H   0  0  0  0  0  0  0  0  0  0  0  0
    5.7751   11.0969    3.2707 H   0  0  0  0  0  0  0  0  0  0  0  0
    4.4175    8.2247    5.1974 H   0  0  0  0  0  0  0  0  0  0  0  0
    3.3461    8.4800    7.4142 H   0  0  0  0  0  0  0  0  0  0  0  0
    3.4872   10.6595    8.6003 H   0  0  0  0  0  0  0  0  0  0  0  0
    5.7224   12.3263    5.4264 H   0  0  0  0  0  0  0  0  0  0  0  0
   10.1212   10.0281    4.5004 H   0  0  0  0  0  0  0  0  0  0  0  0
   10.3159   11.1407    3.1251 H   0  0  0  0  0  0  0  0  0  0  0  0
   12.2359    9.3018    4.3242 H   0  0  0  0  0  0  0  0  0  0  0  0
   12.4950   10.5353    3.0521 H   0  0  0  0  0  0  0  0  0  0  0  0
  1  2  1  0
  2  3  1  0
  2  4  1  0
  4  5  1  0
  5  6  1  0
  6  7  1  0
  7  8  1  0
  8  9  2  0
  8 10  1  0
 10 11  1  0
 11 12  1  0
 12 13  2  0
 13 14  1  0
 14 15  2  0
 15 16  1  0
 16 17  2  0
  7 18  1  0
 18 19  1  0
 19  4  1  0
 17 12  1  0
  1 20  1  0
  1 21  1  0
  1 22  1  0
  2 23  1  0
  3 24  1  0
  3 25  1  0
  3 26  1  0
  4 27  1  0
  5 28  1  0
  5 29  1  0
  6 30  1  0
  6 31  1  0
  7 32  1  0
 10 33  1  0
 11 34  1  0
 11 35  1  0
 13 36  1  0
 14 37  1  0
 15 38  1  0
 17 39  1  0
 18 40  1  0
 18 41  1  0
 19 42  1  0
 19 43  1  0
M  CHG  1   3   1
M  END
>  <EmbedRMS>  (64) 
0.17084101544492625

$$$$

     RDKit          3D

 38 39  0  0  0  0  0  0  0  0999 V2000
   13.9842    7.0987    1.1853 C   0  0  0  0  0  0  0  0  0  0  0  0
   13.5812    8.3572    1.9537 C   0  0  0  0  0  0  0  0  0  0  0  0
   14.7119    8.8839    2.7302 N   0  0  0  0  0  4  0  0  0  0  0  0
   12.2765    8.3213    2.7737 C   0  0  0  0  0  0  0  0  0  0  0  0
   11.1597    7.3114    2.3967 C   0  0  0  0  0  0  0  0  0  0  0  0
    9.8012    7.9211    2.0835 C   0  0  0  0  0  0  0  0  0  0  0  0
    9.4166    8.9879    3.1066 C   0  0  0  0  0  0  0  0  0  0  0  0
    8.0125    9.4689    2.8599 C   0  0  0  0  0  0  0  0  0  0  0  0
    7.6232    9.6834    1.6795 O   0  0  0  0  0  0  0  0  0  0  0  0
    7.1436    9.7001    3.9777 N   0  0  0  0  0  0  0  0  0  0  0  0
    5.7812   10.1373    3.8965 C   0  0  0  0  0  0  0  0  0  0  0  0
    5.0590   10.4418    2.7529 C   0  0  0  0  0  0  0  0  0  0  0  0
    3.8212   10.8093    3.2325 C   0  0  0  0  0  0  0  0  0  0  0  0
    3.8279   10.7216    4.5742 N   0  0  0  0  0  0  0  0  0  0  0  0
    5.0150   10.3141    4.9886 N   0  0  0  0  0  0  0  0  0  0  0  0
   10.3981   10.1506    3.0073 C   0  0  0  0  0  0  0  0  0  0  0  0
   11.8327    9.7188    3.3047 C   0  0  0  0  0  0  0  0  0  0  0  0
   13.2929    6.9111    0.3372 H   0  0  0  0  0  0  0  0  0  0  0  0
   15.0005    7.2120    0.7515 H   0  0  0  0  0  0  0  0  0  0  0  0
   13.9876    6.2216    1.8665 H   0  0  0  0  0  0  0  0  0  0  0  0
   13.3808    9.1011    1.1485 H   0  0  0  0  0  0  0  0  0  0  0  0
   14.9955    8.1898    3.4595 H   0  0  0  0  0  0  0  0  0  0  0  0
   14.4928    9.7899    3.1975 H   0  0  0  0  0  0  0  0  0  0  0  0
   15.5292    9.0536    2.0996 H   0  0  0  0  0  0  0  0  0  0  0  0
   12.6593    7.8397    3.7046 H   0  0  0  0  0  0  0  0  0  0  0  0
   11.4436    6.6805    1.5344 H   0  0  0  0  0  0  0  0  0  0  0  0
   11.0047    6.5972    3.2389 H   0  0  0  0  0  0  0  0  0  0  0  0
    9.8330    8.3602    1.0608 H   0  0  0  0  0  0  0  0  0  0  0  0
    9.0379    7.1111    2.0779 H   0  0  0  0  0  0  0  0  0  0  0  0
    9.4755    8.5442    4.1262 H   0  0  0  0  0  0  0  0  0  0  0  0
    7.5254    9.5361    4.9365 H   0  0  0  0  0  0  0  0  0  0  0  0
    5.3557   10.4142    1.7158 H   0  0  0  0  0  0  0  0  0  0  0  0
    2.9703   11.1209    2.6412 H   0  0  0  0  0  0  0  0  0  0  0  0
    3.0273   10.9388    5.2077 H   0  0  0  0  0  0  0  0  0  0  0  0
   10.1052   10.9525    3.7212 H   0  0  0  0  0  0  0  0  0  0  0  0
   10.3568   10.5867    1.9833 H   0  0  0  0  0  0  0  0  0  0  0  0
   12.4776   10.5259    2.8988 H   0  0  0  0  0  0  0  0  0  0  0  0
   11.9660    9.7492    4.4105 H   0  0  0  0  0  0  0  0  0  0  0  0
  1  2  1  0
  2  3  1  0
  2  4  1  0
  4  5  1  0
  5  6  1  0
  6  7  1  0
  7  8  1  0
  8  9  2  0
  8 10  1  0
 10 11  1  0
 11 12  1  0
 12 13  2  0
 13 14  1  0
 14 15  1  0
  7 16  1  0
 16 17  1  0
 17  4  1  0
 15 11  2  0
  1 18  1  0
  1 19  1  0
  1 20  1  0
  2 21  1  0
  3 22  1  0
  3 23  1  0
  3 24  1  0
  4 25  1  0
  5 26  1  0
  5 27  1  0
  6 28  1  0
  6 29  1  0
  7 30  1  0
 10 31  1  0
 12 32  1  0
 13 33  1  0
 14 34  1  0
 16 35  1  0
 16 36  1  0
 17 37  1  0
 17 38  1  0
M  CHG  1   3   1
M  END
>  <EmbedRMS>  (65) 
0.20783527019262546

$$$$

     RDKit          3D

 43 43  0  0  0  0  0  0  0  0999 V2000
   13.9328    7.3327    1.0256 C   0  0  0  0  0  0  0  0  0  0  0  0
   13.7106    7.9150    2.4296 C   0  0  0  0  0  0  0  0  0  0  0  0
   14.6487    9.0167    2.6729 N   0  0  0  0  0  4  0  0  0  0  0  0
   12.2335    8.2987    2.7960 C   0  0  0  0  0  0  0  0  0  0  0  0
   11.1478    7.3148    2.3210 C   0  0  0  0  0  0  0  0  0  0  0  0
    9.7861    7.9355    2.0722 C   0  0  0  0  0  0  0  0  0  0  0  0
    9.4221    8.9837    3.1170 C   0  0  0  0  0  0  0  0  0  0  0  0
    8.0145    9.4662    2.8713 C   0  0  0  0  0  0  0  0  0  0  0  0
    7.6210    9.6843    1.6909 O   0  0  0  0  0  0  0  0  0  0  0  0
    7.1437    9.6979    3.9867 N   0  0  0  0  0  0  0  0  0  0  0  0
    5.7457   10.1462    3.8800 C   0  0  0  0  0  0  0  0  0  0  0  0
    4.9165    9.1275    3.0776 C   0  0  0  0  0  0  0  0  0  0  0  0
    5.1534   10.2537    5.2959 C   0  0  0  0  0  0  0  0  0  0  0  0
    5.6801   11.5317    3.2137 C   0  0  0  0  0  0  0  0  0  0  0  0
   10.3939   10.1678    3.0629 C   0  0  0  0  0  0  0  0  0  0  0  0
   11.8859    9.7890    2.9942 C   0  0  0  0  0  0  0  0  0  0  0  0
   13.4412    7.9749    0.2643 H   0  0  0  0  0  0  0  0  0  0  0  0
   13.5378    6.2975    0.9561 H   0  0  0  0  0  0  0  0  0  0  0  0
   15.0171    7.2758    0.7911 H   0  0  0  0  0  0  0  0  0  0  0  0
   14.0080    7.0851    3.1154 H   0  0  0  0  0  0  0  0  0  0  0  0
   14.5411    9.3807    3.6468 H   0  0  0  0  0  0  0  0  0  0  0  0
   14.5089    9.7867    1.9799 H   0  0  0  0  0  0  0  0  0  0  0  0
   15.6320    8.6704    2.5834 H   0  0  0  0  0  0  0  0  0  0  0  0
   12.2375    8.0299    3.8807 H   0  0  0  0  0  0  0  0  0  0  0  0
   11.4321    6.8306    1.3683 H   0  0  0  0  0  0  0  0  0  0  0  0
   11.0316    6.4819    3.0534 H   0  0  0  0  0  0  0  0  0  0  0  0
    9.7922    8.4045    1.0617 H   0  0  0  0  0  0  0  0  0  0  0  0
    9.0209    7.1271    2.0623 H   0  0  0  0  0  0  0  0  0  0  0  0
    9.4831    8.5112    4.1229 H   0  0  0  0  0  0  0  0  0  0  0  0
    7.5444    9.5331    4.9389 H   0  0  0  0  0  0  0  0  0  0  0  0
    3.8395    9.4025    3.0917 H   0  0  0  0  0  0  0  0  0  0  0  0
    5.0261    8.1122    3.5158 H   0  0  0  0  0  0  0  0  0  0  0  0
    5.2343    9.0851    2.0162 H   0  0  0  0  0  0  0  0  0  0  0  0
    5.1892    9.2679    5.8084 H   0  0  0  0  0  0  0  0  0  0  0  0
    4.0943   10.5901    5.2604 H   0  0  0  0  0  0  0  0  0  0  0  0
    5.7304   10.9832    5.9047 H   0  0  0  0  0  0  0  0  0  0  0  0
    5.9946   11.4920    2.1513 H   0  0  0  0  0  0  0  0  0  0  0  0
    6.3424   12.2468    3.7476 H   0  0  0  0  0  0  0  0  0  0  0  0
    4.6419   11.9283    3.2382 H   0  0  0  0  0  0  0  0  0  0  0  0
   10.2197   10.8123    3.9529 H   0  0  0  0  0  0  0  0  0  0  0  0
   10.1527   10.7919    2.1718 H   0  0  0  0  0  0  0  0  0  0  0  0
   12.3135   10.3458    2.1334 H   0  0  0  0  0  0  0  0  0  0  0  0
   12.3931   10.1935    3.8999 H   0  0  0  0  0  0  0  0  0  0  0  0
  1  2  1  0
  2  3  1  0
  2  4  1  0
  4  5  1  0
  5  6  1  0
  6  7  1  0
  7  8  1  0
  8  9  2  0
  8 10  1  0
 10 11  1  0
 11 12  1  0
 11 13  1  0
 11 14  1  0
  7 15  1  0
 15 16  1  0
 16  4  1  0
  1 17  1  0
  1 18  1  0
  1 19  1  0
  2 20  1  0
  3 21  1  0
  3 22  1  0
  3 23  1  0
  4 24  1  0
  5 25  1  0
  5 26  1  0
  6 27  1  0
  6 28  1  0
  7 29  1  0
 10 30  1  0
 12 31  1  0
 12 32  1  0
 12 33  1  0
 13 34  1  0
 13 35  1  0
 13 36  1  0
 14 37  1  0
 14 38  1  0
 14 39  1  0
 15 40  1  0
 15 41  1  0
 16 42  1  0
 16 43  1  0
M  CHG  1   3   1
M  END
>  <EmbedRMS>  (66) 
0.17423024192686873

$$$$

     RDKit          3D

 36 37  0  0  0  0  0  0  0  0999 V2000
   14.0493    7.2193    1.1050 C   0  0  0  0  0  0  0  0  0  0  0  0
   13.6504    7.9554    2.3993 C   0  0  0  0  0  0  0  0  0  0  0  0
   14.6296    9.0157    2.6712 N   0  0  0  0  0  4  0  0  0  0  0  0
   12.2010    8.5115    2.2743 C   0  0  0  0  0  0  0  0  0  0  0  0
   11.1819    7.3649    2.4368 C   0  0  0  0  0  0  0  0  0  0  0  0
    9.7737    7.8702    2.1577 C   0  0  0  0  0  0  0  0  0  0  0  0
    9.4107    8.9932    3.1351 C   0  0  0  0  0  0  0  0  0  0  0  0
    8.0164    9.4808    2.8685 C   0  0  0  0  0  0  0  0  0  0  0  0
    7.6391    9.6869    1.6832 O   0  0  0  0  0  0  0  0  0  0  0  0
    7.1375    9.7093    3.9781 N   0  0  0  0  0  0  0  0  0  0  0  0
    5.8024   10.1339    3.8648 N   0  0  0  0  0  0  0  0  0  0  0  0
    5.0891   10.4350    2.7649 C   0  0  0  0  0  0  0  0  0  0  0  0
    3.8511   10.8090    3.1324 N   0  0  0  0  0  0  0  0  0  0  0  0
    3.8326   10.7284    4.4568 N   0  0  0  0  0  0  0  0  0  0  0  0
    5.0103   10.3212    4.9024 N   0  0  0  0  0  0  0  0  0  0  0  0
   10.4250   10.1478    3.0673 C   0  0  0  0  0  0  0  0  0  0  0  0
   11.8597    9.6371    3.2822 C   0  0  0  0  0  0  0  0  0  0  0  0
   13.4184    6.3266    0.9274 H   0  0  0  0  0  0  0  0  0  0  0  0
   13.9786    7.8974    0.2277 H   0  0  0  0  0  0  0  0  0  0  0  0
   15.0967    6.8577    1.1807 H   0  0  0  0  0  0  0  0  0  0  0  0
   13.6924    7.2247    3.2393 H   0  0  0  0  0  0  0  0  0  0  0  0
   14.5437    9.7864    1.9687 H   0  0  0  0  0  0  0  0  0  0  0  0
   15.6011    8.6300    2.6300 H   0  0  0  0  0  0  0  0  0  0  0  0
   14.4973    9.3931    3.6370 H   0  0  0  0  0  0  0  0  0  0  0  0
   12.0884    8.9466    1.2543 H   0  0  0  0  0  0  0  0  0  0  0  0
   11.2361    6.9392    3.4637 H   0  0  0  0  0  0  0  0  0  0  0  0
   11.3838    6.5437    1.7209 H   0  0  0  0  0  0  0  0  0  0  0  0
    9.0585    7.0265    2.2773 H   0  0  0  0  0  0  0  0  0  0  0  0
    9.7125    8.2279    1.1053 H   0  0  0  0  0  0  0  0  0  0  0  0
    9.4457    8.5665    4.1631 H   0  0  0  0  0  0  0  0  0  0  0  0
    7.5111    9.5493    4.9409 H   0  0  0  0  0  0  0  0  0  0  0  0
    5.4204   10.3987    1.7401 H   0  0  0  0  0  0  0  0  0  0  0  0
   10.1866   10.8996    3.8512 H   0  0  0  0  0  0  0  0  0  0  0  0
   10.3596   10.6516    2.0770 H   0  0  0  0  0  0  0  0  0  0  0  0
   11.9752    9.2650    4.3241 H   0  0  0  0  0  0  0  0  0  0  0  0
   12.5387   10.5043    3.1424 H   0  0  0  0  0  0  0  0  0  0  0  0
  1  2  1  0
  2  3  1  0
  2  4  1  0
  4  5  1  0
  5  6  1  0
  6  7  1  0
  7  8  1  0
  8  9  2  0
  8 10  1  0
 10 11  1  0
 11 12  1  0
 12 13  2  0
 13 14  1  0
 14 15  2  0
  7 16  1  0
 16 17  1  0
 17  4  1  0
 15 11  1  0
  1 18  1  0
  1 19  1  0
  1 20  1  0
  2 21  1  0
  3 22  1  0
  3 23  1  0
  3 24  1  0
  4 25  1  0
  5 26  1  0
  5 27  1  0
  6 28  1  0
  6 29  1  0
  7 30  1  0
 10 31  1  0
 12 32  1  0
 16 33  1  0
 16 34  1  0
 17 35  1  0
 17 36  1  0
M  CHG  1   3   1
M  END
>  <EmbedRMS>  (67) 
0.030620254940186248

$$$$

     RDKit          3D

 45 45  0  0  0  0  0  0  0  0999 V2000
    6.6426   12.2821    2.6516 C   0  0  0  0  0  0  0  0  0  0  0  0
    5.6157   11.5113    3.0196 C   0  0  0  0  0  0  0  0  0  0  0  0
    4.2139   11.9100    2.6324 C   0  0  0  0  0  0  0  0  0  0  0  0
    5.8597   10.3523    3.9284 C   0  0  0  0  0  0  0  0  0  0  0  0
    4.8899    9.9517    4.7721 C   0  0  0  0  0  0  0  0  0  0  0  0
    5.0638    8.8198    5.7367 C   0  0  0  0  0  0  0  0  0  0  0  0
    7.1587    9.7297    4.0017 N   0  0  0  0  0  0  0  0  0  0  0  0
    8.0094    9.4770    2.8770 C   0  0  0  0  0  0  0  0  0  0  0  0
    7.5925    9.6699    1.6995 O   0  0  0  0  0  0  0  0  0  0  0  0
    9.4190    8.9882    3.1140 C   0  0  0  0  0  0  0  0  0  0  0  0
    9.7814    7.9392    2.0698 C   0  0  0  0  0  0  0  0  0  0  0  0
   11.1442    7.3173    2.3173 C   0  0  0  0  0  0  0  0  0  0  0  0
   12.2312    8.2990    2.7947 C   0  0  0  0  0  0  0  0  0  0  0  0
   13.7088    7.9146    2.4295 C   0  0  0  0  0  0  0  0  0  0  0  0
   13.9319    7.3320    1.0257 C   0  0  0  0  0  0  0  0  0  0  0  0
   14.6475    9.0159    2.6730 N   0  0  0  0  0  4  0  0  0  0  0  0
   11.8850    9.7892    2.9963 C   0  0  0  0  0  0  0  0  0  0  0  0
   10.3931   10.1701    3.0593 C   0  0  0  0  0  0  0  0  0  0  0  0
    6.5060   13.1634    2.0375 H   0  0  0  0  0  0  0  0  0  0  0  0
    6.5060   13.1634    2.0375 H   0  0  0  0  0  0  0  0  0  0  0  0
    4.2031   12.4754    1.6757 H   0  0  0  0  0  0  0  0  0  0  0  0
    3.5836   11.0078    2.4847 H   0  0  0  0  0  0  0  0  0  0  0  0
    3.7720   12.5450    3.4286 H   0  0  0  0  0  0  0  0  0  0  0  0
    3.9254   10.4428    4.7786 H   0  0  0  0  0  0  0  0  0  0  0  0
    5.3803    7.9015    5.1981 H   0  0  0  0  0  0  0  0  0  0  0  0
    5.8159    9.0848    6.5090 H   0  0  0  0  0  0  0  0  0  0  0  0
    4.0999    8.6139    6.2477 H   0  0  0  0  0  0  0  0  0  0  0  0
    7.5134    9.4348    4.9389 H   0  0  0  0  0  0  0  0  0  0  0  0
    9.4838    8.5152    4.1195 H   0  0  0  0  0  0  0  0  0  0  0  0
    9.7856    8.4081    1.0593 H   0  0  0  0  0  0  0  0  0  0  0  0
    9.0155    7.1315    2.0616 H   0  0  0  0  0  0  0  0  0  0  0  0
   11.4284    6.8358    1.3632 H   0  0  0  0  0  0  0  0  0  0  0  0
   11.0277    6.4824    3.0472 H   0  0  0  0  0  0  0  0  0  0  0  0
   12.2338    8.0276    3.8788 H   0  0  0  0  0  0  0  0  0  0  0  0
   14.0054    7.0847    3.1155 H   0  0  0  0  0  0  0  0  0  0  0  0
   13.5346    6.2977    0.9557 H   0  0  0  0  0  0  0  0  0  0  0  0
   13.4427    7.9752    0.2638 H   0  0  0  0  0  0  0  0  0  0  0  0
   15.0164    7.2729    0.7928 H   0  0  0  0  0  0  0  0  0  0  0  0
   14.5093    9.7854    1.9790 H   0  0  0  0  0  0  0  0  0  0  0  0
   14.5387    9.3811    3.6464 H   0  0  0  0  0  0  0  0  0  0  0  0
   15.6306    8.6688    2.5853 H   0  0  0  0  0  0  0  0  0  0  0  0
   12.3172   10.3488    2.1397 H   0  0  0  0  0  0  0  0  0  0  0  0
   12.3886   10.1897    3.9059 H   0  0  0  0  0  0  0  0  0  0  0  0
   10.1546   10.7911    2.1654 H   0  0  0  0  0  0  0  0  0  0  0  0
   10.2174   10.8183    3.9465 H   0  0  0  0  0  0  0  0  0  0  0  0
  1  2  2  3
  2  3  1  0
  2  4  1  0
  4  5  2  3
  5  6  1  0
  4  7  1  0
  7  8  1  0
  8  9  2  0
  8 10  1  0
 10 11  1  0
 11 12  1  0
 12 13  1  0
 13 14  1  0
 14 15  1  0
 14 16  1  0
 13 17  1  0
 17 18  1  0
 18 10  1  0
  1 19  1  0
  1 20  1  0
  3 21  1  0
  3 22  1  0
  3 23  1  0
  5 24  1  0
  6 25  1  0
  6 26  1  0
  6 27  1  0
  7 28  1  0
 10 29  1  0
 11 30  1  0
 11 31  1  0
 12 32  1  0
 12 33  1  0
 13 34  1  0
 14 35  1  0
 15 36  1  0
 15 37  1  0
 15 38  1  0
 16 39  1  0
 16 40  1  0
 16 41  1  0
 17 42  1  0
 17 43  1  0
 18 44  1  0
 18 45  1  0
M  CHG  1  16   1
M  END
>  <EmbedRMS>  (68) 
0.16480955270904202

$$$$

     RDKit          3D

 38 39  0  0  0  0  0  0  0  0999 V2000
   13.9842    7.0987    1.1853 C   0  0  0  0  0  0  0  0  0  0  0  0
   13.5812    8.3572    1.9537 C   0  0  0  0  0  0  0  0  0  0  0  0
   14.7119    8.8839    2.7302 N   0  0  0  0  0  4  0  0  0  0  0  0
   12.2765    8.3213    2.7737 C   0  0  0  0  0  0  0  0  0  0  0  0
   11.1597    7.3114    2.3967 C   0  0  0  0  0  0  0  0  0  0  0  0
    9.8012    7.9211    2.0835 C   0  0  0  0  0  0  0  0  0  0  0  0
    9.4166    8.9879    3.1066 C   0  0  0  0  0  0  0  0  0  0  0  0
    8.0125    9.4689    2.8599 C   0  0  0  0  0  0  0  0  0  0  0  0
    7.6232    9.6834    1.6795 O   0  0  0  0  0  0  0  0  0  0  0  0
    7.1436    9.7001    3.9777 N   0  0  0  0  0  0  0  0  0  0  0  0
    5.7812   10.1373    3.8965 C   0  0  0  0  0  0  0  0  0  0  0  0
    5.0590   10.4418    2.7529 C   0  0  0  0  0  0  0  0  0  0  0  0
    3.8212   10.8093    3.2325 C   0  0  0  0  0  0  0  0  0  0  0  0
    3.8279   10.7216    4.5742 N   0  0  0  0  0  0  0  0  0  0  0  0
    5.0150   10.3141    4.9886 N   0  0  0  0  0  0  0  0  0  0  0  0
   10.3981   10.1506    3.0073 C   0  0  0  0  0  0  0  0  0  0  0  0
   11.8327    9.7188    3.3047 C   0  0  0  0  0  0  0  0  0  0  0  0
   13.2929    6.9111    0.3372 H   0  0  0  0  0  0  0  0  0  0  0  0
   15.0005    7.2120    0.7515 H   0  0  0  0  0  0  0  0  0  0  0  0
   13.9876    6.2216    1.8665 H   0  0  0  0  0  0  0  0  0  0  0  0
   13.3808    9.1011    1.1485 H   0  0  0  0  0  0  0  0  0  0  0  0
   14.9955    8.1898    3.4595 H   0  0  0  0  0  0  0  0  0  0  0  0
   14.4928    9.7899    3.1975 H   0  0  0  0  0  0  0  0  0  0  0  0
   15.5292    9.0536    2.0996 H   0  0  0  0  0  0  0  0  0  0  0  0
   12.6593    7.8397    3.7046 H   0  0  0  0  0  0  0  0  0  0  0  0
   11.4436    6.6805    1.5344 H   0  0  0  0  0  0  0  0  0  0  0  0
   11.0047    6.5972    3.2389 H   0  0  0  0  0  0  0  0  0  0  0  0
    9.8330    8.3602    1.0608 H   0  0  0  0  0  0  0  0  0  0  0  0
    9.0379    7.1111    2.0779 H   0  0  0  0  0  0  0  0  0  0  0  0
    9.4755    8.5442    4.1262 H   0  0  0  0  0  0  0  0  0  0  0  0
    7.5254    9.5361    4.9365 H   0  0  0  0  0  0  0  0  0  0  0  0
    5.3557   10.4142    1.7158 H   0  0  0  0  0  0  0  0  0  0  0  0
    2.9703   11.1209    2.6412 H   0  0  0  0  0  0  0  0  0  0  0  0
    3.0273   10.9388    5.2077 H   0  0  0  0  0  0  0  0  0  0  0  0
   10.1052   10.9525    3.7212 H   0  0  0  0  0  0  0  0  0  0  0  0
   10.3568   10.5867    1.9833 H   0  0  0  0  0  0  0  0  0  0  0  0
   12.4776   10.5259    2.8988 H   0  0  0  0  0  0  0  0  0  0  0  0
   11.9660    9.7492    4.4105 H   0  0  0  0  0  0  0  0  0  0  0  0
  1  2  1  0
  2  3  1  0
  2  4  1  0
  4  5  1  0
  5  6  1  0
  6  7  1  0
  7  8  1  0
  8  9  2  0
  8 10  1  0
 10 11  1  0
 11 12  1  0
 12 13  2  0
 13 14  1  0
 14 15  1  0
  7 16  1  0
 16 17  1  0
 17  4  1  0
 15 11  2  0
  1 18  1  0
  1 19  1  0
  1 20  1  0
  2 21  1  0
  3 22  1  0
  3 23  1  0
  3 24  1  0
  4 25  1  0
  5 26  1  0
  5 27  1  0
  6 28  1  0
  6 29  1  0
  7 30  1  0
 10 31  1  0
 12 32  1  0
 13 33  1  0
 14 34  1  0
 16 35  1  0
 16 36  1  0
 17 37  1  0
 17 38  1  0
M  CHG  1   3   1
M  END
>  <EmbedRMS>  (69) 
0.20783527019262546

$$$$

     RDKit          3D

 40 41  0  0  0  0  0  0  0  0999 V2000
   13.9332    7.3332    1.0251 C   0  0  0  0  0  0  0  0  0  0  0  0
   13.7125    7.9146    2.4297 C   0  0  0  0  0  0  0  0  0  0  0  0
   14.6504    9.0165    2.6726 N   0  0  0  0  0  4  0  0  0  0  0  0
   12.2364    8.2979    2.7979 C   0  0  0  0  0  0  0  0  0  0  0  0
   11.1515    7.3120    2.3262 C   0  0  0  0  0  0  0  0  0  0  0  0
    9.7912    7.9324    2.0765 C   0  0  0  0  0  0  0  0  0  0  0  0
    9.4261    8.9806    3.1220 C   0  0  0  0  0  0  0  0  0  0  0  0
    8.0225    9.4639    2.8667 C   0  0  0  0  0  0  0  0  0  0  0  0
    7.6546    9.6768    1.6802 O   0  0  0  0  0  0  0  0  0  0  0  0
    7.1435    9.7011    3.9767 N   0  0  0  0  0  0  0  0  0  0  0  0
    5.7719   10.1423    3.9218 C   0  0  0  0  0  0  0  0  0  0  0  0
    5.0682   10.2866    5.1272 C   0  0  0  0  0  0  0  0  0  0  0  0
    3.7425   10.7162    5.1245 C   0  0  0  0  0  0  0  0  0  0  0  0
    3.1199   11.0021    3.9115 C   0  0  0  0  0  0  0  0  0  0  0  0
    3.8030   10.8612    2.7487 N   0  0  0  0  0  0  0  0  0  0  0  0
    5.0935   10.4449    2.7201 C   0  0  0  0  0  0  0  0  0  0  0  0
   10.3969   10.1658    3.0679 C   0  0  0  0  0  0  0  0  0  0  0  0
   11.8884    9.7884    2.9926 C   0  0  0  0  0  0  0  0  0  0  0  0
   13.4390    7.9746    0.2649 H   0  0  0  0  0  0  0  0  0  0  0  0
   13.5402    6.2972    0.9560 H   0  0  0  0  0  0  0  0  0  0  0  0
   15.0172    7.2785    0.7884 H   0  0  0  0  0  0  0  0  0  0  0  0
   14.0108    7.0845    3.1148 H   0  0  0  0  0  0  0  0  0  0  0  0
   14.5446    9.3791    3.6472 H   0  0  0  0  0  0  0  0  0  0  0  0
   14.5091    9.7874    1.9809 H   0  0  0  0  0  0  0  0  0  0  0  0
   15.6338    8.6709    2.5809 H   0  0  0  0  0  0  0  0  0  0  0  0
   12.2424    8.0318    3.8833 H   0  0  0  0  0  0  0  0  0  0  0  0
   11.4353    6.8245    1.3751 H   0  0  0  0  0  0  0  0  0  0  0  0
   11.0353    6.4818    3.0616 H   0  0  0  0  0  0  0  0  0  0  0  0
    9.8005    8.4008    1.0657 H   0  0  0  0  0  0  0  0  0  0  0  0
    9.0262    7.1237    2.0652 H   0  0  0  0  0  0  0  0  0  0  0  0
    9.4833    8.5087    4.1284 H   0  0  0  0  0  0  0  0  0  0  0  0
    7.5457    9.5319    4.9268 H   0  0  0  0  0  0  0  0  0  0  0  0
    5.5478   10.0665    6.0729 H   0  0  0  0  0  0  0  0  0  0  0  0
    3.2017   10.8271    6.0555 H   0  0  0  0  0  0  0  0  0  0  0  0
    2.0913   11.3366    3.8945 H   0  0  0  0  0  0  0  0  0  0  0  0
    5.5409   10.3704    1.7502 H   0  0  0  0  0  0  0  0  0  0  0  0
   10.1534   10.7936    2.1801 H   0  0  0  0  0  0  0  0  0  0  0  0
   10.2256   10.8070    3.9610 H   0  0  0  0  0  0  0  0  0  0  0  0
   12.3112   10.3420    2.1274 H   0  0  0  0  0  0  0  0  0  0  0  0
   12.4001   10.1967    3.8942 H   0  0  0  0  0  0  0  0  0  0  0  0
  1  2  1  0
  2  3  1  0
  2  4  1  0
  4  5  1  0
  5  6  1  0
  6  7  1  0
  7  8  1  0
  8  9  2  0
  8 10  1  0
 10 11  1  0
 11 12  2  0
 12 13  1  0
 13 14  2  0
 14 15  1  0
 15 16  2  0
  7 17  1  0
 17 18  1  0
 18  4  1  0
 16 11  1  0
  1 19  1  0
  1 20  1  0
  1 21  1  0
  2 22  1  0
  3 23  1  0
  3 24  1  0
  3 25  1  0
  4 26  1  0
  5 27  1  0
  5 28  1  0
  6 29  1  0
  6 30  1  0
  7 31  1  0
 10 32  1  0
 12 33  1  0
 13 34  1  0
 14 35  1  0
 16 36  1  0
 17 37  1  0
 17 38  1  0
 18 39  1  0
 18 40  1  0
M  CHG  1   3   1
M  END
>  <EmbedRMS>  (70) 
0.16496192233382964

$$$$

     RDKit          3D

 36 37  0  0  0  0  0  0  0  0999 V2000
   14.0493    7.2193    1.1050 C   0  0  0  0  0  0  0  0  0  0  0  0
   13.6504    7.9554    2.3993 C   0  0  0  0  0  0  0  0  0  0  0  0
   14.6296    9.0157    2.6712 N   0  0  0  0  0  4  0  0  0  0  0  0
   12.2010    8.5115    2.2743 C   0  0  0  0  0  0  0  0  0  0  0  0
   11.1819    7.3649    2.4368 C   0  0  0  0  0  0  0  0  0  0  0  0
    9.7737    7.8702    2.1577 C   0  0  0  0  0  0  0  0  0  0  0  0
    9.4107    8.9932    3.1351 C   0  0  0  0  0  0  0  0  0  0  0  0
    8.0164    9.4808    2.8685 C   0  0  0  0  0  0  0  0  0  0  0  0
    7.6391    9.6869    1.6832 O   0  0  0  0  0  0  0  0  0  0  0  0
    7.1375    9.7093    3.9781 N   0  0  0  0  0  0  0  0  0  0  0  0
    5.8024   10.1339    3.8648 N   0  0  0  0  0  0  0  0  0  0  0  0
    5.0891   10.4350    2.7649 C   0  0  0  0  0  0  0  0  0  0  0  0
    3.8511   10.8090    3.1324 N   0  0  0  0  0  0  0  0  0  0  0  0
    3.8326   10.7284    4.4568 N   0  0  0  0  0  0  0  0  0  0  0  0
    5.0103   10.3212    4.9024 N   0  0  0  0  0  0  0  0  0  0  0  0
   10.4250   10.1478    3.0673 C   0  0  0  0  0  0  0  0  0  0  0  0
   11.8597    9.6371    3.2822 C   0  0  0  0  0  0  0  0  0  0  0  0
   13.4184    6.3266    0.9274 H   0  0  0  0  0  0  0  0  0  0  0  0
   13.9786    7.8974    0.2277 H   0  0  0  0  0  0  0  0  0  0  0  0
   15.0967    6.8577    1.1807 H   0  0  0  0  0  0  0  0  0  0  0  0
   13.6924    7.2247    3.2393 H   0  0  0  0  0  0  0  0  0  0  0  0
   14.5437    9.7864    1.9687 H   0  0  0  0  0  0  0  0  0  0  0  0
   15.6011    8.6300    2.6300 H   0  0  0  0  0  0  0  0  0  0  0  0
   14.4973    9.3931    3.6370 H   0  0  0  0  0  0  0  0  0  0  0  0
   12.0884    8.9466    1.2543 H   0  0  0  0  0  0  0  0  0  0  0  0
   11.2361    6.9392    3.4637 H   0  0  0  0  0  0  0  0  0  0  0  0
   11.3838    6.5437    1.7209 H   0  0  0  0  0  0  0  0  0  0  0  0
    9.0585    7.0265    2.2773 H   0  0  0  0  0  0  0  0  0  0  0  0
    9.7125    8.2279    1.1053 H   0  0  0  0  0  0  0  0  0  0  0  0
    9.4457    8.5665    4.1631 H   0  0  0  0  0  0  0  0  0  0  0  0
    7.5111    9.5493    4.9409 H   0  0  0  0  0  0  0  0  0  0  0  0
    5.4204   10.3987    1.7401 H   0  0  0  0  0  0  0  0  0  0  0  0
   10.1866   10.8996    3.8512 H   0  0  0  0  0  0  0  0  0  0  0  0
   10.3596   10.6516    2.0770 H   0  0  0  0  0  0  0  0  0  0  0  0
   11.9752    9.2650    4.3241 H   0  0  0  0  0  0  0  0  0  0  0  0
   12.5387   10.5043    3.1424 H   0  0  0  0  0  0  0  0  0  0  0  0
  1  2  1  0
  2  3  1  0
  2  4  1  0
  4  5  1  0
  5  6  1  0
  6  7  1  0
  7  8  1  0
  8  9  2  0
  8 10  1  0
 10 11  1  0
 11 12  1  0
 12 13  2  0
 13 14  1  0
 14 15  2  0
  7 16  1  0
 16 17  1  0
 17  4  1  0
 15 11  1  0
  1 18  1  0
  1 19  1  0
  1 20  1  0
  2 21  1  0
  3 22  1  0
  3 23  1  0
  3 24  1  0
  4 25  1  0
  5 26  1  0
  5 27  1  0
  6 28  1  0
  6 29  1  0
  7 30  1  0
 10 31  1  0
 12 32  1  0
 16 33  1  0
 16 34  1  0
 17 35  1  0
 17 36  1  0
M  CHG  1   3   1
M  END
>  <EmbedRMS>  (71) 
0.030620254940186248

$$$$

     RDKit          3D

 34 34  0  0  0  0  0  0  0  0999 V2000
    5.8329   10.1084    3.8848 C   0  0  0  0  0  0  0  0  0  0  0  0
    7.2300    9.6721    3.9456 N   0  0  0  0  0  0  0  0  0  0  0  0
    7.9825    9.5176    2.7336 C   0  0  0  0  0  0  0  0  0  0  0  0
    7.4038    9.6808    1.6309 O   0  0  0  0  0  0  0  0  0  0  0  0
    9.4450    9.1949    2.6523 C   0  0  0  0  0  0  0  0  0  0  0  0
    9.7659    7.7145    2.4310 C   0  0  0  0  0  0  0  0  0  0  0  0
   11.2645    7.3643    2.5394 C   0  0  0  0  0  0  0  0  0  0  0  0
   12.1440    8.5865    2.2316 C   0  0  0  0  0  0  0  0  0  0  0  0
   13.6550    8.3396    1.9330 C   0  0  0  0  0  0  0  0  0  0  0  0
   14.0142    7.0445    1.2245 C   0  0  0  0  0  0  0  0  0  0  0  0
   14.6175    8.7737    2.9400 N   0  0  0  0  0  4  0  0  0  0  0  0
   11.8902    9.6847    3.2842 C   0  0  0  0  0  0  0  0  0  0  0  0
   10.4057   10.0818    3.4290 C   0  0  0  0  0  0  0  0  0  0  0  0
    5.7674   11.1015    3.3922 H   0  0  0  0  0  0  0  0  0  0  0  0
    5.4215   10.1915    4.9127 H   0  0  0  0  0  0  0  0  0  0  0  0
    5.2299    9.3684    3.3173 H   0  0  0  0  0  0  0  0  0  0  0  0
    7.6848    9.4991    4.8697 H   0  0  0  0  0  0  0  0  0  0  0  0
    9.6804    9.5858    1.6329 H   0  0  0  0  0  0  0  0  0  0  0  0
    9.2153    7.1145    3.1879 H   0  0  0  0  0  0  0  0  0  0  0  0
    9.3849    7.3947    1.4340 H   0  0  0  0  0  0  0  0  0  0  0  0
   11.4945    7.0012    3.5653 H   0  0  0  0  0  0  0  0  0  0  0  0
   11.4746    6.5314    1.8369 H   0  0  0  0  0  0  0  0  0  0  0  0
   11.7511    8.9795    1.2646 H   0  0  0  0  0  0  0  0  0  0  0  0
   13.8453    9.0650    1.1029 H   0  0  0  0  0  0  0  0  0  0  0  0
   15.0594    7.0787    0.8480 H   0  0  0  0  0  0  0  0  0  0  0  0
   13.3413    6.8737    0.3566 H   0  0  0  0  0  0  0  0  0  0  0  0
   13.9245    6.1932    1.9314 H   0  0  0  0  0  0  0  0  0  0  0  0
   15.5929    8.5546    2.6319 H   0  0  0  0  0  0  0  0  0  0  0  0
   14.5663    9.8048    3.1021 H   0  0  0  0  0  0  0  0  0  0  0  0
   14.4328    8.2662    3.8350 H   0  0  0  0  0  0  0  0  0  0  0  0
   12.2711    9.3420    4.2714 H   0  0  0  0  0  0  0  0  0  0  0  0
   12.4559   10.5993    3.0033 H   0  0  0  0  0  0  0  0  0  0  0  0
   10.1327   10.0263    4.5050 H   0  0  0  0  0  0  0  0  0  0  0  0
   10.2681   11.1447    3.1242 H   0  0  0  0  0  0  0  0  0  0  0  0
  1  2  1  0
  2  3  1  0
  3  4  2  0
  3  5  1  0
  5  6  1  0
  6  7  1  0
  7  8  1  0
  8  9  1  0
  9 10  1  0
  9 11  1  0
  8 12  1  0
 12 13  1  0
 13  5  1  0
  1 14  1  0
  1 15  1  0
  1 16  1  0
  2 17  1  0
  5 18  1  0
  6 19  1  0
  6 20  1  0
  7 21  1  0
  7 22  1  0
  8 23  1  0
  9 24  1  0
 10 25  1  0
 10 26  1  0
 10 27  1  0
 11 28  1  0
 11 29  1  0
 11 30  1  0
 12 31  1  0
 12 32  1  0
 13 33  1  0
 13 34  1  0
M  CHG  1  11   1
M  END
>  <EmbedRMS>  (72) 
0.29639754771625826

$$$$

     RDKit          3D

 42 42  0  0  0  0  0  0  0  0999 V2000
    5.0257   11.5044    7.1900 C   0  0  0  0  0  0  0  0  0  0  0  0
    5.6807   11.3994    5.8873 N   0  0  0  0  0  0  0  0  0  0  0  0
    5.1265   10.2565    5.1587 C   0  0  0  0  0  0  0  0  0  0  0  0
    5.8116   10.1025    3.8067 C   0  0  0  0  0  0  0  0  0  0  0  0
    7.2196    9.6920    3.9301 N   0  0  0  0  0  0  0  0  0  0  0  0
    7.9881    9.5294    2.7253 C   0  0  0  0  0  0  0  0  0  0  0  0
    7.4189    9.6827    1.6169 O   0  0  0  0  0  0  0  0  0  0  0  0
    9.4497    9.2030    2.6410 C   0  0  0  0  0  0  0  0  0  0  0  0
    9.7440    7.7272    2.5458 C   0  0  0  0  0  0  0  0  0  0  0  0
   11.1788    7.4404    2.1350 C   0  0  0  0  0  0  0  0  0  0  0  0
   12.2612    8.3272    2.7675 C   0  0  0  0  0  0  0  0  0  0  0  0
   13.6004    8.3243    1.9898 C   0  0  0  0  0  0  0  0  0  0  0  0
   14.0109    7.0505    1.2528 C   0  0  0  0  0  0  0  0  0  0  0  0
   14.7026    8.8916    2.7694 N   0  0  0  0  0  4  0  0  0  0  0  0
   11.8497    9.7808    3.1224 C   0  0  0  0  0  0  0  0  0  0  0  0
   10.3862   10.0203    3.4860 C   0  0  0  0  0  0  0  0  0  0  0  0
    5.2285   10.5981    7.8010 H   0  0  0  0  0  0  0  0  0  0  0  0
    5.4350   12.3806    7.7358 H   0  0  0  0  0  0  0  0  0  0  0  0
    3.9276   11.6445    7.0765 H   0  0  0  0  0  0  0  0  0  0  0  0
    5.4511   12.2713    5.3543 H   0  0  0  0  0  0  0  0  0  0  0  0
    5.2689    9.3183    5.7408 H   0  0  0  0  0  0  0  0  0  0  0  0
    4.0354   10.4024    4.9866 H   0  0  0  0  0  0  0  0  0  0  0  0
    5.7486   11.0627    3.2487 H   0  0  0  0  0  0  0  0  0  0  0  0
    5.2618    9.3309    3.2247 H   0  0  0  0  0  0  0  0  0  0  0  0
    7.6677    9.5444    4.8624 H   0  0  0  0  0  0  0  0  0  0  0  0
    9.7224    9.5622    1.6175 H   0  0  0  0  0  0  0  0  0  0  0  0
    9.0531    7.2385    1.8225 H   0  0  0  0  0  0  0  0  0  0  0  0
    9.5612    7.2703    3.5430 H   0  0  0  0  0  0  0  0  0  0  0  0
   11.2120    7.5933    1.0341 H   0  0  0  0  0  0  0  0  0  0  0  0
   11.4052    6.3675    2.3230 H   0  0  0  0  0  0  0  0  0  0  0  0
   12.4686    7.8402    3.7471 H   0  0  0  0  0  0  0  0  0  0  0  0
   13.4361    9.0284    1.1410 H   0  0  0  0  0  0  0  0  0  0  0  0
   14.1174    6.2178    1.9795 H   0  0  0  0  0  0  0  0  0  0  0  0
   13.2663    6.7641    0.4820 H   0  0  0  0  0  0  0  0  0  0  0  0
   14.9821    7.1930    0.7325 H   0  0  0  0  0  0  0  0  0  0  0  0
   14.5209    9.8925    3.0065 H   0  0  0  0  0  0  0  0  0  0  0  0
   14.8376    8.3421    3.6488 H   0  0  0  0  0  0  0  0  0  0  0  0
   15.5921    8.8661    2.2197 H   0  0  0  0  0  0  0  0  0  0  0  0
   12.4719   10.1522    3.9657 H   0  0  0  0  0  0  0  0  0  0  0  0
   12.0645   10.4406    2.2528 H   0  0  0  0  0  0  0  0  0  0  0  0
   10.1489   11.1035    3.3905 H   0  0  0  0  0  0  0  0  0  0  0  0
   10.2335    9.7353    4.5497 H   0  0  0  0  0  0  0  0  0  0  0  0
  1  2  1  0
  2  3  1  0
  3  4  1  0
  4  5  1  0
  5  6  1  0
  6  7  2  0
  6  8  1  0
  8  9  1  0
  9 10  1  0
 10 11  1  0
 11 12  1  0
 12 13  1  0
 12 14  1  0
 11 15  1  0
 15 16  1  0
 16  8  1  0
  1 17  1  0
  1 18  1  0
  1 19  1  0
  2 20  1  0
  3 21  1  0
  3 22  1  0
  4 23  1  0
  4 24  1  0
  5 25  1  0
  8 26  1  0
  9 27  1  0
  9 28  1  0
 10 29  1  0
 10 30  1  0
 11 31  1  0
 12 32  1  0
 13 33  1  0
 13 34  1  0
 13 35  1  0
 14 36  1  0
 14 37  1  0
 14 38  1  0
 15 39  1  0
 15 40  1  0
 16 41  1  0
 16 42  1  0
M  CHG  1  14   1
M  END
>  <EmbedRMS>  (73) 
0.31072278256227437

$$$$

     RDKit          3D

 40 41  0  0  0  0  0  0  0  0999 V2000
   13.9332    7.3332    1.0251 C   0  0  0  0  0  0  0  0  0  0  0  0
   13.7125    7.9146    2.4297 C   0  0  0  0  0  0  0  0  0  0  0  0
   14.6504    9.0165    2.6726 N   0  0  0  0  0  4  0  0  0  0  0  0
   12.2364    8.2979    2.7979 C   0  0  0  0  0  0  0  0  0  0  0  0
   11.1515    7.3120    2.3262 C   0  0  0  0  0  0  0  0  0  0  0  0
    9.7912    7.9324    2.0765 C   0  0  0  0  0  0  0  0  0  0  0  0
    9.4261    8.9806    3.1220 C   0  0  0  0  0  0  0  0  0  0  0  0
    8.0225    9.4639    2.8667 C   0  0  0  0  0  0  0  0  0  0  0  0
    7.6546    9.6768    1.6802 O   0  0  0  0  0  0  0  0  0  0  0  0
    7.1435    9.7011    3.9767 N   0  0  0  0  0  0  0  0  0  0  0  0
    5.7719   10.1423    3.9218 C   0  0  0  0  0  0  0  0  0  0  0  0
    5.0682   10.2866    5.1272 C   0  0  0  0  0  0  0  0  0  0  0  0
    3.7425   10.7162    5.1245 C   0  0  0  0  0  0  0  0  0  0  0  0
    3.1199   11.0021    3.9115 C   0  0  0  0  0  0  0  0  0  0  0  0
    3.8030   10.8612    2.7487 N   0  0  0  0  0  0  0  0  0  0  0  0
    5.0935   10.4449    2.7201 C   0  0  0  0  0  0  0  0  0  0  0  0
   10.3969   10.1658    3.0679 C   0  0  0  0  0  0  0  0  0  0  0  0
   11.8884    9.7884    2.9926 C   0  0  0  0  0  0  0  0  0  0  0  0
   13.4390    7.9746    0.2649 H   0  0  0  0  0  0  0  0  0  0  0  0
   13.5402    6.2972    0.9560 H   0  0  0  0  0  0  0  0  0  0  0  0
   15.0172    7.2785    0.7884 H   0  0  0  0  0  0  0  0  0  0  0  0
   14.0108    7.0845    3.1148 H   0  0  0  0  0  0  0  0  0  0  0  0
   14.5446    9.3791    3.6472 H   0  0  0  0  0  0  0  0  0  0  0  0
   14.5091    9.7874    1.9809 H   0  0  0  0  0  0  0  0  0  0  0  0
   15.6338    8.6709    2.5809 H   0  0  0  0  0  0  0  0  0  0  0  0
   12.2424    8.0318    3.8833 H   0  0  0  0  0  0  0  0  0  0  0  0
   11.4353    6.8245    1.3751 H   0  0  0  0  0  0  0  0  0  0  0  0
   11.0353    6.4818    3.0616 H   0  0  0  0  0  0  0  0  0  0  0  0
    9.8005    8.4008    1.0657 H   0  0  0  0  0  0  0  0  0  0  0  0
    9.0262    7.1237    2.0652 H   0  0  0  0  0  0  0  0  0  0  0  0
    9.4833    8.5087    4.1284 H   0  0  0  0  0  0  0  0  0  0  0  0
    7.5457    9.5319    4.9268 H   0  0  0  0  0  0  0  0  0  0  0  0
    5.5478   10.0665    6.0729 H   0  0  0  0  0  0  0  0  0  0  0  0
    3.2017   10.8271    6.0555 H   0  0  0  0  0  0  0  0  0  0  0  0
    2.0913   11.3366    3.8945 H   0  0  0  0  0  0  0  0  0  0  0  0
    5.5409   10.3704    1.7502 H   0  0  0  0  0  0  0  0  0  0  0  0
   10.1534   10.7936    2.1801 H   0  0  0  0  0  0  0  0  0  0  0  0
   10.2256   10.8070    3.9610 H   0  0  0  0  0  0  0  0  0  0  0  0
   12.3112   10.3420    2.1274 H   0  0  0  0  0  0  0  0  0  0  0  0
   12.4001   10.1967    3.8942 H   0  0  0  0  0  0  0  0  0  0  0  0
  1  2  1  0
  2  3  1  0
  2  4  1  0
  4  5  1  0
  5  6  1  0
  6  7  1  0
  7  8  1  0
  8  9  2  0
  8 10  1  0
 10 11  1  0
 11 12  2  0
 12 13  1  0
 13 14  2  0
 14 15  1  0
 15 16  2  0
  7 17  1  0
 17 18  1  0
 18  4  1  0
 16 11  1  0
  1 19  1  0
  1 20  1  0
  1 21  1  0
  2 22  1  0
  3 23  1  0
  3 24  1  0
  3 25  1  0
  4 26  1  0
  5 27  1  0
  5 28  1  0
  6 29  1  0
  6 30  1  0
  7 31  1  0
 10 32  1  0
 12 33  1  0
 13 34  1  0
 14 35  1  0
 16 36  1  0
 17 37  1  0
 17 38  1  0
 18 39  1  0
 18 40  1  0
M  CHG  1   3   1
M  END
>  <EmbedRMS>  (74) 
0.16496192233382964

$$$$

     RDKit          3D

 41 41  0  0  0  0  0  0  0  0999 V2000
   14.0128    7.0451    1.2246 C   0  0  0  0  0  0  0  0  0  0  0  0
   13.6534    8.3401    1.9332 C   0  0  0  0  0  0  0  0  0  0  0  0
   14.6165    8.7744    2.9395 N   0  0  0  0  0  4  0  0  0  0  0  0
   12.1420    8.5872    2.2327 C   0  0  0  0  0  0  0  0  0  0  0  0
   11.2631    7.3648    2.5405 C   0  0  0  0  0  0  0  0  0  0  0  0
    9.7641    7.7145    2.4333 C   0  0  0  0  0  0  0  0  0  0  0  0
    9.4407    9.1935    2.6636 C   0  0  0  0  0  0  0  0  0  0  0  0
    7.9759    9.5184    2.7373 C   0  0  0  0  0  0  0  0  0  0  0  0
    7.4055    9.6789    1.6302 O   0  0  0  0  0  0  0  0  0  0  0  0
    7.2040    9.6832    3.9346 N   0  0  0  0  0  0  0  0  0  0  0  0
    5.8641   10.1055    3.8043 N   0  0  0  0  0  0  0  0  0  0  0  0
    5.0841   10.3002    4.8217 C   0  0  0  0  0  0  0  0  0  0  0  0
    3.7250   10.7402    4.6402 N   0  0  0  0  0  0  0  0  0  0  0  0
    3.1736   10.9931    3.3107 C   0  0  0  0  0  0  0  0  0  0  0  0
    2.9039   10.9373    5.7626 N   0  0  0  0  0  0  0  0  0  0  0  0
   10.4042   10.0821    3.4346 C   0  0  0  0  0  0  0  0  0  0  0  0
   11.8889    9.6848    3.2863 C   0  0  0  0  0  0  0  0  0  0  0  0
   13.3395    6.8740    0.3571 H   0  0  0  0  0  0  0  0  0  0  0  0
   13.9237    6.1938    1.9316 H   0  0  0  0  0  0  0  0  0  0  0  0
   15.0578    7.0796    0.8475 H   0  0  0  0  0  0  0  0  0  0  0  0
   13.8429    9.0655    1.1030 H   0  0  0  0  0  0  0  0  0  0  0  0
   14.5651    9.8056    3.1016 H   0  0  0  0  0  0  0  0  0  0  0  0
   15.5918    8.5556    2.6309 H   0  0  0  0  0  0  0  0  0  0  0  0
   14.4325    8.2671    3.8348 H   0  0  0  0  0  0  0  0  0  0  0  0
   11.7481    8.9809    1.2663 H   0  0  0  0  0  0  0  0  0  0  0  0
   11.4729    6.5322    1.8376 H   0  0  0  0  0  0  0  0  0  0  0  0
   11.4938    7.0013    3.5661 H   0  0  0  0  0  0  0  0  0  0  0  0
    9.2137    7.1097    3.1865 H   0  0  0  0  0  0  0  0  0  0  0  0
    9.3838    7.3994    1.4344 H   0  0  0  0  0  0  0  0  0  0  0  0
    9.6779    9.5856    1.6451 H   0  0  0  0  0  0  0  0  0  0  0  0
    7.6358    9.5215    4.8725 H   0  0  0  0  0  0  0  0  0  0  0  0
    5.4574   10.1340    5.8255 H   0  0  0  0  0  0  0  0  0  0  0  0
    3.7613   11.7883    2.8055 H   0  0  0  0  0  0  0  0  0  0  0  0
    3.2128   10.0634    2.7049 H   0  0  0  0  0  0  0  0  0  0  0  0
    2.1160   11.3250    3.3845 H   0  0  0  0  0  0  0  0  0  0  0  0
    2.8597   10.0339    6.2873 H   0  0  0  0  0  0  0  0  0  0  0  0
    3.3700   11.6423    6.3784 H   0  0  0  0  0  0  0  0  0  0  0  0
   10.1334   10.0287    4.5113 H   0  0  0  0  0  0  0  0  0  0  0  0
   10.2657   11.1447    3.1286 H   0  0  0  0  0  0  0  0  0  0  0  0
   12.2714    9.3416    4.2727 H   0  0  0  0  0  0  0  0  0  0  0  0
   12.4541   10.5996    3.0053 H   0  0  0  0  0  0  0  0  0  0  0  0
  1  2  1  0
  2  3  1  0
  2  4  1  0
  4  5  1  0
  5  6  1  0
  6  7  1  0
  7  8  1  0
  8  9  2  0
  8 10  1  0
 10 11  1  0
 11 12  2  3
 12 13  1  0
 13 14  1  0
 13 15  1  0
  7 16  1  0
 16 17  1  0
 17  4  1  0
  1 18  1  0
  1 19  1  0
  1 20  1  0
  2 21  1  0
  3 22  1  0
  3 23  1  0
  3 24  1  0
  4 25  1  0
  5 26  1  0
  5 27  1  0
  6 28  1  0
  6 29  1  0
  7 30  1  0
 10 31  1  0
 12 32  1  0
 14 33  1  0
 14 34  1  0
 14 35  1  0
 15 36  1  0
 15 37  1  0
 16 38  1  0
 16 39  1  0
 17 40  1  0
 17 41  1  0
M  CHG  1   3   1
M  END
>  <EmbedRMS>  (75) 
0.2570984896337683

$$$$

     RDKit          3D

 42 42  0  0  0  0  0  0  0  0999 V2000
    8.6750    8.1658    7.0703 C   0  0  0  0  0  0  0  0  0  0  0  0
    8.3763    8.4580    5.8022 C   0  0  0  0  0  0  0  0  0  0  0  0
    7.3143    9.3915    5.3537 C   0  0  0  0  0  0  0  0  0  0  0  0
    6.4078    9.8578    6.2465 C   0  0  0  0  0  0  0  0  0  0  0  0
    5.2565   10.7471    5.8877 C   0  0  0  0  0  0  0  0  0  0  0  0
    7.1493    9.7152    3.9495 N   0  0  0  0  0  0  0  0  0  0  0  0
    7.9765    9.4983    2.7821 C   0  0  0  0  0  0  0  0  0  0  0  0
    7.4301    9.6608    1.6607 O   0  0  0  0  0  0  0  0  0  0  0  0
    9.4445    9.1811    2.6937 C   0  0  0  0  0  0  0  0  0  0  0  0
    9.7537    7.7156    2.4382 C   0  0  0  0  0  0  0  0  0  0  0  0
   11.2038    7.4507    2.0892 C   0  0  0  0  0  0  0  0  0  0  0  0
   12.2683    8.3270    2.7571 C   0  0  0  0  0  0  0  0  0  0  0  0
   13.6145    8.3244    1.9914 C   0  0  0  0  0  0  0  0  0  0  0  0
   14.0289    7.0506    1.2546 C   0  0  0  0  0  0  0  0  0  0  0  0
   14.7105    8.8911    2.7788 N   0  0  0  0  0  4  0  0  0  0  0  0
   11.8580    9.7797    3.1035 C   0  0  0  0  0  0  0  0  0  0  0  0
   10.4067   10.0105    3.5026 C   0  0  0  0  0  0  0  0  0  0  0  0
    9.4522    7.4407    7.2763 H   0  0  0  0  0  0  0  0  0  0  0  0
    8.2207    8.6429    7.9236 H   0  0  0  0  0  0  0  0  0  0  0  0
    8.9290    7.9270    5.0689 H   0  0  0  0  0  0  0  0  0  0  0  0
    6.4522    9.5905    7.2899 H   0  0  0  0  0  0  0  0  0  0  0  0
    5.6232   11.6730    5.3961 H   0  0  0  0  0  0  0  0  0  0  0  0
    4.7085   11.0385    6.8086 H   0  0  0  0  0  0  0  0  0  0  0  0
    4.5465   10.2109    5.2233 H   0  0  0  0  0  0  0  0  0  0  0  0
    6.2337   10.1339    3.6758 H   0  0  0  0  0  0  0  0  0  0  0  0
    9.6986    9.5966    1.6856 H   0  0  0  0  0  0  0  0  0  0  0  0
    9.1148    7.3426    1.6051 H   0  0  0  0  0  0  0  0  0  0  0  0
    9.4972    7.0769    3.2974 H   0  0  0  0  0  0  0  0  0  0  0  0
   11.2718    7.6249    0.9927 H   0  0  0  0  0  0  0  0  0  0  0  0
   11.4331    6.3748    2.2587 H   0  0  0  0  0  0  0  0  0  0  0  0
   12.4573    7.8339    3.7373 H   0  0  0  0  0  0  0  0  0  0  0  0
   13.4588    9.0294    1.1415 H   0  0  0  0  0  0  0  0  0  0  0  0
   14.1162    6.2135    1.9787 H   0  0  0  0  0  0  0  0  0  0  0  0
   13.3003    6.7723    0.4659 H   0  0  0  0  0  0  0  0  0  0  0  0
   15.0110    7.1880    0.7539 H   0  0  0  0  0  0  0  0  0  0  0  0
   14.5373    9.8979    2.9966 H   0  0  0  0  0  0  0  0  0  0  0  0
   15.6086    8.8475    2.2446 H   0  0  0  0  0  0  0  0  0  0  0  0
   14.8256    8.3542    3.6688 H   0  0  0  0  0  0  0  0  0  0  0  0
   12.4979   10.1655    3.9267 H   0  0  0  0  0  0  0  0  0  0  0  0
   12.0458   10.4293    2.2200 H   0  0  0  0  0  0  0  0  0  0  0  0
   10.1603   11.0919    3.4053 H   0  0  0  0  0  0  0  0  0  0  0  0
   10.3056    9.7529    4.5738 H   0  0  0  0  0  0  0  0  0  0  0  0
  1  2  2  3
  2  3  1  0
  3  4  2  3
  4  5  1  0
  3  6  1  0
  6  7  1  0
  7  8  2  0
  7  9  1  0
  9 10  1  0
 10 11  1  0
 11 12  1  0
 12 13  1  0
 13 14  1  0
 13 15  1  0
 12 16  1  0
 16 17  1  0
 17  9  1  0
  1 18  1  0
  1 19  1  0
  2 20  1  0
  4 21  1  0
  5 22  1  0
  5 23  1  0
  5 24  1  0
  6 25  1  0
  9 26  1  0
 10 27  1  0
 10 28  1  0
 11 29  1  0
 11 30  1  0
 12 31  1  0
 13 32  1  0
 14 33  1  0
 14 34  1  0
 14 35  1  0
 15 36  1  0
 15 37  1  0
 15 38  1  0
 16 39  1  0
 16 40  1  0
 17 41  1  0
 17 42  1  0
M  CHG  1  15   1
M  END
>  <EmbedRMS>  (76) 
0.29216731409503444

$$$$

     RDKit          3D

 41 42  0  0  0  0  0  0  0  0999 V2000
   13.9847    7.0988    1.1849 C   0  0  0  0  0  0  0  0  0  0  0  0
   13.5816    8.3572    1.9535 C   0  0  0  0  0  0  0  0  0  0  0  0
   14.7124    8.8838    2.7300 N   0  0  0  0  0  4  0  0  0  0  0  0
   12.2773    8.3209    2.7737 C   0  0  0  0  0  0  0  0  0  0  0  0
   11.1607    7.3107    2.3967 C   0  0  0  0  0  0  0  0  0  0  0  0
    9.8034    7.9207    2.0803 C   0  0  0  0  0  0  0  0  0  0  0  0
    9.4183    8.9872    3.1024 C   0  0  0  0  0  0  0  0  0  0  0  0
    8.0148    9.4682    2.8544 C   0  0  0  0  0  0  0  0  0  0  0  0
    7.6247    9.6822    1.6746 O   0  0  0  0  0  0  0  0  0  0  0  0
    7.1491    9.7011    3.9721 N   0  0  0  0  0  0  0  0  0  0  0  0
    5.7839   10.1362    3.8888 C   0  0  0  0  0  0  0  0  0  0  0  0
    5.0471   10.4441    2.7548 C   0  0  0  0  0  0  0  0  0  0  0  0
    3.8048   10.8205    3.1167 N   0  0  0  0  0  0  0  0  0  0  0  0
    3.7319   10.7593    4.4601 C   0  0  0  0  0  0  0  0  0  0  0  0
    4.9425   10.3388    4.9630 C   0  0  0  0  0  0  0  0  0  0  0  0
    5.2501   10.1517    6.3450 N   0  0  0  0  0  0  0  0  0  0  0  0
   10.3993   10.1503    3.0056 C   0  0  0  0  0  0  0  0  0  0  0  0
   11.8332    9.7183    3.3050 C   0  0  0  0  0  0  0  0  0  0  0  0
   13.9884    6.2217    1.8660 H   0  0  0  0  0  0  0  0  0  0  0  0
   13.2931    6.9113    0.3370 H   0  0  0  0  0  0  0  0  0  0  0  0
   15.0007    7.2123    0.7507 H   0  0  0  0  0  0  0  0  0  0  0  0
   13.3811    9.1013    1.1486 H   0  0  0  0  0  0  0  0  0  0  0  0
   14.9961    8.1896    3.4592 H   0  0  0  0  0  0  0  0  0  0  0  0
   14.4935    9.7897    3.1975 H   0  0  0  0  0  0  0  0  0  0  0  0
   15.5297    9.0536    2.0993 H   0  0  0  0  0  0  0  0  0  0  0  0
   12.6604    7.8392    3.7044 H   0  0  0  0  0  0  0  0  0  0  0  0
   11.0039    6.5984    3.2403 H   0  0  0  0  0  0  0  0  0  0  0  0
   11.4456    6.6777    1.5363 H   0  0  0  0  0  0  0  0  0  0  0  0
    9.0397    7.1111    2.0734 H   0  0  0  0  0  0  0  0  0  0  0  0
    9.8376    8.3598    1.0576 H   0  0  0  0  0  0  0  0  0  0  0  0
    9.4769    8.5424    4.1216 H   0  0  0  0  0  0  0  0  0  0  0  0
    7.5505    9.5419    4.9216 H   0  0  0  0  0  0  0  0  0  0  0  0
    5.3694   10.4077    1.7257 H   0  0  0  0  0  0  0  0  0  0  0  0
    3.0363   11.1086    2.4715 H   0  0  0  0  0  0  0  0  0  0  0  0
    2.8497   11.0064    5.0363 H   0  0  0  0  0  0  0  0  0  0  0  0
    6.1878    9.8233    6.6606 H   0  0  0  0  0  0  0  0  0  0  0  0
    4.5231   10.3419    7.0698 H   0  0  0  0  0  0  0  0  0  0  0  0
   10.3596   10.5871    1.9819 H   0  0  0  0  0  0  0  0  0  0  0  0
   10.1052   10.9516    3.7198 H   0  0  0  0  0  0  0  0  0  0  0  0
   11.9647    9.7478    4.4111 H   0  0  0  0  0  0  0  0  0  0  0  0
   12.4788   10.5255    2.9007 H   0  0  0  0  0  0  0  0  0  0  0  0
  1  2  1  0
  2  3  1  0
  2  4  1  0
  4  5  1  0
  5  6  1  0
  6  7  1  0
  7  8  1  0
  8  9  2  0
  8 10  1  0
 10 11  1  0
 11 12  2  0
 12 13  1  0
 13 14  1  0
 14 15  2  0
 15 16  1  0
  7 17  1  0
 17 18  1  0
 18  4  1  0
 15 11  1  0
  1 19  1  0
  1 20  1  0
  1 21  1  0
  2 22  1  0
  3 23  1  0
  3 24  1  0
  3 25  1  0
  4 26  1  0
  5 27  1  0
  5 28  1  0
  6 29  1  0
  6 30  1  0
  7 31  1  0
 10 32  1  0
 12 33  1  0
 13 34  1  0
 14 35  1  0
 16 36  1  0
 16 37  1  0
 17 38  1  0
 17 39  1  0
 18 40  1  0
 18 41  1  0
M  CHG  1   3   1
M  END
>  <EmbedRMS>  (77) 
0.20222811455084339

$$$$

     RDKit          3D

 45 45  0  0  0  0  0  0  0  0999 V2000
    6.6426   12.2821    2.6516 C   0  0  0  0  0  0  0  0  0  0  0  0
    5.6157   11.5113    3.0196 C   0  0  0  0  0  0  0  0  0  0  0  0
    4.2139   11.9100    2.6324 C   0  0  0  0  0  0  0  0  0  0  0  0
    5.8597   10.3523    3.9284 C   0  0  0  0  0  0  0  0  0  0  0  0
    4.8899    9.9517    4.7721 C   0  0  0  0  0  0  0  0  0  0  0  0
    5.0638    8.8198    5.7367 C   0  0  0  0  0  0  0  0  0  0  0  0
    7.1587    9.7297    4.0017 N   0  0  0  0  0  0  0  0  0  0  0  0
    8.0094    9.4770    2.8770 C   0  0  0  0  0  0  0  0  0  0  0  0
    7.5925    9.6699    1.6995 O   0  0  0  0  0  0  0  0  0  0  0  0
    9.4190    8.9882    3.1140 C   0  0  0  0  0  0  0  0  0  0  0  0
    9.7814    7.9392    2.0698 C   0  0  0  0  0  0  0  0  0  0  0  0
   11.1442    7.3173    2.3173 C   0  0  0  0  0  0  0  0  0  0  0  0
   12.2312    8.2990    2.7947 C   0  0  0  0  0  0  0  0  0  0  0  0
   13.7088    7.9146    2.4295 C   0  0  0  0  0  0  0  0  0  0  0  0
   13.9319    7.3320    1.0257 C   0  0  0  0  0  0  0  0  0  0  0  0
   14.6475    9.0159    2.6730 N   0  0  0  0  0  4  0  0  0  0  0  0
   11.8850    9.7892    2.9963 C   0  0  0  0  0  0  0  0  0  0  0  0
   10.3931   10.1701    3.0593 C   0  0  0  0  0  0  0  0  0  0  0  0
    6.5060   13.1634    2.0375 H   0  0  0  0  0  0  0  0  0  0  0  0
    6.5060   13.1634    2.0375 H   0  0  0  0  0  0  0  0  0  0  0  0
    4.2031   12.4754    1.6757 H   0  0  0  0  0  0  0  0  0  0  0  0
    3.5836   11.0078    2.4847 H   0  0  0  0  0  0  0  0  0  0  0  0
    3.7720   12.5450    3.4286 H   0  0  0  0  0  0  0  0  0  0  0  0
    3.9254   10.4428    4.7786 H   0  0  0  0  0  0  0  0  0  0  0  0
    5.3803    7.9015    5.1981 H   0  0  0  0  0  0  0  0  0  0  0  0
    5.8159    9.0848    6.5090 H   0  0  0  0  0  0  0  0  0  0  0  0
    4.0999    8.6139    6.2477 H   0  0  0  0  0  0  0  0  0  0  0  0
    7.5134    9.4348    4.9389 H   0  0  0  0  0  0  0  0  0  0  0  0
    9.4838    8.5152    4.1195 H   0  0  0  0  0  0  0  0  0  0  0  0
    9.7856    8.4081    1.0593 H   0  0  0  0  0  0  0  0  0  0  0  0
    9.0155    7.1315    2.0616 H   0  0  0  0  0  0  0  0  0  0  0  0
   11.4284    6.8358    1.3632 H   0  0  0  0  0  0  0  0  0  0  0  0
   11.0277    6.4824    3.0472 H   0  0  0  0  0  0  0  0  0  0  0  0
   12.2338    8.0276    3.8788 H   0  0  0  0  0  0  0  0  0  0  0  0
   14.0054    7.0847    3.1155 H   0  0  0  0  0  0  0  0  0  0  0  0
   13.5346    6.2977    0.9557 H   0  0  0  0  0  0  0  0  0  0  0  0
   13.4427    7.9752    0.2638 H   0  0  0  0  0  0  0  0  0  0  0  0
   15.0164    7.2729    0.7928 H   0  0  0  0  0  0  0  0  0  0  0  0
   14.5093    9.7854    1.9790 H   0  0  0  0  0  0  0  0  0  0  0  0
   14.5387    9.3811    3.6464 H   0  0  0  0  0  0  0  0  0  0  0  0
   15.6306    8.6688    2.5853 H   0  0  0  0  0  0  0  0  0  0  0  0
   12.3172   10.3488    2.1397 H   0  0  0  0  0  0  0  0  0  0  0  0
   12.3886   10.1897    3.9059 H   0  0  0  0  0  0  0  0  0  0  0  0
   10.1546   10.7911    2.1654 H   0  0  0  0  0  0  0  0  0  0  0  0
   10.2174   10.8183    3.9465 H   0  0  0  0  0  0  0  0  0  0  0  0
  1  2  2  3
  2  3  1  0
  2  4  1  0
  4  5  2  3
  5  6  1  0
  4  7  1  0
  7  8  1  0
  8  9  2  0
  8 10  1  0
 10 11  1  0
 11 12  1  0
 12 13  1  0
 13 14  1  0
 14 15  1  0
 14 16  1  0
 13 17  1  0
 17 18  1  0
 18 10  1  0
  1 19  1  0
  1 20  1  0
  3 21  1  0
  3 22  1  0
  3 23  1  0
  5 24  1  0
  6 25  1  0
  6 26  1  0
  6 27  1  0
  7 28  1  0
 10 29  1  0
 11 30  1  0
 11 31  1  0
 12 32  1  0
 12 33  1  0
 13 34  1  0
 14 35  1  0
 15 36  1  0
 15 37  1  0
 15 38  1  0
 16 39  1  0
 16 40  1  0
 16 41  1  0
 17 42  1  0
 17 43  1  0
 18 44  1  0
 18 45  1  0
M  CHG  1  16   1
M  END
>  <EmbedRMS>  (78) 
0.16480955270904202

$$$$

     RDKit          3D

 42 43  0  0  0  0  0  0  0  0999 V2000
   14.0493    7.2191    1.1051 C   0  0  0  0  0  0  0  0  0  0  0  0
   13.6501    7.9553    2.3992 C   0  0  0  0  0  0  0  0  0  0  0  0
   14.6294    9.0154    2.6715 N   0  0  0  0  0  4  0  0  0  0  0  0
   12.2009    8.5118    2.2736 C   0  0  0  0  0  0  0  0  0  0  0  0
   11.1809    7.3656    2.4346 C   0  0  0  0  0  0  0  0  0  0  0  0
    9.7729    7.8717    2.1538 C   0  0  0  0  0  0  0  0  0  0  0  0
    9.4103    8.9943    3.1306 C   0  0  0  0  0  0  0  0  0  0  0  0
    8.0149    9.4815    2.8682 C   0  0  0  0  0  0  0  0  0  0  0  0
    7.6173    9.6904    1.6874 O   0  0  0  0  0  0  0  0  0  0  0  0
    7.1417    9.7099    3.9743 N   0  0  0  0  0  0  0  0  0  0  0  0
    5.7644   10.1427    3.7843 C   0  0  0  0  0  0  0  0  0  0  0  0
    5.0938   10.2820    5.1090 C   0  0  0  0  0  0  0  0  0  0  0  0
    4.4467    9.2806    5.8035 C   0  0  0  0  0  0  0  0  0  0  0  0
    4.0721    9.8422    7.0072 C   0  0  0  0  0  0  0  0  0  0  0  0
    4.4826   11.1235    7.0714 N   0  0  0  0  0  0  0  0  0  0  0  0
    5.1197   11.3965    5.9199 C   0  0  0  0  0  0  0  0  0  0  0  0
   10.4247   10.1487    3.0652 C   0  0  0  0  0  0  0  0  0  0  0  0
   11.8591    9.6373    3.2815 C   0  0  0  0  0  0  0  0  0  0  0  0
   15.0967    6.8575    1.1812 H   0  0  0  0  0  0  0  0  0  0  0  0
   13.4185    6.3264    0.9274 H   0  0  0  0  0  0  0  0  0  0  0  0
   13.9790    7.8971    0.2277 H   0  0  0  0  0  0  0  0  0  0  0  0
   13.6915    7.2247    3.2393 H   0  0  0  0  0  0  0  0  0  0  0  0
   14.4968    9.3929    3.6372 H   0  0  0  0  0  0  0  0  0  0  0  0
   15.6009    8.6295    2.6307 H   0  0  0  0  0  0  0  0  0  0  0  0
   14.5439    9.7861    1.9690 H   0  0  0  0  0  0  0  0  0  0  0  0
   12.0893    8.9474    1.2537 H   0  0  0  0  0  0  0  0  0  0  0  0
   11.3832    6.5446    1.7185 H   0  0  0  0  0  0  0  0  0  0  0  0
   11.2338    6.9395    3.4614 H   0  0  0  0  0  0  0  0  0  0  0  0
    9.0571    7.0285    2.2727 H   0  0  0  0  0  0  0  0  0  0  0  0
    9.7120    8.2305    1.1018 H   0  0  0  0  0  0  0  0  0  0  0  0
    9.4456    8.5669    4.1583 H   0  0  0  0  0  0  0  0  0  0  0  0
    7.5108    9.5642    4.9425 H   0  0  0  0  0  0  0  0  0  0  0  0
    5.7493   11.1193    3.2541 H   0  0  0  0  0  0  0  0  0  0  0  0
    5.2195    9.3950    3.1684 H   0  0  0  0  0  0  0  0  0  0  0  0
    4.2767    8.2625    5.4788 H   0  0  0  0  0  0  0  0  0  0  0  0
    3.5405    9.3350    7.8015 H   0  0  0  0  0  0  0  0  0  0  0  0
    4.3464   11.7776    7.8735 H   0  0  0  0  0  0  0  0  0  0  0  0
    5.5830   12.3469    5.6885 H   0  0  0  0  0  0  0  0  0  0  0  0
   10.3604   10.6532    2.0753 H   0  0  0  0  0  0  0  0  0  0  0  0
   10.1855   10.8998    3.8495 H   0  0  0  0  0  0  0  0  0  0  0  0
   11.9734    9.2648    4.3234 H   0  0  0  0  0  0  0  0  0  0  0  0
   12.5387   10.5043    3.1427 H   0  0  0  0  0  0  0  0  0  0  0  0
  1  2  1  0
  2  3  1  0
  2  4  1  0
  4  5  1  0
  5  6  1  0
  6  7  1  0
  7  8  1  0
  8  9  2  0
  8 10  1  0
 10 11  1  0
 11 12  1  0
 12 13  1  0
 13 14  2  0
 14 15  1  0
 15 16  1  0
  7 17  1  0
 17 18  1  0
 18  4  1  0
 16 12  2  0
  1 19  1  0
  1 20  1  0
  1 21  1  0
  2 22  1  0
  3 23  1  0
  3 24  1  0
  3 25  1  0
  4 26  1  0
  5 27  1  0
  5 28  1  0
  6 29  1  0
  6 30  1  0
  7 31  1  0
 10 32  1  0
 11 33  1  0
 11 34  1  0
 13 35  1  0
 14 36  1  0
 15 37  1  0
 16 38  1  0
 17 39  1  0
 17 40  1  0
 18 41  1  0
 18 42  1  0
M  CHG  1   3   1
M  END
>  <EmbedRMS>  (79) 
0.029013692847384143

$$$$

     RDKit          3D

 40 41  0  0  0  0  0  0  0  0999 V2000
   13.9332    7.3332    1.0251 C   0  0  0  0  0  0  0  0  0  0  0  0
   13.7125    7.9146    2.4297 C   0  0  0  0  0  0  0  0  0  0  0  0
   14.6504    9.0165    2.6726 N   0  0  0  0  0  4  0  0  0  0  0  0
   12.2364    8.2979    2.7979 C   0  0  0  0  0  0  0  0  0  0  0  0
   11.1515    7.3120    2.3262 C   0  0  0  0  0  0  0  0  0  0  0  0
    9.7912    7.9324    2.0765 C   0  0  0  0  0  0  0  0  0  0  0  0
    9.4261    8.9806    3.1220 C   0  0  0  0  0  0  0  0  0  0  0  0
    8.0225    9.4639    2.8667 C   0  0  0  0  0  0  0  0  0  0  0  0
    7.6546    9.6768    1.6802 O   0  0  0  0  0  0  0  0  0  0  0  0
    7.1435    9.7011    3.9767 N   0  0  0  0  0  0  0  0  0  0  0  0
    5.7719   10.1423    3.9218 C   0  0  0  0  0  0  0  0  0  0  0  0
    5.0682   10.2866    5.1272 C   0  0  0  0  0  0  0  0  0  0  0  0
    3.7425   10.7162    5.1245 C   0  0  0  0  0  0  0  0  0  0  0  0
    3.1199   11.0021    3.9115 C   0  0  0  0  0  0  0  0  0  0  0  0
    3.8030   10.8612    2.7487 N   0  0  0  0  0  0  0  0  0  0  0  0
    5.0935   10.4449    2.7201 C   0  0  0  0  0  0  0  0  0  0  0  0
   10.3969   10.1658    3.0679 C   0  0  0  0  0  0  0  0  0  0  0  0
   11.8884    9.7884    2.9926 C   0  0  0  0  0  0  0  0  0  0  0  0
   13.4390    7.9746    0.2649 H   0  0  0  0  0  0  0  0  0  0  0  0
   13.5402    6.2972    0.9560 H   0  0  0  0  0  0  0  0  0  0  0  0
   15.0172    7.2785    0.7884 H   0  0  0  0  0  0  0  0  0  0  0  0
   14.0108    7.0845    3.1148 H   0  0  0  0  0  0  0  0  0  0  0  0
   14.5446    9.3791    3.6472 H   0  0  0  0  0  0  0  0  0  0  0  0
   14.5091    9.7874    1.9809 H   0  0  0  0  0  0  0  0  0  0  0  0
   15.6338    8.6709    2.5809 H   0  0  0  0  0  0  0  0  0  0  0  0
   12.2424    8.0318    3.8833 H   0  0  0  0  0  0  0  0  0  0  0  0
   11.4353    6.8245    1.3751 H   0  0  0  0  0  0  0  0  0  0  0  0
   11.0353    6.4818    3.0616 H   0  0  0  0  0  0  0  0  0  0  0  0
    9.8005    8.4008    1.0657 H   0  0  0  0  0  0  0  0  0  0  0  0
    9.0262    7.1237    2.0652 H   0  0  0  0  0  0  0  0  0  0  0  0
    9.4833    8.5087    4.1284 H   0  0  0  0  0  0  0  0  0  0  0  0
    7.5457    9.5319    4.9268 H   0  0  0  0  0  0  0  0  0  0  0  0
    5.5478   10.0665    6.0729 H   0  0  0  0  0  0  0  0  0  0  0  0
    3.2017   10.8271    6.0555 H   0  0  0  0  0  0  0  0  0  0  0  0
    2.0913   11.3366    3.8945 H   0  0  0  0  0  0  0  0  0  0  0  0
    5.5409   10.3704    1.7502 H   0  0  0  0  0  0  0  0  0  0  0  0
   10.1534   10.7936    2.1801 H   0  0  0  0  0  0  0  0  0  0  0  0
   10.2256   10.8070    3.9610 H   0  0  0  0  0  0  0  0  0  0  0  0
   12.3112   10.3420    2.1274 H   0  0  0  0  0  0  0  0  0  0  0  0
   12.4001   10.1967    3.8942 H   0  0  0  0  0  0  0  0  0  0  0  0
  1  2  1  0
  2  3  1  0
  2  4  1  0
  4  5  1  0
  5  6  1  0
  6  7  1  0
  7  8  1  0
  8  9  2  0
  8 10  1  0
 10 11  1  0
 11 12  2  0
 12 13  1  0
 13 14  2  0
 14 15  1  0
 15 16  2  0
  7 17  1  0
 17 18  1  0
 18  4  1  0
 16 11  1  0
  1 19  1  0
  1 20  1  0
  1 21  1  0
  2 22  1  0
  3 23  1  0
  3 24  1  0
  3 25  1  0
  4 26  1  0
  5 27  1  0
  5 28  1  0
  6 29  1  0
  6 30  1  0
  7 31  1  0
 10 32  1  0
 12 33  1  0
 13 34  1  0
 14 35  1  0
 16 36  1  0
 17 37  1  0
 17 38  1  0
 18 39  1  0
 18 40  1  0
M  CHG  1   3   1
M  END
>  <EmbedRMS>  (80) 
0.16496192233382964

$$$$

     RDKit          3D

 42 42  0  0  0  0  0  0  0  0999 V2000
    8.6750    8.1658    7.0703 C   0  0  0  0  0  0  0  0  0  0  0  0
    8.3763    8.4580    5.8022 C   0  0  0  0  0  0  0  0  0  0  0  0
    7.3143    9.3915    5.3537 C   0  0  0  0  0  0  0  0  0  0  0  0
    6.4078    9.8578    6.2465 C   0  0  0  0  0  0  0  0  0  0  0  0
    5.2565   10.7471    5.8877 C   0  0  0  0  0  0  0  0  0  0  0  0
    7.1493    9.7152    3.9495 N   0  0  0  0  0  0  0  0  0  0  0  0
    7.9765    9.4983    2.7821 C   0  0  0  0  0  0  0  0  0  0  0  0
    7.4301    9.6608    1.6607 O   0  0  0  0  0  0  0  0  0  0  0  0
    9.4445    9.1811    2.6937 C   0  0  0  0  0  0  0  0  0  0  0  0
    9.7537    7.7156    2.4382 C   0  0  0  0  0  0  0  0  0  0  0  0
   11.2038    7.4507    2.0892 C   0  0  0  0  0  0  0  0  0  0  0  0
   12.2683    8.3270    2.7571 C   0  0  0  0  0  0  0  0  0  0  0  0
   13.6145    8.3244    1.9914 C   0  0  0  0  0  0  0  0  0  0  0  0
   14.0289    7.0506    1.2546 C   0  0  0  0  0  0  0  0  0  0  0  0
   14.7105    8.8911    2.7788 N   0  0  0  0  0  4  0  0  0  0  0  0
   11.8580    9.7797    3.1035 C   0  0  0  0  0  0  0  0  0  0  0  0
   10.4067   10.0105    3.5026 C   0  0  0  0  0  0  0  0  0  0  0  0
    9.4522    7.4407    7.2763 H   0  0  0  0  0  0  0  0  0  0  0  0
    8.2207    8.6429    7.9236 H   0  0  0  0  0  0  0  0  0  0  0  0
    8.9290    7.9270    5.0689 H   0  0  0  0  0  0  0  0  0  0  0  0
    6.4522    9.5905    7.2899 H   0  0  0  0  0  0  0  0  0  0  0  0
    5.6232   11.6730    5.3961 H   0  0  0  0  0  0  0  0  0  0  0  0
    4.7085   11.0385    6.8086 H   0  0  0  0  0  0  0  0  0  0  0  0
    4.5465   10.2109    5.2233 H   0  0  0  0  0  0  0  0  0  0  0  0
    6.2337   10.1339    3.6758 H   0  0  0  0  0  0  0  0  0  0  0  0
    9.6986    9.5966    1.6856 H   0  0  0  0  0  0  0  0  0  0  0  0
    9.1148    7.3426    1.6051 H   0  0  0  0  0  0  0  0  0  0  0  0
    9.4972    7.0769    3.2974 H   0  0  0  0  0  0  0  0  0  0  0  0
   11.2718    7.6249    0.9927 H   0  0  0  0  0  0  0  0  0  0  0  0
   11.4331    6.3748    2.2587 H   0  0  0  0  0  0  0  0  0  0  0  0
   12.4573    7.8339    3.7373 H   0  0  0  0  0  0  0  0  0  0  0  0
   13.4588    9.0294    1.1415 H   0  0  0  0  0  0  0  0  0  0  0  0
   14.1162    6.2135    1.9787 H   0  0  0  0  0  0  0  0  0  0  0  0
   13.3003    6.7723    0.4659 H   0  0  0  0  0  0  0  0  0  0  0  0
   15.0110    7.1880    0.7539 H   0  0  0  0  0  0  0  0  0  0  0  0
   14.5373    9.8979    2.9966 H   0  0  0  0  0  0  0  0  0  0  0  0
   15.6086    8.8475    2.2446 H   0  0  0  0  0  0  0  0  0  0  0  0
   14.8256    8.3542    3.6688 H   0  0  0  0  0  0  0  0  0  0  0  0
   12.4979   10.1655    3.9267 H   0  0  0  0  0  0  0  0  0  0  0  0
   12.0458   10.4293    2.2200 H   0  0  0  0  0  0  0  0  0  0  0  0
   10.1603   11.0919    3.4053 H   0  0  0  0  0  0  0  0  0  0  0  0
   10.3056    9.7529    4.5738 H   0  0  0  0  0  0  0  0  0  0  0  0
  1  2  2  3
  2  3  1  0
  3  4  2  3
  4  5  1  0
  3  6  1  0
  6  7  1  0
  7  8  2  0
  7  9  1  0
  9 10  1  0
 10 11  1  0
 11 12  1  0
 12 13  1  0
 13 14  1  0
 13 15  1  0
 12 16  1  0
 16 17  1  0
 17  9  1  0
  1 18  1  0
  1 19  1  0
  2 20  1  0
  4 21  1  0
  5 22  1  0
  5 23  1  0
  5 24  1  0
  6 25  1  0
  9 26  1  0
 10 27  1  0
 10 28  1  0
 11 29  1  0
 11 30  1  0
 12 31  1  0
 13 32  1  0
 14 33  1  0
 14 34  1  0
 14 35  1  0
 15 36  1  0
 15 37  1  0
 15 38  1  0
 16 39  1  0
 16 40  1  0
 17 41  1  0
 17 42  1  0
M  CHG  1  15   1
M  END
>  <EmbedRMS>  (81) 
0.29216731409503444

$$$$

     RDKit          3D

 41 41  0  0  0  0  0  0  0  0999 V2000
    5.1340   10.6838    4.8168 C   0  0  0  0  0  0  0  0  0  0  0  0
    5.7233    9.9077    3.9051 C   0  0  0  0  0  0  0  0  0  0  0  0
    7.1429    9.7009    3.9912 N   0  0  0  0  0  0  0  0  0  0  0  0
    8.0087    9.4794    2.8728 C   0  0  0  0  0  0  0  0  0  0  0  0
    7.6161    9.7124    1.6955 O   0  0  0  0  0  0  0  0  0  0  0  0
    9.4071    8.9949    3.1294 C   0  0  0  0  0  0  0  0  0  0  0  0
    9.7698    7.8726    2.1526 C   0  0  0  0  0  0  0  0  0  0  0  0
   11.1785    7.3663    2.4334 C   0  0  0  0  0  0  0  0  0  0  0  0
   12.1991    8.5123    2.2731 C   0  0  0  0  0  0  0  0  0  0  0  0
   13.6486    7.9558    2.3994 C   0  0  0  0  0  0  0  0  0  0  0  0
   14.0484    7.2193    1.1056 C   0  0  0  0  0  0  0  0  0  0  0  0
   14.6279    9.0158    2.6718 N   0  0  0  0  0  4  0  0  0  0  0  0
   11.8567    9.6380    3.2807 C   0  0  0  0  0  0  0  0  0  0  0  0
   10.4218   10.1492    3.0642 C   0  0  0  0  0  0  0  0  0  0  0  0
    4.8746    9.1652    2.9314 C   0  0  0  0  0  0  0  0  0  0  0  0
    5.3290    7.8654    2.3378 C   0  0  0  0  0  0  0  0  0  0  0  0
    3.6881    9.5920    2.6216 N   0  0  0  0  0  0  0  0  0  0  0  0
    5.7069   11.2044    5.5739 H   0  0  0  0  0  0  0  0  0  0  0  0
    5.7069   11.2044    5.5739 H   0  0  0  0  0  0  0  0  0  0  0  0
    7.5914    9.7813    4.9328 H   0  0  0  0  0  0  0  0  0  0  0  0
    9.4431    8.5664    4.1570 H   0  0  0  0  0  0  0  0  0  0  0  0
    9.7080    8.2320    1.1008 H   0  0  0  0  0  0  0  0  0  0  0  0
    9.0535    7.0296    2.2713 H   0  0  0  0  0  0  0  0  0  0  0  0
   11.3809    6.5455    1.7171 H   0  0  0  0  0  0  0  0  0  0  0  0
   11.2312    6.9397    3.4601 H   0  0  0  0  0  0  0  0  0  0  0  0
   12.0879    8.9479    1.2532 H   0  0  0  0  0  0  0  0  0  0  0  0
   13.6895    7.2253    3.2396 H   0  0  0  0  0  0  0  0  0  0  0  0
   13.9785    7.8971    0.2280 H   0  0  0  0  0  0  0  0  0  0  0  0
   15.0957    6.8574    1.1823 H   0  0  0  0  0  0  0  0  0  0  0  0
   13.4174    6.3267    0.9278 H   0  0  0  0  0  0  0  0  0  0  0  0
   14.5428    9.7863    1.9689 H   0  0  0  0  0  0  0  0  0  0  0  0
   14.4947    9.3938    3.6373 H   0  0  0  0  0  0  0  0  0  0  0  0
   15.5994    8.6298    2.6317 H   0  0  0  0  0  0  0  0  0  0  0  0
   12.5362   10.5049    3.1420 H   0  0  0  0  0  0  0  0  0  0  0  0
   11.9707    9.2655    4.3227 H   0  0  0  0  0  0  0  0  0  0  0  0
   10.1824   10.9004    3.8483 H   0  0  0  0  0  0  0  0  0  0  0  0
   10.3573   10.6536    2.0742 H   0  0  0  0  0  0  0  0  0  0  0  0
    5.6784    8.0261    1.2971 H   0  0  0  0  0  0  0  0  0  0  0  0
    4.4836    7.1452    2.3167 H   0  0  0  0  0  0  0  0  0  0  0  0
    6.1422    7.4094    2.9402 H   0  0  0  0  0  0  0  0  0  0  0  0
    3.2812   10.4775    2.9972 H   0  0  0  0  0  0  0  0  0  0  0  0
  1  2  2  3
  2  3  1  0
  3  4  1  0
  4  5  2  0
  4  6  1  0
  6  7  1  0
  7  8  1  0
  8  9  1  0
  9 10  1  0
 10 11  1  0
 10 12  1  0
  9 13  1  0
 13 14  1  0
  2 15  1  0
 15 16  1  0
 15 17  2  3
 14  6  1  0
  1 18  1  0
  1 19  1  0
  3 20  1  0
  6 21  1  0
  7 22  1  0
  7 23  1  0
  8 24  1  0
  8 25  1  0
  9 26  1  0
 10 27  1  0
 11 28  1  0
 11 29  1  0
 11 30  1  0
 12 31  1  0
 12 32  1  0
 12 33  1  0
 13 34  1  0
 13 35  1  0
 14 36  1  0
 14 37  1  0
 16 38  1  0
 16 39  1  0
 16 40  1  0
 17 41  1  0
M  CHG  1  12   1
M  END
>  <EmbedRMS>  (82) 
0.033034174538590914

$$$$

     RDKit          3D

 41 42  0  0  0  0  0  0  0  0999 V2000
   14.0095    7.0504    1.2533 C   0  0  0  0  0  0  0  0  0  0  0  0
   13.5989    8.3243    1.9899 C   0  0  0  0  0  0  0  0  0  0  0  0
   14.7011    8.8919    2.7694 N   0  0  0  0  0  4  0  0  0  0  0  0
   12.2592    8.3278    2.7674 C   0  0  0  0  0  0  0  0  0  0  0  0
   11.1759    7.4411    2.1356 C   0  0  0  0  0  0  0  0  0  0  0  0
    9.7400    7.7280    2.5467 C   0  0  0  0  0  0  0  0  0  0  0  0
    9.4448    9.2039    2.6453 C   0  0  0  0  0  0  0  0  0  0  0  0
    7.9811    9.5345    2.7316 C   0  0  0  0  0  0  0  0  0  0  0  0
    7.4312    9.7485    1.6252 O   0  0  0  0  0  0  0  0  0  0  0  0
    7.2028    9.6519    3.9403 N   0  0  0  0  0  0  0  0  0  0  0  0
    5.7647    9.8228    3.9029 C   0  0  0  0  0  0  0  0  0  0  0  0
    5.0339   10.6545    4.7293 C   0  0  0  0  0  0  0  0  0  0  0  0
    3.7178   10.4471    4.3485 C   0  0  0  0  0  0  0  0  0  0  0  0
    3.6678    9.5270    3.3645 N   0  0  0  0  0  0  0  0  0  0  0  0
    4.9080    9.1444    3.1025 N   0  0  0  0  0  0  0  0  0  0  0  0
    5.2116    8.0687    2.1641 C   0  0  0  0  0  0  0  0  0  0  0  0
   10.3846   10.0206    3.4874 C   0  0  0  0  0  0  0  0  0  0  0  0
   11.8476    9.7815    3.1207 C   0  0  0  0  0  0  0  0  0  0  0  0
   13.2641    6.7630    0.4837 H   0  0  0  0  0  0  0  0  0  0  0  0
   14.9800    7.1933    0.7318 H   0  0  0  0  0  0  0  0  0  0  0  0
   14.1174    6.2183    1.9804 H   0  0  0  0  0  0  0  0  0  0  0  0
   13.4348    9.0282    1.1409 H   0  0  0  0  0  0  0  0  0  0  0  0
   14.5199    9.8932    3.0051 H   0  0  0  0  0  0  0  0  0  0  0  0
   15.5910    8.8651    2.2203 H   0  0  0  0  0  0  0  0  0  0  0  0
   14.8352    8.3434    3.6497 H   0  0  0  0  0  0  0  0  0  0  0  0
   12.4662    7.8415    3.7474 H   0  0  0  0  0  0  0  0  0  0  0  0
   11.2089    7.5939    1.0347 H   0  0  0  0  0  0  0  0  0  0  0  0
   11.4022    6.3682    2.3235 H   0  0  0  0  0  0  0  0  0  0  0  0
    9.0483    7.2415    1.8226 H   0  0  0  0  0  0  0  0  0  0  0  0
    9.5565    7.2691    3.5427 H   0  0  0  0  0  0  0  0  0  0  0  0
    9.7192    9.5615    1.6215 H   0  0  0  0  0  0  0  0  0  0  0  0
    7.7017    9.7686    4.8500 H   0  0  0  0  0  0  0  0  0  0  0  0
    5.4044   11.3205    5.4970 H   0  0  0  0  0  0  0  0  0  0  0  0
    2.8492   10.9330    4.7718 H   0  0  0  0  0  0  0  0  0  0  0  0
    4.3831    7.3291    2.1649 H   0  0  0  0  0  0  0  0  0  0  0  0
    5.3078    8.4776    1.1374 H   0  0  0  0  0  0  0  0  0  0  0  0
    6.1374    7.5328    2.4609 H   0  0  0  0  0  0  0  0  0  0  0  0
   10.1473   11.1039    3.3931 H   0  0  0  0  0  0  0  0  0  0  0  0
   10.2352    9.7351    4.5514 H   0  0  0  0  0  0  0  0  0  0  0  0
   12.4714   10.1547    3.9619 H   0  0  0  0  0  0  0  0  0  0  0  0
   12.0600   10.4399    2.2495 H   0  0  0  0  0  0  0  0  0  0  0  0
  1  2  1  0
  2  3  1  0
  2  4  1  0
  4  5  1  0
  5  6  1  0
  6  7  1  0
  7  8  1  0
  8  9  2  0
  8 10  1  0
 10 11  1  0
 11 12  2  0
 12 13  1  0
 13 14  2  0
 14 15  1  0
 15 16  1  0
  7 17  1  0
 17 18  1  0
 18  4  1  0
 15 11  1  0
  1 19  1  0
  1 20  1  0
  1 21  1  0
  2 22  1  0
  3 23  1  0
  3 24  1  0
  3 25  1  0
  4 26  1  0
  5 27  1  0
  5 28  1  0
  6 29  1  0
  6 30  1  0
  7 31  1  0
 10 32  1  0
 12 33  1  0
 13 34  1  0
 16 35  1  0
 16 36  1  0
 16 37  1  0
 17 38  1  0
 17 39  1  0
 18 40  1  0
 18 41  1  0
M  CHG  1   3   1
M  END
>  <EmbedRMS>  (83) 
0.2930144483433324

$$$$

     RDKit          3D

 39 39  0  0  0  0  0  0  0  0999 V2000
   13.9836    7.0977    1.1855 C   0  0  0  0  0  0  0  0  0  0  0  0
   13.5804    8.3563    1.9534 C   0  0  0  0  0  0  0  0  0  0  0  0
   14.7107    8.8831    2.7305 N   0  0  0  0  0  4  0  0  0  0  0  0
   12.2747    8.3209    2.7724 C   0  0  0  0  0  0  0  0  0  0  0  0
   11.1563    7.3133    2.3935 C   0  0  0  0  0  0  0  0  0  0  0  0
    9.7968    7.9247    2.0829 C   0  0  0  0  0  0  0  0  0  0  0  0
    9.4128    8.9902    3.1075 C   0  0  0  0  0  0  0  0  0  0  0  0
    8.0069    9.4756    2.8657 C   0  0  0  0  0  0  0  0  0  0  0  0
    7.6013    9.6868    1.6881 O   0  0  0  0  0  0  0  0  0  0  0  0
    7.1415    9.7152    3.9842 N   0  0  0  0  0  0  0  0  0  0  0  0
    5.8048   10.2100    3.8502 C   0  0  0  0  0  0  0  0  0  0  0  0
    5.4932   11.3776    3.2688 C   0  0  0  0  0  0  0  0  0  0  0  0
    6.4537   12.3353    2.7976 N   0  0  0  0  0  0  0  0  0  0  0  0
    7.7636   12.4037    3.2989 N   0  0  0  0  0  0  0  0  0  0  0  0
   10.3973   10.1512    3.0106 C   0  0  0  0  0  0  0  0  0  0  0  0
   11.8326    9.7184    3.3035 C   0  0  0  0  0  0  0  0  0  0  0  0
   13.2928    6.9100    0.3371 H   0  0  0  0  0  0  0  0  0  0  0  0
   13.9862    6.2208    1.8669 H   0  0  0  0  0  0  0  0  0  0  0  0
   15.0002    7.2105    0.7523 H   0  0  0  0  0  0  0  0  0  0  0  0
   13.3809    9.1000    1.1479 H   0  0  0  0  0  0  0  0  0  0  0  0
   14.4919    9.7898    3.1965 H   0  0  0  0  0  0  0  0  0  0  0  0
   14.9930    8.1896    3.4610 H   0  0  0  0  0  0  0  0  0  0  0  0
   15.5289    9.0515    2.1006 H   0  0  0  0  0  0  0  0  0  0  0  0
   12.6561    7.8379    3.7032 H   0  0  0  0  0  0  0  0  0  0  0  0
   11.0016    6.5966    3.2337 H   0  0  0  0  0  0  0  0  0  0  0  0
   11.4393    6.6852    1.5289 H   0  0  0  0  0  0  0  0  0  0  0  0
    9.0330    7.1152    2.0768 H   0  0  0  0  0  0  0  0  0  0  0  0
    9.8270    8.3658    1.0611 H   0  0  0  0  0  0  0  0  0  0  0  0
    9.4725    8.5458    4.1266 H   0  0  0  0  0  0  0  0  0  0  0  0
    7.4058    9.3124    4.9108 H   0  0  0  0  0  0  0  0  0  0  0  0
    5.0003    9.6190    4.2700 H   0  0  0  0  0  0  0  0  0  0  0  0
    4.4437   11.6224    3.1616 H   0  0  0  0  0  0  0  0  0  0  0  0
    6.1148   13.0849    2.1524 H   0  0  0  0  0  0  0  0  0  0  0  0
    7.6956   12.6577    4.3106 H   0  0  0  0  0  0  0  0  0  0  0  0
    8.2473   13.1982    2.8217 H   0  0  0  0  0  0  0  0  0  0  0  0
   10.1102   10.9486    3.7310 H   0  0  0  0  0  0  0  0  0  0  0  0
   10.3527   10.5935    1.9895 H   0  0  0  0  0  0  0  0  0  0  0  0
   12.4764   10.5249    2.8948 H   0  0  0  0  0  0  0  0  0  0  0  0
   11.9701    9.7497    4.4088 H   0  0  0  0  0  0  0  0  0  0  0  0
  1  2  1  0
  2  3  1  0
  2  4  1  0
  4  5  1  0
  5  6  1  0
  6  7  1  0
  7  8  1  0
  8  9  2  0
  8 10  1  0
 10 11  1  0
 11 12  2  3
 12 13  1  0
 13 14  1  0
  7 15  1  0
 15 16  1  0
 16  4  1  0
  1 17  1  0
  1 18  1  0
  1 19  1  0
  2 20  1  0
  3 21  1  0
  3 22  1  0
  3 23  1  0
  4 24  1  0
  5 25  1  0
  5 26  1  0
  6 27  1  0
  6 28  1  0
  7 29  1  0
 10 30  1  0
 11 31  1  0
 12 32  1  0
 13 33  1  0
 14 34  1  0
 14 35  1  0
 15 36  1  0
 15 37  1  0
 16 38  1  0
 16 39  1  0
M  CHG  1   3   1
M  END
>  <EmbedRMS>  (84) 
0.2141533042732473

$$$$

     RDKit          3D

 43 44  0  0  0  0  0  0  0  0999 V2000
   14.0276    7.2301    1.0858 C   0  0  0  0  0  0  0  0  0  0  0  0
   13.6459    7.9626    2.3850 C   0  0  0  0  0  0  0  0  0  0  0  0
   14.6273    9.0243    2.6470 N   0  0  0  0  0  4  0  0  0  0  0  0
   12.1819    8.5085    2.2960 C   0  0  0  0  0  0  0  0  0  0  0  0
   11.1978    7.3499    2.5409 C   0  0  0  0  0  0  0  0  0  0  0  0
    9.7345    7.7437    2.3739 C   0  0  0  0  0  0  0  0  0  0  0  0
    9.4500    9.2139    2.6409 C   0  0  0  0  0  0  0  0  0  0  0  0
    7.9871    9.5385    2.7237 C   0  0  0  0  0  0  0  0  0  0  0  0
    7.4165    9.6879    1.6153 O   0  0  0  0  0  0  0  0  0  0  0  0
    7.2149    9.6895    3.9283 N   0  0  0  0  0  0  0  0  0  0  0  0
    5.8138   10.1222    3.8054 C   0  0  0  0  0  0  0  0  0  0  0  0
    5.1472   10.2607    5.1400 C   0  0  0  0  0  0  0  0  0  0  0  0
    4.4718    9.1754    5.7134 C   0  0  0  0  0  0  0  0  0  0  0  0
    3.8687    9.3139    6.9637 C   0  0  0  0  0  0  0  0  0  0  0  0
    3.9494   10.5386    7.6297 C   0  0  0  0  0  0  0  0  0  0  0  0
    4.6077   11.5829    7.0597 N   0  0  0  0  0  0  0  0  0  0  0  0
    5.2027   11.4727    5.8424 C   0  0  0  0  0  0  0  0  0  0  0  0
   10.4185   10.0737    3.4302 C   0  0  0  0  0  0  0  0  0  0  0  0
   11.8964    9.6377    3.3188 C   0  0  0  0  0  0  0  0  0  0  0  0
   13.3803    6.3499    0.9044 H   0  0  0  0  0  0  0  0  0  0  0  0
   13.9572    7.9169    0.2153 H   0  0  0  0  0  0  0  0  0  0  0  0
   15.0709    6.8548    1.1517 H   0  0  0  0  0  0  0  0  0  0  0  0
   13.7144    7.2277    3.2199 H   0  0  0  0  0  0  0  0  0  0  0  0
   15.5990    8.6418    2.5845 H   0  0  0  0  0  0  0  0  0  0  0  0
   14.5149    9.3994    3.6159 H   0  0  0  0  0  0  0  0  0  0  0  0
   14.5263    9.7976    1.9494 H   0  0  0  0  0  0  0  0  0  0  0  0
   12.0112    8.9222    1.2764 H   0  0  0  0  0  0  0  0  0  0  0  0
   11.3979    6.4997    1.8580 H   0  0  0  0  0  0  0  0  0  0  0  0
   11.3436    6.9702    3.5775 H   0  0  0  0  0  0  0  0  0  0  0  0
    9.3957    7.4730    1.3468 H   0  0  0  0  0  0  0  0  0  0  0  0
    9.1283    7.1284    3.0751 H   0  0  0  0  0  0  0  0  0  0  0  0
    9.7095    9.6218    1.6318 H   0  0  0  0  0  0  0  0  0  0  0  0
    7.6566    9.5244    4.8608 H   0  0  0  0  0  0  0  0  0  0  0  0
    5.2544    9.3860    3.1871 H   0  0  0  0  0  0  0  0  0  0  0  0
    5.7751   11.0969    3.2707 H   0  0  0  0  0  0  0  0  0  0  0  0
    4.4175    8.2247    5.1974 H   0  0  0  0  0  0  0  0  0  0  0  0
    3.3461    8.4800    7.4142 H   0  0  0  0  0  0  0  0  0  0  0  0
    3.4872   10.6595    8.6003 H   0  0  0  0  0  0  0  0  0  0  0  0
    5.7224   12.3263    5.4264 H   0  0  0  0  0  0  0  0  0  0  0  0
   10.1212   10.0281    4.5004 H   0  0  0  0  0  0  0  0  0  0  0  0
   10.3159   11.1407    3.1251 H   0  0  0  0  0  0  0  0  0  0  0  0
   12.2359    9.3018    4.3242 H   0  0  0  0  0  0  0  0  0  0  0  0
   12.4950   10.5353    3.0521 H   0  0  0  0  0  0  0  0  0  0  0  0
  1  2  1  0
  2  3  1  0
  2  4  1  0
  4  5  1  0
  5  6  1  0
  6  7  1  0
  7  8  1  0
  8  9  2  0
  8 10  1  0
 10 11  1  0
 11 12  1  0
 12 13  2  0
 13 14  1  0
 14 15  2  0
 15 16  1  0
 16 17  2  0
  7 18  1  0
 18 19  1  0
 19  4  1  0
 17 12  1  0
  1 20  1  0
  1 21  1  0
  1 22  1  0
  2 23  1  0
  3 24  1  0
  3 25  1  0
  3 26  1  0
  4 27  1  0
  5 28  1  0
  5 29  1  0
  6 30  1  0
  6 31  1  0
  7 32  1  0
 10 33  1  0
 11 34  1  0
 11 35  1  0
 13 36  1  0
 14 37  1  0
 15 38  1  0
 17 39  1  0
 18 40  1  0
 18 41  1  0
 19 42  1  0
 19 43  1  0
M  CHG  1   3   1
M  END
>  <EmbedRMS>  (85) 
0.17084101544492625

$$$$

     RDKit          3D

 42 42  0  0  0  0  0  0  0  0999 V2000
    8.6750    8.1658    7.0703 C   0  0  0  0  0  0  0  0  0  0  0  0
    8.3763    8.4580    5.8022 C   0  0  0  0  0  0  0  0  0  0  0  0
    7.3143    9.3915    5.3537 C   0  0  0  0  0  0  0  0  0  0  0  0
    6.4078    9.8578    6.2465 C   0  0  0  0  0  0  0  0  0  0  0  0
    5.2565   10.7471    5.8877 C   0  0  0  0  0  0  0  0  0  0  0  0
    7.1493    9.7152    3.9495 N   0  0  0  0  0  0  0  0  0  0  0  0
    7.9765    9.4983    2.7821 C   0  0  0  0  0  0  0  0  0  0  0  0
    7.4301    9.6608    1.6607 O   0  0  0  0  0  0  0  0  0  0  0  0
    9.4445    9.1811    2.6937 C   0  0  0  0  0  0  0  0  0  0  0  0
    9.7537    7.7156    2.4382 C   0  0  0  0  0  0  0  0  0  0  0  0
   11.2038    7.4507    2.0892 C   0  0  0  0  0  0  0  0  0  0  0  0
   12.2683    8.3270    2.7571 C   0  0  0  0  0  0  0  0  0  0  0  0
   13.6145    8.3244    1.9914 C   0  0  0  0  0  0  0  0  0  0  0  0
   14.0289    7.0506    1.2546 C   0  0  0  0  0  0  0  0  0  0  0  0
   14.7105    8.8911    2.7788 N   0  0  0  0  0  4  0  0  0  0  0  0
   11.8580    9.7797    3.1035 C   0  0  0  0  0  0  0  0  0  0  0  0
   10.4067   10.0105    3.5026 C   0  0  0  0  0  0  0  0  0  0  0  0
    9.4522    7.4407    7.2763 H   0  0  0  0  0  0  0  0  0  0  0  0
    8.2207    8.6429    7.9236 H   0  0  0  0  0  0  0  0  0  0  0  0
    8.9290    7.9270    5.0689 H   0  0  0  0  0  0  0  0  0  0  0  0
    6.4522    9.5905    7.2899 H   0  0  0  0  0  0  0  0  0  0  0  0
    5.6232   11.6730    5.3961 H   0  0  0  0  0  0  0  0  0  0  0  0
    4.7085   11.0385    6.8086 H   0  0  0  0  0  0  0  0  0  0  0  0
    4.5465   10.2109    5.2233 H   0  0  0  0  0  0  0  0  0  0  0  0
    6.2337   10.1339    3.6758 H   0  0  0  0  0  0  0  0  0  0  0  0
    9.6986    9.5966    1.6856 H   0  0  0  0  0  0  0  0  0  0  0  0
    9.1148    7.3426    1.6051 H   0  0  0  0  0  0  0  0  0  0  0  0
    9.4972    7.0769    3.2974 H   0  0  0  0  0  0  0  0  0  0  0  0
   11.2718    7.6249    0.9927 H   0  0  0  0  0  0  0  0  0  0  0  0
   11.4331    6.3748    2.2587 H   0  0  0  0  0  0  0  0  0  0  0  0
   12.4573    7.8339    3.7373 H   0  0  0  0  0  0  0  0  0  0  0  0
   13.4588    9.0294    1.1415 H   0  0  0  0  0  0  0  0  0  0  0  0
   14.1162    6.2135    1.9787 H   0  0  0  0  0  0  0  0  0  0  0  0
   13.3003    6.7723    0.4659 H   0  0  0  0  0  0  0  0  0  0  0  0
   15.0110    7.1880    0.7539 H   0  0  0  0  0  0  0  0  0  0  0  0
   14.5373    9.8979    2.9966 H   0  0  0  0  0  0  0  0  0  0  0  0
   15.6086    8.8475    2.2446 H   0  0  0  0  0  0  0  0  0  0  0  0
   14.8256    8.3542    3.6688 H   0  0  0  0  0  0  0  0  0  0  0  0
   12.4979   10.1655    3.9267 H   0  0  0  0  0  0  0  0  0  0  0  0
   12.0458   10.4293    2.2200 H   0  0  0  0  0  0  0  0  0  0  0  0
   10.1603   11.0919    3.4053 H   0  0  0  0  0  0  0  0  0  0  0  0
   10.3056    9.7529    4.5738 H   0  0  0  0  0  0  0  0  0  0  0  0
  1  2  2  3
  2  3  1  0
  3  4  2  3
  4  5  1  0
  3  6  1  0
  6  7  1  0
  7  8  2  0
  7  9  1  0
  9 10  1  0
 10 11  1  0
 11 12  1  0
 12 13  1  0
 13 14  1  0
 13 15  1  0
 12 16  1  0
 16 17  1  0
 17  9  1  0
  1 18  1  0
  1 19  1  0
  2 20  1  0
  4 21  1  0
  5 22  1  0
  5 23  1  0
  5 24  1  0
  6 25  1  0
  9 26  1  0
 10 27  1  0
 10 28  1  0
 11 29  1  0
 11 30  1  0
 12 31  1  0
 13 32  1  0
 14 33  1  0
 14 34  1  0
 14 35  1  0
 15 36  1  0
 15 37  1  0
 15 38  1  0
 16 39  1  0
 16 40  1  0
 17 41  1  0
 17 42  1  0
M  CHG  1  15   1
M  END
>  <EmbedRMS>  (86) 
0.29216731409503444

$$$$

     RDKit          3D

 38 39  0  0  0  0  0  0  0  0999 V2000
   13.9842    7.0987    1.1853 C   0  0  0  0  0  0  0  0  0  0  0  0
   13.5812    8.3572    1.9537 C   0  0  0  0  0  0  0  0  0  0  0  0
   14.7119    8.8839    2.7302 N   0  0  0  0  0  4  0  0  0  0  0  0
   12.2765    8.3213    2.7737 C   0  0  0  0  0  0  0  0  0  0  0  0
   11.1597    7.3114    2.3967 C   0  0  0  0  0  0  0  0  0  0  0  0
    9.8012    7.9211    2.0835 C   0  0  0  0  0  0  0  0  0  0  0  0
    9.4166    8.9879    3.1066 C   0  0  0  0  0  0  0  0  0  0  0  0
    8.0125    9.4689    2.8599 C   0  0  0  0  0  0  0  0  0  0  0  0
    7.6232    9.6834    1.6795 O   0  0  0  0  0  0  0  0  0  0  0  0
    7.1436    9.7001    3.9777 N   0  0  0  0  0  0  0  0  0  0  0  0
    5.7812   10.1373    3.8965 C   0  0  0  0  0  0  0  0  0  0  0  0
    5.0590   10.4418    2.7529 C   0  0  0  0  0  0  0  0  0  0  0  0
    3.8212   10.8093    3.2325 C   0  0  0  0  0  0  0  0  0  0  0  0
    3.8279   10.7216    4.5742 N   0  0  0  0  0  0  0  0  0  0  0  0
    5.0150   10.3141    4.9886 N   0  0  0  0  0  0  0  0  0  0  0  0
   10.3981   10.1506    3.0073 C   0  0  0  0  0  0  0  0  0  0  0  0
   11.8327    9.7188    3.3047 C   0  0  0  0  0  0  0  0  0  0  0  0
   13.2929    6.9111    0.3372 H   0  0  0  0  0  0  0  0  0  0  0  0
   15.0005    7.2120    0.7515 H   0  0  0  0  0  0  0  0  0  0  0  0
   13.9876    6.2216    1.8665 H   0  0  0  0  0  0  0  0  0  0  0  0
   13.3808    9.1011    1.1485 H   0  0  0  0  0  0  0  0  0  0  0  0
   14.9955    8.1898    3.4595 H   0  0  0  0  0  0  0  0  0  0  0  0
   14.4928    9.7899    3.1975 H   0  0  0  0  0  0  0  0  0  0  0  0
   15.5292    9.0536    2.0996 H   0  0  0  0  0  0  0  0  0  0  0  0
   12.6593    7.8397    3.7046 H   0  0  0  0  0  0  0  0  0  0  0  0
   11.4436    6.6805    1.5344 H   0  0  0  0  0  0  0  0  0  0  0  0
   11.0047    6.5972    3.2389 H   0  0  0  0  0  0  0  0  0  0  0  0
    9.8330    8.3602    1.0608 H   0  0  0  0  0  0  0  0  0  0  0  0
    9.0379    7.1111    2.0779 H   0  0  0  0  0  0  0  0  0  0  0  0
    9.4755    8.5442    4.1262 H   0  0  0  0  0  0  0  0  0  0  0  0
    7.5254    9.5361    4.9365 H   0  0  0  0  0  0  0  0  0  0  0  0
    5.3557   10.4142    1.7158 H   0  0  0  0  0  0  0  0  0  0  0  0
    2.9703   11.1209    2.6412 H   0  0  0  0  0  0  0  0  0  0  0  0
    3.0273   10.9388    5.2077 H   0  0  0  0  0  0  0  0  0  0  0  0
   10.1052   10.9525    3.7212 H   0  0  0  0  0  0  0  0  0  0  0  0
   10.3568   10.5867    1.9833 H   0  0  0  0  0  0  0  0  0  0  0  0
   12.4776   10.5259    2.8988 H   0  0  0  0  0  0  0  0  0  0  0  0
   11.9660    9.7492    4.4105 H   0  0  0  0  0  0  0  0  0  0  0  0
  1  2  1  0
  2  3  1  0
  2  4  1  0
  4  5  1  0
  5  6  1  0
  6  7  1  0
  7  8  1  0
  8  9  2  0
  8 10  1  0
 10 11  1  0
 11 12  1  0
 12 13  2  0
 13 14  1  0
 14 15  1  0
  7 16  1  0
 16 17  1  0
 17  4  1  0
 15 11  2  0
  1 18  1  0
  1 19  1  0
  1 20  1  0
  2 21  1  0
  3 22  1  0
  3 23  1  0
  3 24  1  0
  4 25  1  0
  5 26  1  0
  5 27  1  0
  6 28  1  0
  6 29  1  0
  7 30  1  0
 10 31  1  0
 12 32  1  0
 13 33  1  0
 14 34  1  0
 16 35  1  0
 16 36  1  0
 17 37  1  0
 17 38  1  0
M  CHG  1   3   1
M  END
>  <EmbedRMS>  (87) 
0.20783527019262546

$$$$

     RDKit          3D

 44 44  0  0  0  0  0  0  0  0999 V2000
   14.0476    7.2194    1.1052 C   0  0  0  0  0  0  0  0  0  0  0  0
   13.6487    7.9556    2.3994 C   0  0  0  0  0  0  0  0  0  0  0  0
   14.6282    9.0156    2.6714 N   0  0  0  0  0  4  0  0  0  0  0  0
   12.1990    8.5121    2.2745 C   0  0  0  0  0  0  0  0  0  0  0  0
   11.1789    7.3662    2.4373 C   0  0  0  0  0  0  0  0  0  0  0  0
    9.7697    7.8722    2.1601 C   0  0  0  0  0  0  0  0  0  0  0  0
    9.4065    8.9956    3.1377 C   0  0  0  0  0  0  0  0  0  0  0  0
    8.0108    9.4832    2.8729 C   0  0  0  0  0  0  0  0  0  0  0  0
    7.6220    9.6937    1.6894 O   0  0  0  0  0  0  0  0  0  0  0  0
    7.1270    9.7135    3.9759 N   0  0  0  0  0  0  0  0  0  0  0  0
    5.7413   10.1291    3.7907 C   0  0  0  0  0  0  0  0  0  0  0  0
    4.8876    8.9628    3.2864 C   0  0  0  0  0  0  0  0  0  0  0  0
    4.8199    7.8974    4.2844 N   0  0  0  0  0  0  0  0  0  0  0  0
    4.0251    7.9923    5.4717 C   0  0  0  0  0  0  0  0  0  0  0  0
    3.3081    9.0455    5.7107 N   0  0  0  0  0  0  0  0  0  0  0  0
    2.5272    9.1506    6.8697 N   0  0  0  0  0  0  0  0  0  0  0  0
   10.4226   10.1489    3.0685 C   0  0  0  0  0  0  0  0  0  0  0  0
   11.8578    9.6377    3.2825 C   0  0  0  0  0  0  0  0  0  0  0  0
   13.4156    6.3275    0.9271 H   0  0  0  0  0  0  0  0  0  0  0  0
   13.9780    7.8978    0.2281 H   0  0  0  0  0  0  0  0  0  0  0  0
   15.0946    6.8566    1.1815 H   0  0  0  0  0  0  0  0  0  0  0  0
   13.6904    7.2249    3.2394 H   0  0  0  0  0  0  0  0  0  0  0  0
   14.4958    9.3932    3.6371 H   0  0  0  0  0  0  0  0  0  0  0  0
   14.5426    9.7863    1.9689 H   0  0  0  0  0  0  0  0  0  0  0  0
   15.5996    8.6296    2.6304 H   0  0  0  0  0  0  0  0  0  0  0  0
   12.0862    8.9472    1.2546 H   0  0  0  0  0  0  0  0  0  0  0  0
   11.2338    6.9401    3.4640 H   0  0  0  0  0  0  0  0  0  0  0  0
   11.3799    6.5453    1.7208 H   0  0  0  0  0  0  0  0  0  0  0  0
    9.0544    7.0287    2.2804 H   0  0  0  0  0  0  0  0  0  0  0  0
    9.7067    8.2303    1.1080 H   0  0  0  0  0  0  0  0  0  0  0  0
    9.4389    8.5706    4.1666 H   0  0  0  0  0  0  0  0  0  0  0  0
    7.4931    9.6346    4.9515 H   0  0  0  0  0  0  0  0  0  0  0  0
    5.3367   10.5067    4.7537 H   0  0  0  0  0  0  0  0  0  0  0  0
    5.6966   10.9680    3.0630 H   0  0  0  0  0  0  0  0  0  0  0  0
    3.8624    9.3223    3.0520 H   0  0  0  0  0  0  0  0  0  0  0  0
    5.3182    8.5596    2.3451 H   0  0  0  0  0  0  0  0  0  0  0  0
    5.3313    7.0051    4.1012 H   0  0  0  0  0  0  0  0  0  0  0  0
    4.0269    7.1639    6.1702 H   0  0  0  0  0  0  0  0  0  0  0  0
    1.9616   10.0122    7.0325 H   0  0  0  0  0  0  0  0  0  0  0  0
    2.4984    8.3832    7.5786 H   0  0  0  0  0  0  0  0  0  0  0  0
   10.1853   10.9015    3.8520 H   0  0  0  0  0  0  0  0  0  0  0  0
   10.3566   10.6523    2.0780 H   0  0  0  0  0  0  0  0  0  0  0  0
   11.9735    9.2655    4.3244 H   0  0  0  0  0  0  0  0  0  0  0  0
   12.5370   10.5047    3.1426 H   0  0  0  0  0  0  0  0  0  0  0  0
  1  2  1  0
  2  3  1  0
  2  4  1  0
  4  5  1  0
  5  6  1  0
  6  7  1  0
  7  8  1  0
  8  9  2  0
  8 10  1  0
 10 11  1  0
 11 12  1  0
 12 13  1  0
 13 14  1  0
 14 15  2  3
 15 16  1  0
  7 17  1  0
 17 18  1  0
 18  4  1  0
  1 19  1  0
  1 20  1  0
  1 21  1  0
  2 22  1  0
  3 23  1  0
  3 24  1  0
  3 25  1  0
  4 26  1  0
  5 27  1  0
  5 28  1  0
  6 29  1  0
  6 30  1  0
  7 31  1  0
 10 32  1  0
 11 33  1  0
 11 34  1  0
 12 35  1  0
 12 36  1  0
 13 37  1  0
 14 38  1  0
 16 39  1  0
 16 40  1  0
 17 41  1  0
 17 42  1  0
 18 43  1  0
 18 44  1  0
M  CHG  1   3   1
M  END
>  <EmbedRMS>  (88) 
0.029670762141164694

$$$$

     RDKit          3D

 42 43  0  0  0  0  0  0  0  0999 V2000
    2.8730    6.3148    1.4110 C   0  0  0  0  0  0  0  0  0  0  0  0
    3.6651    7.2052    2.3062 C   0  0  0  0  0  0  0  0  0  0  0  0
    3.8906    6.9415    3.6113 N   0  0  0  0  0  0  0  0  0  0  0  0
    4.6084    7.8820    4.2226 N   0  0  0  0  0  0  0  0  0  0  0  0
    4.9475    8.9103    3.4152 C   0  0  0  0  0  0  0  0  0  0  0  0
    5.8010   10.0574    3.8698 C   0  0  0  0  0  0  0  0  0  0  0  0
    7.2161    9.6605    3.9286 N   0  0  0  0  0  0  0  0  0  0  0  0
    7.9844    9.5268    2.7205 C   0  0  0  0  0  0  0  0  0  0  0  0
    7.4169    9.6972    1.6151 O   0  0  0  0  0  0  0  0  0  0  0  0
    9.4474    9.2020    2.6356 C   0  0  0  0  0  0  0  0  0  0  0  0
    9.7427    7.7264    2.5440 C   0  0  0  0  0  0  0  0  0  0  0  0
   11.1782    7.4396    2.1348 C   0  0  0  0  0  0  0  0  0  0  0  0
   12.2602    8.3272    2.7671 C   0  0  0  0  0  0  0  0  0  0  0  0
   13.5998    8.3243    1.9898 C   0  0  0  0  0  0  0  0  0  0  0  0
   14.0107    7.0505    1.2530 C   0  0  0  0  0  0  0  0  0  0  0  0
   14.7017    8.8918    2.7697 N   0  0  0  0  0  4  0  0  0  0  0  0
   11.8478    9.7807    3.1210 C   0  0  0  0  0  0  0  0  0  0  0  0
   10.3833   10.0201    3.4817 C   0  0  0  0  0  0  0  0  0  0  0  0
    4.3504    8.6769    1.8520 S   0  0  0  0  0  0  0  0  0  0  0  0
    1.8185    6.6595    1.3869 H   0  0  0  0  0  0  0  0  0  0  0  0
    3.2915    6.3436    0.3833 H   0  0  0  0  0  0  0  0  0  0  0  0
    2.9083    5.2699    1.7845 H   0  0  0  0  0  0  0  0  0  0  0  0
    5.6734   10.9297    3.1932 H   0  0  0  0  0  0  0  0  0  0  0  0
    5.4669   10.3675    4.8829 H   0  0  0  0  0  0  0  0  0  0  0  0
    7.6777    9.5192    4.8547 H   0  0  0  0  0  0  0  0  0  0  0  0
    9.7203    9.5599    1.6117 H   0  0  0  0  0  0  0  0  0  0  0  0
    9.5593    7.2715    3.5419 H   0  0  0  0  0  0  0  0  0  0  0  0
    9.0524    7.2360    1.8212 H   0  0  0  0  0  0  0  0  0  0  0  0
   11.2121    7.5911    1.0337 H   0  0  0  0  0  0  0  0  0  0  0  0
   11.4045    6.3669    2.3243 H   0  0  0  0  0  0  0  0  0  0  0  0
   12.4674    7.8408    3.7470 H   0  0  0  0  0  0  0  0  0  0  0  0
   13.4358    9.0283    1.1409 H   0  0  0  0  0  0  0  0  0  0  0  0
   14.1169    6.2178    1.9797 H   0  0  0  0  0  0  0  0  0  0  0  0
   13.2666    6.7641    0.4818 H   0  0  0  0  0  0  0  0  0  0  0  0
   14.9822    7.1931    0.7333 H   0  0  0  0  0  0  0  0  0  0  0  0
   14.8370    8.3418    3.6488 H   0  0  0  0  0  0  0  0  0  0  0  0
   15.5912    8.8671    2.2200 H   0  0  0  0  0  0  0  0  0  0  0  0
   14.5193    9.8924    3.0075 H   0  0  0  0  0  0  0  0  0  0  0  0
   12.4685   10.1524    3.9653 H   0  0  0  0  0  0  0  0  0  0  0  0
   12.0640   10.4405    2.2518 H   0  0  0  0  0  0  0  0  0  0  0  0
   10.1460   11.1032    3.3851 H   0  0  0  0  0  0  0  0  0  0  0  0
   10.2291    9.7360    4.5455 H   0  0  0  0  0  0  0  0  0  0  0  0
  1  2  1  0
  2  3  2  0
  3  4  1  0
  4  5  2  0
  5  6  1  0
  6  7  1  0
  7  8  1  0
  8  9  2  0
  8 10  1  0
 10 11  1  0
 11 12  1  0
 12 13  1  0
 13 14  1  0
 14 15  1  0
 14 16  1  0
 13 17  1  0
 17 18  1  0
  5 19  1  0
 19  2  1  0
 18 10  1  0
  1 20  1  0
  1 21  1  0
  1 22  1  0
  6 23  1  0
  6 24  1  0
  7 25  1  0
 10 26  1  0
 11 27  1  0
 11 28  1  0
 12 29  1  0
 12 30  1  0
 13 31  1  0
 14 32  1  0
 15 33  1  0
 15 34  1  0
 15 35  1  0
 16 36  1  0
 16 37  1  0
 16 38  1  0
 17 39  1  0
 17 40  1  0
 18 41  1  0
 18 42  1  0
M  CHG  1  16   1
M  END
>  <EmbedRMS>  (89) 
0.28560676549796915

$$$$

     RDKit          3D

 43 43  0  0  0  0  0  0  0  0999 V2000
    5.0050   11.5098    7.1986 C   0  0  0  0  0  0  0  0  0  0  0  0
    5.6534   11.4114    5.8925 N   0  0  0  0  0  4  0  0  0  0  0  0
    5.0764   10.2943    5.1324 C   0  0  0  0  0  0  0  0  0  0  0  0
    5.7721   10.1344    3.7825 C   0  0  0  0  0  0  0  0  0  0  0  0
    7.1449    9.6763    3.9645 N   0  0  0  0  0  0  0  0  0  0  0  0
    8.0156    9.4656    2.8537 C   0  0  0  0  0  0  0  0  0  0  0  0
    7.6126    9.6911    1.6783 O   0  0  0  0  0  0  0  0  0  0  0  0
    9.4195    8.9872    3.0996 C   0  0  0  0  0  0  0  0  0  0  0  0
    9.8040    7.9211    2.0779 C   0  0  0  0  0  0  0  0  0  0  0  0
   11.1610    7.3109    2.3955 C   0  0  0  0  0  0  0  0  0  0  0  0
   12.2775    8.3210    2.7732 C   0  0  0  0  0  0  0  0  0  0  0  0
   13.5820    8.3572    1.9533 C   0  0  0  0  0  0  0  0  0  0  0  0
   13.9851    7.0989    1.1848 C   0  0  0  0  0  0  0  0  0  0  0  0
   14.7126    8.8837    2.7301 N   0  0  0  0  0  4  0  0  0  0  0  0
   11.8333    9.7186    3.3042 C   0  0  0  0  0  0  0  0  0  0  0  0
   10.3996   10.1507    3.0037 C   0  0  0  0  0  0  0  0  0  0  0  0
    5.4336   12.3647    7.7650 H   0  0  0  0  0  0  0  0  0  0  0  0
    3.9123   11.6848    7.0844 H   0  0  0  0  0  0  0  0  0  0  0  0
    5.1724   10.5840    7.7923 H   0  0  0  0  0  0  0  0  0  0  0  0
    6.6785   11.2701    6.0448 H   0  0  0  0  0  0  0  0  0  0  0  0
    5.5017   12.3081    5.3736 H   0  0  0  0  0  0  0  0  0  0  0  0
    3.9953   10.4845    4.9454 H   0  0  0  0  0  0  0  0  0  0  0  0
    5.1645    9.3419    5.7036 H   0  0  0  0  0  0  0  0  0  0  0  0
    5.7677   11.1042    3.2388 H   0  0  0  0  0  0  0  0  0  0  0  0
    5.2166    9.3875    3.1751 H   0  0  0  0  0  0  0  0  0  0  0  0
    7.4993    9.4473    4.9211 H   0  0  0  0  0  0  0  0  0  0  0  0
    9.4791    8.5430    4.1189 H   0  0  0  0  0  0  0  0  0  0  0  0
    9.0401    7.1115    2.0710 H   0  0  0  0  0  0  0  0  0  0  0  0
    9.8381    8.3604    1.0554 H   0  0  0  0  0  0  0  0  0  0  0  0
   11.0035    6.5987    3.2390 H   0  0  0  0  0  0  0  0  0  0  0  0
   11.4463    6.6777    1.5353 H   0  0  0  0  0  0  0  0  0  0  0  0
   12.6602    7.8393    3.7041 H   0  0  0  0  0  0  0  0  0  0  0  0
   13.3818    9.1014    1.1484 H   0  0  0  0  0  0  0  0  0  0  0  0
   15.0014    7.2122    0.7511 H   0  0  0  0  0  0  0  0  0  0  0  0
   13.9884    6.2217    1.8658 H   0  0  0  0  0  0  0  0  0  0  0  0
   13.2939    6.9116    0.3364 H   0  0  0  0  0  0  0  0  0  0  0  0
   14.9962    8.1893    3.4593 H   0  0  0  0  0  0  0  0  0  0  0  0
   14.4937    9.7895    3.1978 H   0  0  0  0  0  0  0  0  0  0  0  0
   15.5301    9.0536    2.0996 H   0  0  0  0  0  0  0  0  0  0  0  0
   12.4794   10.5257    2.9005 H   0  0  0  0  0  0  0  0  0  0  0  0
   11.9640    9.7479    4.4104 H   0  0  0  0  0  0  0  0  0  0  0  0
   10.1046   10.9516    3.7180 H   0  0  0  0  0  0  0  0  0  0  0  0
   10.3605   10.5876    1.9801 H   0  0  0  0  0  0  0  0  0  0  0  0
  1  2  1  0
  2  3  1  0
  3  4  1  0
  4  5  1  0
  5  6  1  0
  6  7  2  0
  6  8  1  0
  8  9  1  0
  9 10  1  0
 10 11  1  0
 11 12  1  0
 12 13  1  0
 12 14  1  0
 11 15  1  0
 15 16  1  0
 16  8  1  0
  1 17  1  0
  1 18  1  0
  1 19  1  0
  2 20  1  0
  2 21  1  0
  3 22  1  0
  3 23  1  0
  4 24  1  0
  4 25  1  0
  5 26  1  0
  8 27  1  0
  9 28  1  0
  9 29  1  0
 10 30  1  0
 10 31  1  0
 11 32  1  0
 12 33  1  0
 13 34  1  0
 13 35  1  0
 13 36  1  0
 14 37  1  0
 14 38  1  0
 14 39  1  0
 15 40  1  0
 15 41  1  0
 16 42  1  0
 16 43  1  0
M  CHG  2   2   1  14   1
M  END
>  <EmbedRMS>  (90) 
0.2153162907233524

$$$$

     RDKit          3D

 40 41  0  0  0  0  0  0  0  0999 V2000
    2.5979   11.0607    5.6135 C   0  0  0  0  0  0  0  0  0  0  0  0
    3.6665   10.7752    4.6126 C   0  0  0  0  0  0  0  0  0  0  0  0
    4.9509   10.3355    4.9950 C   0  0  0  0  0  0  0  0  0  0  0  0
    5.7883   10.1370    3.9111 C   0  0  0  0  0  0  0  0  0  0  0  0
    7.1490    9.6984    3.9884 N   0  0  0  0  0  0  0  0  0  0  0  0
    8.0079    9.4702    2.8634 C   0  0  0  0  0  0  0  0  0  0  0  0
    7.6060    9.6872    1.6865 O   0  0  0  0  0  0  0  0  0  0  0  0
    9.4147    8.9892    3.1030 C   0  0  0  0  0  0  0  0  0  0  0  0
    9.7989    7.9230    2.0801 C   0  0  0  0  0  0  0  0  0  0  0  0
   11.1577    7.3126    2.3941 C   0  0  0  0  0  0  0  0  0  0  0  0
   12.2750    8.3216    2.7727 C   0  0  0  0  0  0  0  0  0  0  0  0
   13.5805    8.3572    1.9536 C   0  0  0  0  0  0  0  0  0  0  0  0
   13.9839    7.0986    1.1855 C   0  0  0  0  0  0  0  0  0  0  0  0
   14.7109    8.8838    2.7308 N   0  0  0  0  0  4  0  0  0  0  0  0
   11.8312    9.7192    3.3036 C   0  0  0  0  0  0  0  0  0  0  0  0
   10.3967   10.1516    3.0052 C   0  0  0  0  0  0  0  0  0  0  0  0
    4.8945   10.5210    2.5560 S   0  0  0  0  0  0  0  0  0  0  0  0
    3.4563   10.9385    3.2781 N   0  0  0  0  0  0  0  0  0  0  0  0
    2.4432   10.1726    6.2616 H   0  0  0  0  0  0  0  0  0  0  0  0
    2.8979   11.9252    6.2420 H   0  0  0  0  0  0  0  0  0  0  0  0
    1.6421   11.3014    5.1019 H   0  0  0  0  0  0  0  0  0  0  0  0
    5.2503   10.1713    6.0223 H   0  0  0  0  0  0  0  0  0  0  0  0
    7.5374    9.5313    4.9440 H   0  0  0  0  0  0  0  0  0  0  0  0
    9.4768    8.5439    4.1218 H   0  0  0  0  0  0  0  0  0  0  0  0
    9.0352    7.1133    2.0742 H   0  0  0  0  0  0  0  0  0  0  0  0
    9.8305    8.3627    1.0577 H   0  0  0  0  0  0  0  0  0  0  0  0
   11.0019    6.5977    3.2356 H   0  0  0  0  0  0  0  0  0  0  0  0
   11.4421    6.6823    1.5314 H   0  0  0  0  0  0  0  0  0  0  0  0
   12.6567    7.8395    3.7038 H   0  0  0  0  0  0  0  0  0  0  0  0
   13.3809    9.1011    1.1483 H   0  0  0  0  0  0  0  0  0  0  0  0
   15.0005    7.2117    0.7524 H   0  0  0  0  0  0  0  0  0  0  0  0
   13.2931    6.9112    0.3369 H   0  0  0  0  0  0  0  0  0  0  0  0
   13.9865    6.2216    1.8667 H   0  0  0  0  0  0  0  0  0  0  0  0
   15.5288    9.0530    2.1008 H   0  0  0  0  0  0  0  0  0  0  0  0
   14.9937    8.1898    3.4606 H   0  0  0  0  0  0  0  0  0  0  0  0
   14.4917    9.7900    3.1976 H   0  0  0  0  0  0  0  0  0  0  0  0
   12.4767   10.5261    2.8981 H   0  0  0  0  0  0  0  0  0  0  0  0
   11.9639    9.7495    4.4095 H   0  0  0  0  0  0  0  0  0  0  0  0
   10.1035   10.9531    3.7195 H   0  0  0  0  0  0  0  0  0  0  0  0
   10.3559   10.5883    1.9816 H   0  0  0  0  0  0  0  0  0  0  0  0
  1  2  1  0
  2  3  1  0
  3  4  2  0
  4  5  1  0
  5  6  1  0
  6  7  2  0
  6  8  1  0
  8  9  1  0
  9 10  1  0
 10 11  1  0
 11 12  1  0
 12 13  1  0
 12 14  1  0
 11 15  1  0
 15 16  1  0
  4 17  1  0
 17 18  1  0
 18  2  2  0
 16  8  1  0
  1 19  1  0
  1 20  1  0
  1 21  1  0
  3 22  1  0
  5 23  1  0
  8 24  1  0
  9 25  1  0
  9 26  1  0
 10 27  1  0
 10 28  1  0
 11 29  1  0
 12 30  1  0
 13 31  1  0
 13 32  1  0
 13 33  1  0
 14 34  1  0
 14 35  1  0
 14 36  1  0
 15 37  1  0
 15 38  1  0
 16 39  1  0
 16 40  1  0
M  CHG  1  14   1
M  END
>  <EmbedRMS>  (91) 
0.20198796152370316

$$$$

     RDKit          3D

 42 42  0  0  0  0  0  0  0  0999 V2000
   14.0126    7.0456    1.2245 C   0  0  0  0  0  0  0  0  0  0  0  0
   13.6527    8.3405    1.9334 C   0  0  0  0  0  0  0  0  0  0  0  0
   14.6156    8.7747    2.9400 N   0  0  0  0  0  4  0  0  0  0  0  0
   12.1412    8.5873    2.2327 C   0  0  0  0  0  0  0  0  0  0  0  0
   11.2627    7.3645    2.5401 C   0  0  0  0  0  0  0  0  0  0  0  0
    9.7638    7.7133    2.4316 C   0  0  0  0  0  0  0  0  0  0  0  0
    9.4390    9.1919    2.6602 C   0  0  0  0  0  0  0  0  0  0  0  0
    7.9740    9.5132    2.7369 C   0  0  0  0  0  0  0  0  0  0  0  0
    7.3974    9.6422    1.6289 O   0  0  0  0  0  0  0  0  0  0  0  0
    7.2163    9.6985    3.9467 N   0  0  0  0  0  0  0  0  0  0  0  0
    5.9192   10.3461    3.9305 C   0  0  0  0  0  0  0  0  0  0  0  0
    5.0021    9.9677    4.7654 N   0  0  0  0  0  0  0  0  0  0  0  0
    5.6475   11.4534    3.0392 N   0  0  0  0  0  0  0  0  0  0  0  0
    6.7142   12.3635    2.6162 C   0  0  0  0  0  0  0  0  0  0  0  0
    4.2704   11.7679    2.6494 C   0  0  0  0  0  0  0  0  0  0  0  0
   10.4014   10.0815    3.4322 C   0  0  0  0  0  0  0  0  0  0  0  0
   11.8867    9.6845    3.2864 C   0  0  0  0  0  0  0  0  0  0  0  0
   13.3395    6.8745    0.3569 H   0  0  0  0  0  0  0  0  0  0  0  0
   15.0576    7.0804    0.8477 H   0  0  0  0  0  0  0  0  0  0  0  0
   13.9236    6.1941    1.9313 H   0  0  0  0  0  0  0  0  0  0  0  0
   13.8422    9.0661    1.1034 H   0  0  0  0  0  0  0  0  0  0  0  0
   15.5911    8.5566    2.6312 H   0  0  0  0  0  0  0  0  0  0  0  0
   14.4318    8.2666    3.8349 H   0  0  0  0  0  0  0  0  0  0  0  0
   14.5635    9.8056    3.1028 H   0  0  0  0  0  0  0  0  0  0  0  0
   11.7473    8.9811    1.2663 H   0  0  0  0  0  0  0  0  0  0  0  0
   11.4928    7.0014    3.5659 H   0  0  0  0  0  0  0  0  0  0  0  0
   11.4735    6.5319    1.8375 H   0  0  0  0  0  0  0  0  0  0  0  0
    9.2132    7.1087    3.1848 H   0  0  0  0  0  0  0  0  0  0  0  0
    9.3845    7.3973    1.4326 H   0  0  0  0  0  0  0  0  0  0  0  0
    9.6738    9.5855    1.6416 H   0  0  0  0  0  0  0  0  0  0  0  0
    7.5790    9.2883    4.8362 H   0  0  0  0  0  0  0  0  0  0  0  0
    5.1663    9.1862    5.4385 H   0  0  0  0  0  0  0  0  0  0  0  0
    6.9012   12.2467    1.5284 H   0  0  0  0  0  0  0  0  0  0  0  0
    7.6541   12.1820    3.1783 H   0  0  0  0  0  0  0  0  0  0  0  0
    6.4132   13.4140    2.8157 H   0  0  0  0  0  0  0  0  0  0  0  0
    3.8125   10.8852    2.1553 H   0  0  0  0  0  0  0  0  0  0  0  0
    4.2387   12.6207    1.9373 H   0  0  0  0  0  0  0  0  0  0  0  0
    3.6753   12.0364    3.5475 H   0  0  0  0  0  0  0  0  0  0  0  0
   10.2628   11.1437    3.1249 H   0  0  0  0  0  0  0  0  0  0  0  0
   10.1278   10.0291    4.5084 H   0  0  0  0  0  0  0  0  0  0  0  0
   12.4522   10.5996    3.0066 H   0  0  0  0  0  0  0  0  0  0  0  0
   12.2677    9.3410    4.2733 H   0  0  0  0  0  0  0  0  0  0  0  0
  1  2  1  0
  2  3  1  0
  2  4  1  0
  4  5  1  0
  5  6  1  0
  6  7  1  0
  7  8  1  0
  8  9  2  0
  8 10  1  0
 10 11  1  0
 11 12  2  3
 11 13  1  0
 13 14  1  0
 13 15  1  0
  7 16  1  0
 16 17  1  0
 17  4  1  0
  1 18  1  0
  1 19  1  0
  1 20  1  0
  2 21  1  0
  3 22  1  0
  3 23  1  0
  3 24  1  0
  4 25  1  0
  5 26  1  0
  5 27  1  0
  6 28  1  0
  6 29  1  0
  7 30  1  0
 10 31  1  0
 12 32  1  0
 14 33  1  0
 14 34  1  0
 14 35  1  0
 15 36  1  0
 15 37  1  0
 15 38  1  0
 16 39  1  0
 16 40  1  0
 17 41  1  0
 17 42  1  0
M  CHG  1   3   1
M  END
>  <EmbedRMS>  (92) 
0.258260798322235

$$$$

     RDKit          3D

 48 48  0  0  0  0  0  0  0  0999 V2000
    4.2734    7.7287    1.2684 C   0  0  0  0  0  0  0  0  0  0  0  0
    4.4326    8.8614    1.9602 C   0  0  0  0  0  0  0  0  0  0  0  0
    4.2795   10.1319    1.1713 C   0  0  0  0  0  0  0  0  0  0  0  0
    4.9218    8.9138    3.3805 C   0  0  0  0  0  0  0  0  0  0  0  0
    4.6391    7.9869    4.3249 C   0  0  0  0  0  0  0  0  0  0  0  0
    3.7447    6.7954    4.1641 C   0  0  0  0  0  0  0  0  0  0  0  0
    5.7558   10.0968    3.8283 C   0  0  0  0  0  0  0  0  0  0  0  0
    7.1465    9.6957    3.9946 N   0  0  0  0  0  0  0  0  0  0  0  0
    8.0144    9.4644    2.8810 C   0  0  0  0  0  0  0  0  0  0  0  0
    7.6114    9.6853    1.7036 O   0  0  0  0  0  0  0  0  0  0  0  0
    9.4225    8.9838    3.1214 C   0  0  0  0  0  0  0  0  0  0  0  0
    9.7835    7.9352    2.0758 C   0  0  0  0  0  0  0  0  0  0  0  0
   11.1471    7.3156    2.3191 C   0  0  0  0  0  0  0  0  0  0  0  0
   12.2329    8.2988    2.7955 C   0  0  0  0  0  0  0  0  0  0  0  0
   13.7102    7.9150    2.4296 C   0  0  0  0  0  0  0  0  0  0  0  0
   13.9327    7.3323    1.0258 C   0  0  0  0  0  0  0  0  0  0  0  0
   14.6484    9.0166    2.6728 N   0  0  0  0  0  4  0  0  0  0  0  0
   11.8857    9.7890    2.9955 C   0  0  0  0  0  0  0  0  0  0  0  0
   10.3937   10.1680    3.0620 C   0  0  0  0  0  0  0  0  0  0  0  0
    4.5134    6.7524    1.6574 H   0  0  0  0  0  0  0  0  0  0  0  0
    4.5134    6.7524    1.6574 H   0  0  0  0  0  0  0  0  0  0  0  0
    3.8149   10.9198    1.8008 H   0  0  0  0  0  0  0  0  0  0  0  0
    5.2671   10.4786    0.8043 H   0  0  0  0  0  0  0  0  0  0  0  0
    3.6130    9.9853    0.2927 H   0  0  0  0  0  0  0  0  0  0  0  0
    5.0395    8.1286    5.3234 H   0  0  0  0  0  0  0  0  0  0  0  0
    3.3608    6.4988    5.1627 H   0  0  0  0  0  0  0  0  0  0  0  0
    2.8644    7.0323    3.5305 H   0  0  0  0  0  0  0  0  0  0  0  0
    4.3164    5.9300    3.7717 H   0  0  0  0  0  0  0  0  0  0  0  0
    5.7096   10.9608    3.1372 H   0  0  0  0  0  0  0  0  0  0  0  0
    5.3664   10.4739    4.8000 H   0  0  0  0  0  0  0  0  0  0  0  0
    7.5174    9.5798    4.9648 H   0  0  0  0  0  0  0  0  0  0  0  0
    9.4851    8.5135    4.1284 H   0  0  0  0  0  0  0  0  0  0  0  0
    9.7845    8.4036    1.0650 H   0  0  0  0  0  0  0  0  0  0  0  0
    9.0188    7.1261    2.0695 H   0  0  0  0  0  0  0  0  0  0  0  0
   11.0340    6.4795    3.0482 H   0  0  0  0  0  0  0  0  0  0  0  0
   11.4300    6.8362    1.3636 H   0  0  0  0  0  0  0  0  0  0  0  0
   12.2361    8.0286    3.8799 H   0  0  0  0  0  0  0  0  0  0  0  0
   14.0074    7.0852    3.1156 H   0  0  0  0  0  0  0  0  0  0  0  0
   15.0171    7.2738    0.7923 H   0  0  0  0  0  0  0  0  0  0  0  0
   13.5361    6.2978    0.9561 H   0  0  0  0  0  0  0  0  0  0  0  0
   13.4428    7.9753    0.2641 H   0  0  0  0  0  0  0  0  0  0  0  0
   15.6316    8.6701    2.5840 H   0  0  0  0  0  0  0  0  0  0  0  0
   14.5091    9.7864    1.9794 H   0  0  0  0  0  0  0  0  0  0  0  0
   14.5403    9.3812    3.6465 H   0  0  0  0  0  0  0  0  0  0  0  0
   12.3912   10.1915    3.9032 H   0  0  0  0  0  0  0  0  0  0  0  0
   12.3152   10.3476    2.1368 H   0  0  0  0  0  0  0  0  0  0  0  0
   10.2194   10.8170    3.9489 H   0  0  0  0  0  0  0  0  0  0  0  0
   10.1525   10.7873    2.1676 H   0  0  0  0  0  0  0  0  0  0  0  0
  1  2  2  3
  2  3  1  0
  2  4  1  0
  4  5  2  3
  5  6  1  0
  4  7  1  0
  7  8  1  0
  8  9  1  0
  9 10  2  0
  9 11  1  0
 11 12  1  0
 12 13  1  0
 13 14  1  0
 14 15  1  0
 15 16  1  0
 15 17  1  0
 14 18  1  0
 18 19  1  0
 19 11  1  0
  1 20  1  0
  1 21  1  0
  3 22  1  0
  3 23  1  0
  3 24  1  0
  5 25  1  0
  6 26  1  0
  6 27  1  0
  6 28  1  0
  7 29  1  0
  7 30  1  0
  8 31  1  0
 11 32  1  0
 12 33  1  0
 12 34  1  0
 13 35  1  0
 13 36  1  0
 14 37  1  0
 15 38  1  0
 16 39  1  0
 16 40  1  0
 16 41  1  0
 17 42  1  0
 17 43  1  0
 17 44  1  0
 18 45  1  0
 18 46  1  0
 19 47  1  0
 19 48  1  0
M  CHG  1  17   1
M  END
>  <EmbedRMS>  (93) 
0.16423161568044162

$$$$

     RDKit          3D

 41 42  0  0  0  0  0  0  0  0999 V2000
   14.0155    7.0452    1.2243 C   0  0  0  0  0  0  0  0  0  0  0  0
   13.6577    8.3402    1.9340 C   0  0  0  0  0  0  0  0  0  0  0  0
   14.6213    8.7734    2.9399 N   0  0  0  0  0  4  0  0  0  0  0  0
   12.1479    8.5868    2.2358 C   0  0  0  0  0  0  0  0  0  0  0  0
   11.2708    7.3634    2.5450 C   0  0  0  0  0  0  0  0  0  0  0  0
    9.7738    7.7130    2.4384 C   0  0  0  0  0  0  0  0  0  0  0  0
    9.4545    9.1902    2.6817 C   0  0  0  0  0  0  0  0  0  0  0  0
    7.9930    9.5119    2.7236 C   0  0  0  0  0  0  0  0  0  0  0  0
    7.4746    9.6077    1.5899 O   0  0  0  0  0  0  0  0  0  0  0  0
    7.1920    9.7025    3.9130 N   0  0  0  0  0  0  0  0  0  0  0  0
    5.8002   10.1396    3.9098 C   0  0  0  0  0  0  0  0  0  0  0  0
    5.1136   10.2622    5.1332 C   0  0  0  0  0  0  0  0  0  0  0  0
    3.7791   10.6918    5.1678 C   0  0  0  0  0  0  0  0  0  0  0  0
    3.1050   10.9965    3.9846 C   0  0  0  0  0  0  0  0  0  0  0  0
    3.7620   10.8848    2.7663 C   0  0  0  0  0  0  0  0  0  0  0  0
    5.0915   10.4774    2.7238 C   0  0  0  0  0  0  0  0  0  0  0  0
   10.4123   10.0785    3.4530 C   0  0  0  0  0  0  0  0  0  0  0  0
   11.8967    9.6862    3.2904 C   0  0  0  0  0  0  0  0  0  0  0  0
   13.3412    6.8748    0.3575 H   0  0  0  0  0  0  0  0  0  0  0  0
   15.0600    7.0795    0.8460 H   0  0  0  0  0  0  0  0  0  0  0  0
   13.9272    6.1936    1.9310 H   0  0  0  0  0  0  0  0  0  0  0  0
   13.8472    9.0661    1.1041 H   0  0  0  0  0  0  0  0  0  0  0  0
   14.4394    8.2635    3.8342 H   0  0  0  0  0  0  0  0  0  0  0  0
   14.5690    9.8041    3.1044 H   0  0  0  0  0  0  0  0  0  0  0  0
   15.5964    8.5564    2.6293 H   0  0  0  0  0  0  0  0  0  0  0  0
   11.7549    8.9789    1.2687 H   0  0  0  0  0  0  0  0  0  0  0  0
   11.4801    6.5302    1.8427 H   0  0  0  0  0  0  0  0  0  0  0  0
   11.5022    7.0014    3.5710 H   0  0  0  0  0  0  0  0  0  0  0  0
    9.3960    7.4069    1.4357 H   0  0  0  0  0  0  0  0  0  0  0  0
    9.2216    7.1022    3.1855 H   0  0  0  0  0  0  0  0  0  0  0  0
    9.7131    9.5882    1.6698 H   0  0  0  0  0  0  0  0  0  0  0  0
    7.6559    9.5263    4.8324 H   0  0  0  0  0  0  0  0  0  0  0  0
    5.6153   10.0259    6.0630 H   0  0  0  0  0  0  0  0  0  0  0  0
    3.2672   10.7820    6.1172 H   0  0  0  0  0  0  0  0  0  0  0  0
    2.0739   11.3242    4.0170 H   0  0  0  0  0  0  0  0  0  0  0  0
    3.2415   11.1383    1.8510 H   0  0  0  0  0  0  0  0  0  0  0  0
    5.5040   10.4952    1.7386 H   0  0  0  0  0  0  0  0  0  0  0  0
   10.1475   10.0136    4.5305 H   0  0  0  0  0  0  0  0  0  0  0  0
   10.2671   11.1433    3.1573 H   0  0  0  0  0  0  0  0  0  0  0  0
   12.4562   10.6027    3.0029 H   0  0  0  0  0  0  0  0  0  0  0  0
   12.2889    9.3466    4.2742 H   0  0  0  0  0  0  0  0  0  0  0  0
  1  2  1  0
  2  3  1  0
  2  4  1  0
  4  5  1  0
  5  6  1  0
  6  7  1  0
  7  8  1  0
  8  9  2  0
  8 10  1  0
 10 11  1  0
 11 12  2  0
 12 13  1  0
 13 14  2  0
 14 15  1  0
 15 16  2  0
  7 17  1  0
 17 18  1  0
 18  4  1  0
 16 11  1  0
  1 19  1  0
  1 20  1  0
  1 21  1  0
  2 22  1  0
  3 23  1  0
  3 24  1  0
  3 25  1  0
  4 26  1  0
  5 27  1  0
  5 28  1  0
  6 29  1  0
  6 30  1  0
  7 31  1  0
 10 32  1  0
 12 33  1  0
 13 34  1  0
 14 35  1  0
 15 36  1  0
 16 37  1  0
 17 38  1  0
 17 39  1  0
 18 40  1  0
 18 41  1  0
M  CHG  1   3   1
M  END
>  <EmbedRMS>  (94) 
0.24964892458419108

$$$$

     RDKit          3D

 40 41  0  0  0  0  0  0  0  0999 V2000
   13.9327    7.3325    1.0256 C   0  0  0  0  0  0  0  0  0  0  0  0
   13.7103    7.9149    2.4296 C   0  0  0  0  0  0  0  0  0  0  0  0
   14.6486    9.0166    2.6729 N   0  0  0  0  0  4  0  0  0  0  0  0
   12.2332    8.2988    2.7957 C   0  0  0  0  0  0  0  0  0  0  0  0
   11.1473    7.3154    2.3202 C   0  0  0  0  0  0  0  0  0  0  0  0
    9.7850    7.9361    2.0725 C   0  0  0  0  0  0  0  0  0  0  0  0
    9.4216    8.9846    3.1170 C   0  0  0  0  0  0  0  0  0  0  0  0
    8.0138    9.4667    2.8727 C   0  0  0  0  0  0  0  0  0  0  0  0
    7.6099    9.6873    1.6953 O   0  0  0  0  0  0  0  0  0  0  0  0
    7.1444    9.6965    3.9817 N   0  0  0  0  0  0  0  0  0  0  0  0
    5.7710   10.1442    3.7929 C   0  0  0  0  0  0  0  0  0  0  0  0
    5.1185   10.2761    5.0864 N   0  0  0  0  0  0  0  0  0  0  0  0
    4.4293    9.3275    5.7379 C   0  0  0  0  0  0  0  0  0  0  0  0
    4.0343    9.7656    6.9480 N   0  0  0  0  0  0  0  0  0  0  0  0
    4.5385   11.0196    6.9861 C   0  0  0  0  0  0  0  0  0  0  0  0
    5.2108   11.3384    5.8635 N   0  0  0  0  0  0  0  0  0  0  0  0
   10.3939   10.1683    3.0621 C   0  0  0  0  0  0  0  0  0  0  0  0
   11.8859    9.7890    2.9950 C   0  0  0  0  0  0  0  0  0  0  0  0
   13.5371    6.2976    0.9561 H   0  0  0  0  0  0  0  0  0  0  0  0
   15.0171    7.2751    0.7915 H   0  0  0  0  0  0  0  0  0  0  0  0
   13.4417    7.9750    0.2642 H   0  0  0  0  0  0  0  0  0  0  0  0
   14.0076    7.0851    3.1154 H   0  0  0  0  0  0  0  0  0  0  0  0
   15.6318    8.6701    2.5838 H   0  0  0  0  0  0  0  0  0  0  0  0
   14.5407    9.3809    3.6466 H   0  0  0  0  0  0  0  0  0  0  0  0
   14.5092    9.7864    1.9796 H   0  0  0  0  0  0  0  0  0  0  0  0
   12.2369    8.0292    3.8804 H   0  0  0  0  0  0  0  0  0  0  0  0
   11.0316    6.4816    3.0516 H   0  0  0  0  0  0  0  0  0  0  0  0
   11.4313    6.8325    1.3667 H   0  0  0  0  0  0  0  0  0  0  0  0
    9.7897    8.4048    1.0619 H   0  0  0  0  0  0  0  0  0  0  0  0
    9.0200    7.1274    2.0637 H   0  0  0  0  0  0  0  0  0  0  0  0
    9.4817    8.5135    4.1238 H   0  0  0  0  0  0  0  0  0  0  0  0
    7.5050    9.5372    4.9502 H   0  0  0  0  0  0  0  0  0  0  0  0
    5.7673   11.1272    3.2742 H   0  0  0  0  0  0  0  0  0  0  0  0
    5.2202    9.4099    3.1654 H   0  0  0  0  0  0  0  0  0  0  0  0
    4.2230    8.3382    5.3501 H   0  0  0  0  0  0  0  0  0  0  0  0
    4.4233   11.6886    7.8281 H   0  0  0  0  0  0  0  0  0  0  0  0
   10.2194   10.8143    3.9510 H   0  0  0  0  0  0  0  0  0  0  0  0
   10.1535   10.7909    2.1698 H   0  0  0  0  0  0  0  0  0  0  0  0
   12.3149   10.3468    2.1355 H   0  0  0  0  0  0  0  0  0  0  0  0
   12.3921   10.1924    3.9019 H   0  0  0  0  0  0  0  0  0  0  0  0
  1  2  1  0
  2  3  1  0
  2  4  1  0
  4  5  1  0
  5  6  1  0
  6  7  1  0
  7  8  1  0
  8  9  2  0
  8 10  1  0
 10 11  1  0
 11 12  1  0
 12 13  1  0
 13 14  2  0
 14 15  1  0
 15 16  2  0
  7 17  1  0
 17 18  1  0
 18  4  1  0
 16 12  1  0
  1 19  1  0
  1 20  1  0
  1 21  1  0
  2 22  1  0
  3 23  1  0
  3 24  1  0
  3 25  1  0
  4 26  1  0
  5 27  1  0
  5 28  1  0
  6 29  1  0
  6 30  1  0
  7 31  1  0
 10 32  1  0
 11 33  1  0
 11 34  1  0
 13 35  1  0
 15 36  1  0
 17 37  1  0
 17 38  1  0
 18 39  1  0
 18 40  1  0
M  CHG  1   3   1
M  END
>  <EmbedRMS>  (95) 
0.16387727933122087

$$$$

     RDKit          3D

 44 44  0  0  0  0  0  0  0  0999 V2000
    3.6456    7.7073    1.6078 C   0  0  0  0  0  0  0  0  0  0  0  0
    4.4745    8.8481    2.1178 C   0  0  0  0  0  0  0  0  0  0  0  0
    4.9090    8.9318    3.3912 C   0  0  0  0  0  0  0  0  0  0  0  0
    4.6096    7.8523    4.4015 C   0  0  0  0  0  0  0  0  0  0  0  0
    5.7408   10.1142    3.8156 C   0  0  0  0  0  0  0  0  0  0  0  0
    7.1304    9.7120    3.9876 N   0  0  0  0  0  0  0  0  0  0  0  0
    8.0089    9.4652    2.8836 C   0  0  0  0  0  0  0  0  0  0  0  0
    7.6222    9.6754    1.6990 O   0  0  0  0  0  0  0  0  0  0  0  0
    9.4077    8.9846    3.1580 C   0  0  0  0  0  0  0  0  0  0  0  0
    9.7852    7.8250    2.2160 C   0  0  0  0  0  0  0  0  0  0  0  0
   11.2382    7.3777    2.4536 C   0  0  0  0  0  0  0  0  0  0  0  0
   12.1557    8.5901    2.2127 C   0  0  0  0  0  0  0  0  0  0  0  0
   13.6675    8.3365    1.9399 C   0  0  0  0  0  0  0  0  0  0  0  0
   14.0265    7.0399    1.2345 C   0  0  0  0  0  0  0  0  0  0  0  0
   14.6121    8.7692    2.9620 N   0  0  0  0  0  4  0  0  0  0  0  0
   11.8538    9.6811    3.2548 C   0  0  0  0  0  0  0  0  0  0  0  0
   10.4036   10.1588    3.0896 C   0  0  0  0  0  0  0  0  0  0  0  0
    2.6929    7.6428    2.1741 H   0  0  0  0  0  0  0  0  0  0  0  0
    4.2056    6.7537    1.7048 H   0  0  0  0  0  0  0  0  0  0  0  0
    3.4083    7.8690    0.5354 H   0  0  0  0  0  0  0  0  0  0  0  0
    4.7212    9.6371    1.4122 H   0  0  0  0  0  0  0  0  0  0  0  0
    5.0283    6.8832    4.0578 H   0  0  0  0  0  0  0  0  0  0  0  0
    3.5125    7.7550    4.5406 H   0  0  0  0  0  0  0  0  0  0  0  0
    5.0638    8.0937    5.3858 H   0  0  0  0  0  0  0  0  0  0  0  0
    5.6791   10.9551    3.0898 H   0  0  0  0  0  0  0  0  0  0  0  0
    5.3474   10.4985    4.7815 H   0  0  0  0  0  0  0  0  0  0  0  0
    7.4941    9.6118    4.9623 H   0  0  0  0  0  0  0  0  0  0  0  0
    9.4419    8.5806    4.1950 H   0  0  0  0  0  0  0  0  0  0  0  0
    9.6539    8.1245    1.1521 H   0  0  0  0  0  0  0  0  0  0  0  0
    9.1100    6.9622    2.4070 H   0  0  0  0  0  0  0  0  0  0  0  0
   11.3688    6.9869    3.4865 H   0  0  0  0  0  0  0  0  0  0  0  0
   11.4598    6.5577    1.7403 H   0  0  0  0  0  0  0  0  0  0  0  0
   11.7999    9.0088    1.2382 H   0  0  0  0  0  0  0  0  0  0  0  0
   13.8807    9.0582    1.1115 H   0  0  0  0  0  0  0  0  0  0  0  0
   13.9065    6.1869    1.9350 H   0  0  0  0  0  0  0  0  0  0  0  0
   13.3751    6.8821    0.3479 H   0  0  0  0  0  0  0  0  0  0  0  0
   15.0815    7.0607    0.8855 H   0  0  0  0  0  0  0  0  0  0  0  0
   14.3773    8.3023    3.8674 H   0  0  0  0  0  0  0  0  0  0  0  0
   14.5943    9.8064    3.0880 H   0  0  0  0  0  0  0  0  0  0  0  0
   15.5883    8.5034    2.6963 H   0  0  0  0  0  0  0  0  0  0  0  0
   12.0199    9.2956    4.2846 H   0  0  0  0  0  0  0  0  0  0  0  0
   12.5064   10.5647    3.0946 H   0  0  0  0  0  0  0  0  0  0  0  0
   10.1706   10.8898    3.8946 H   0  0  0  0  0  0  0  0  0  0  0  0
   10.2991   10.6857    2.1146 H   0  0  0  0  0  0  0  0  0  0  0  0
  1  2  1  0
  2  3  2  3
  3  4  1  0
  3  5  1  0
  5  6  1  0
  6  7  1  0
  7  8  2  0
  7  9  1  0
  9 10  1  0
 10 11  1  0
 11 12  1  0
 12 13  1  0
 13 14  1  0
 13 15  1  0
 12 16  1  0
 16 17  1  0
 17  9  1  0
  1 18  1  0
  1 19  1  0
  1 20  1  0
  2 21  1  0
  4 22  1  0
  4 23  1  0
  4 24  1  0
  5 25  1  0
  5 26  1  0
  6 27  1  0
  9 28  1  0
 10 29  1  0
 10 30  1  0
 11 31  1  0
 11 32  1  0
 12 33  1  0
 13 34  1  0
 14 35  1  0
 14 36  1  0
 14 37  1  0
 15 38  1  0
 15 39  1  0
 15 40  1  0
 16 41  1  0
 16 42  1  0
 17 43  1  0
 17 44  1  0
M  CHG  1  15   1
M  END
>  <EmbedRMS>  (96) 
0.18776451975379213

$$$$

     RDKit          3D

 43 44  0  0  0  0  0  0  0  0999 V2000
   14.0134    7.0450    1.2246 C   0  0  0  0  0  0  0  0  0  0  0  0
   13.6542    8.3401    1.9333 C   0  0  0  0  0  0  0  0  0  0  0  0
   14.6173    8.7741    2.9397 N   0  0  0  0  0  4  0  0  0  0  0  0
   12.1431    8.5871    2.2329 C   0  0  0  0  0  0  0  0  0  0  0  0
   11.2641    7.3646    2.5408 C   0  0  0  0  0  0  0  0  0  0  0  0
    9.7655    7.7147    2.4337 C   0  0  0  0  0  0  0  0  0  0  0  0
    9.4437    9.1939    2.6629 C   0  0  0  0  0  0  0  0  0  0  0  0
    7.9804    9.5185    2.7350 C   0  0  0  0  0  0  0  0  0  0  0  0
    7.4133    9.6743    1.6246 O   0  0  0  0  0  0  0  0  0  0  0  0
    7.2101    9.6866    3.9373 N   0  0  0  0  0  0  0  0  0  0  0  0
    5.8079   10.1133    3.8144 C   0  0  0  0  0  0  0  0  0  0  0  0
    5.1538   10.2714    5.1492 C   0  0  0  0  0  0  0  0  0  0  0  0
    4.4718    9.2849    5.7620 N   0  0  0  0  0  0  0  0  0  0  0  0
    4.1072    9.8685    6.9253 C   0  0  0  0  0  0  0  0  0  0  0  0
    4.5417   11.1409    7.0242 N   0  0  0  0  0  0  0  0  0  0  0  0
    5.2010   11.3813    5.9065 N   0  0  0  0  0  0  0  0  0  0  0  0
    5.8353   12.6534    5.5829 C   0  0  0  0  0  0  0  0  0  0  0  0
   10.4056   10.0818    3.4356 C   0  0  0  0  0  0  0  0  0  0  0  0
   11.8902    9.6850    3.2864 C   0  0  0  0  0  0  0  0  0  0  0  0
   13.3401    6.8741    0.3570 H   0  0  0  0  0  0  0  0  0  0  0  0
   13.9241    6.1936    1.9315 H   0  0  0  0  0  0  0  0  0  0  0  0
   15.0583    7.0793    0.8476 H   0  0  0  0  0  0  0  0  0  0  0  0
   13.8439    9.0655    1.1032 H   0  0  0  0  0  0  0  0  0  0  0  0
   15.5926    8.5556    2.6309 H   0  0  0  0  0  0  0  0  0  0  0  0
   14.4335    8.2663    3.8347 H   0  0  0  0  0  0  0  0  0  0  0  0
   14.5658    9.8051    3.1022 H   0  0  0  0  0  0  0  0  0  0  0  0
   11.7496    8.9805    1.2663 H   0  0  0  0  0  0  0  0  0  0  0  0
   11.4737    6.5320    1.8378 H   0  0  0  0  0  0  0  0  0  0  0  0
   11.4949    7.0012    3.5664 H   0  0  0  0  0  0  0  0  0  0  0  0
    9.3848    7.3993    1.4350 H   0  0  0  0  0  0  0  0  0  0  0  0
    9.2148    7.1108    3.1875 H   0  0  0  0  0  0  0  0  0  0  0  0
    9.6829    9.5863    1.6449 H   0  0  0  0  0  0  0  0  0  0  0  0
    7.6558    9.5381    4.8707 H   0  0  0  0  0  0  0  0  0  0  0  0
    5.2436    9.3553    3.2291 H   0  0  0  0  0  0  0  0  0  0  0  0
    5.7572   11.0764    3.2627 H   0  0  0  0  0  0  0  0  0  0  0  0
    3.5302    9.3698    7.6922 H   0  0  0  0  0  0  0  0  0  0  0  0
    5.2848   13.1450    4.7538 H   0  0  0  0  0  0  0  0  0  0  0  0
    6.8894   12.4828    5.2779 H   0  0  0  0  0  0  0  0  0  0  0  0
    5.8248   13.3227    6.4692 H   0  0  0  0  0  0  0  0  0  0  0  0
   10.1348   10.0263    4.5122 H   0  0  0  0  0  0  0  0  0  0  0  0
   10.2664   11.1448    3.1315 H   0  0  0  0  0  0  0  0  0  0  0  0
   12.2734    9.3423    4.2727 H   0  0  0  0  0  0  0  0  0  0  0  0
   12.4548   10.6000    3.0047 H   0  0  0  0  0  0  0  0  0  0  0  0
  1  2  1  0
  2  3  1  0
  2  4  1  0
  4  5  1  0
  5  6  1  0
  6  7  1  0
  7  8  1  0
  8  9  2  0
  8 10  1  0
 10 11  1  0
 11 12  1  0
 12 13  2  0
 13 14  1  0
 14 15  2  0
 15 16  1  0
 16 17  1  0
  7 18  1  0
 18 19  1  0
 19  4  1  0
 16 12  1  0
  1 20  1  0
  1 21  1  0
  1 22  1  0
  2 23  1  0
  3 24  1  0
  3 25  1  0
  3 26  1  0
  4 27  1  0
  5 28  1  0
  5 29  1  0
  6 30  1  0
  6 31  1  0
  7 32  1  0
 10 33  1  0
 11 34  1  0
 11 35  1  0
 14 36  1  0
 17 37  1  0
 17 38  1  0
 17 39  1  0
 18 40  1  0
 18 41  1  0
 19 42  1  0
 19 43  1  0
M  CHG  1   3   1
M  END
>  <EmbedRMS>  (97) 
0.24309368491659913

$$$$

     RDKit          3D

 41 42  0  0  0  0  0  0  0  0999 V2000
   14.0155    7.0452    1.2243 C   0  0  0  0  0  0  0  0  0  0  0  0
   13.6577    8.3402    1.9340 C   0  0  0  0  0  0  0  0  0  0  0  0
   14.6213    8.7734    2.9399 N   0  0  0  0  0  4  0  0  0  0  0  0
   12.1479    8.5868    2.2358 C   0  0  0  0  0  0  0  0  0  0  0  0
   11.2708    7.3634    2.5450 C   0  0  0  0  0  0  0  0  0  0  0  0
    9.7738    7.7130    2.4384 C   0  0  0  0  0  0  0  0  0  0  0  0
    9.4545    9.1902    2.6817 C   0  0  0  0  0  0  0  0  0  0  0  0
    7.9930    9.5119    2.7236 C   0  0  0  0  0  0  0  0  0  0  0  0
    7.4746    9.6077    1.5899 O   0  0  0  0  0  0  0  0  0  0  0  0
    7.1920    9.7025    3.9130 N   0  0  0  0  0  0  0  0  0  0  0  0
    5.8002   10.1396    3.9098 C   0  0  0  0  0  0  0  0  0  0  0  0
    5.1136   10.2622    5.1332 C   0  0  0  0  0  0  0  0  0  0  0  0
    3.7791   10.6918    5.1678 C   0  0  0  0  0  0  0  0  0  0  0  0
    3.1050   10.9965    3.9846 C   0  0  0  0  0  0  0  0  0  0  0  0
    3.7620   10.8848    2.7663 C   0  0  0  0  0  0  0  0  0  0  0  0
    5.0915   10.4774    2.7238 C   0  0  0  0  0  0  0  0  0  0  0  0
   10.4123   10.0785    3.4530 C   0  0  0  0  0  0  0  0  0  0  0  0
   11.8967    9.6862    3.2904 C   0  0  0  0  0  0  0  0  0  0  0  0
   13.3412    6.8748    0.3575 H   0  0  0  0  0  0  0  0  0  0  0  0
   15.0600    7.0795    0.8460 H   0  0  0  0  0  0  0  0  0  0  0  0
   13.9272    6.1936    1.9310 H   0  0  0  0  0  0  0  0  0  0  0  0
   13.8472    9.0661    1.1041 H   0  0  0  0  0  0  0  0  0  0  0  0
   14.4394    8.2635    3.8342 H   0  0  0  0  0  0  0  0  0  0  0  0
   14.5690    9.8041    3.1044 H   0  0  0  0  0  0  0  0  0  0  0  0
   15.5964    8.5564    2.6293 H   0  0  0  0  0  0  0  0  0  0  0  0
   11.7549    8.9789    1.2687 H   0  0  0  0  0  0  0  0  0  0  0  0
   11.4801    6.5302    1.8427 H   0  0  0  0  0  0  0  0  0  0  0  0
   11.5022    7.0014    3.5710 H   0  0  0  0  0  0  0  0  0  0  0  0
    9.3960    7.4069    1.4357 H   0  0  0  0  0  0  0  0  0  0  0  0
    9.2216    7.1022    3.1855 H   0  0  0  0  0  0  0  0  0  0  0  0
    9.7131    9.5882    1.6698 H   0  0  0  0  0  0  0  0  0  0  0  0
    7.6559    9.5263    4.8324 H   0  0  0  0  0  0  0  0  0  0  0  0
    5.6153   10.0259    6.0630 H   0  0  0  0  0  0  0  0  0  0  0  0
    3.2672   10.7820    6.1172 H   0  0  0  0  0  0  0  0  0  0  0  0
    2.0739   11.3242    4.0170 H   0  0  0  0  0  0  0  0  0  0  0  0
    3.2415   11.1383    1.8510 H   0  0  0  0  0  0  0  0  0  0  0  0
    5.5040   10.4952    1.7386 H   0  0  0  0  0  0  0  0  0  0  0  0
   10.1475   10.0136    4.5305 H   0  0  0  0  0  0  0  0  0  0  0  0
   10.2671   11.1433    3.1573 H   0  0  0  0  0  0  0  0  0  0  0  0
   12.4562   10.6027    3.0029 H   0  0  0  0  0  0  0  0  0  0  0  0
   12.2889    9.3466    4.2742 H   0  0  0  0  0  0  0  0  0  0  0  0
  1  2  1  0
  2  3  1  0
  2  4  1  0
  4  5  1  0
  5  6  1  0
  6  7  1  0
  7  8  1  0
  8  9  2  0
  8 10  1  0
 10 11  1  0
 11 12  2  0
 12 13  1  0
 13 14  2  0
 14 15  1  0
 15 16  2  0
  7 17  1  0
 17 18  1  0
 18  4  1  0
 16 11  1  0
  1 19  1  0
  1 20  1  0
  1 21  1  0
  2 22  1  0
  3 23  1  0
  3 24  1  0
  3 25  1  0
  4 26  1  0
  5 27  1  0
  5 28  1  0
  6 29  1  0
  6 30  1  0
  7 31  1  0
 10 32  1  0
 12 33  1  0
 13 34  1  0
 14 35  1  0
 15 36  1  0
 16 37  1  0
 17 38  1  0
 17 39  1  0
 18 40  1  0
 18 41  1  0
M  CHG  1   3   1
M  END
>  <EmbedRMS>  (98) 
0.24964892458419108

$$$$

     RDKit          3D

 41 41  0  0  0  0  0  0  0  0999 V2000
   14.0128    7.0451    1.2246 C   0  0  0  0  0  0  0  0  0  0  0  0
   13.6534    8.3401    1.9332 C   0  0  0  0  0  0  0  0  0  0  0  0
   14.6165    8.7744    2.9395 N   0  0  0  0  0  4  0  0  0  0  0  0
   12.1420    8.5872    2.2327 C   0  0  0  0  0  0  0  0  0  0  0  0
   11.2631    7.3648    2.5405 C   0  0  0  0  0  0  0  0  0  0  0  0
    9.7641    7.7145    2.4333 C   0  0  0  0  0  0  0  0  0  0  0  0
    9.4407    9.1935    2.6636 C   0  0  0  0  0  0  0  0  0  0  0  0
    7.9759    9.5184    2.7373 C   0  0  0  0  0  0  0  0  0  0  0  0
    7.4055    9.6789    1.6302 O   0  0  0  0  0  0  0  0  0  0  0  0
    7.2040    9.6832    3.9346 N   0  0  0  0  0  0  0  0  0  0  0  0
    5.8641   10.1055    3.8043 N   0  0  0  0  0  0  0  0  0  0  0  0
    5.0841   10.3002    4.8217 C   0  0  0  0  0  0  0  0  0  0  0  0
    3.7250   10.7402    4.6402 N   0  0  0  0  0  0  0  0  0  0  0  0
    3.1736   10.9931    3.3107 C   0  0  0  0  0  0  0  0  0  0  0  0
    2.9039   10.9373    5.7626 N   0  0  0  0  0  0  0  0  0  0  0  0
   10.4042   10.0821    3.4346 C   0  0  0  0  0  0  0  0  0  0  0  0
   11.8889    9.6848    3.2863 C   0  0  0  0  0  0  0  0  0  0  0  0
   13.3395    6.8740    0.3571 H   0  0  0  0  0  0  0  0  0  0  0  0
   13.9237    6.1938    1.9316 H   0  0  0  0  0  0  0  0  0  0  0  0
   15.0578    7.0796    0.8475 H   0  0  0  0  0  0  0  0  0  0  0  0
   13.8429    9.0655    1.1030 H   0  0  0  0  0  0  0  0  0  0  0  0
   14.5651    9.8056    3.1016 H   0  0  0  0  0  0  0  0  0  0  0  0
   15.5918    8.5556    2.6309 H   0  0  0  0  0  0  0  0  0  0  0  0
   14.4325    8.2671    3.8348 H   0  0  0  0  0  0  0  0  0  0  0  0
   11.7481    8.9809    1.2663 H   0  0  0  0  0  0  0  0  0  0  0  0
   11.4729    6.5322    1.8376 H   0  0  0  0  0  0  0  0  0  0  0  0
   11.4938    7.0013    3.5661 H   0  0  0  0  0  0  0  0  0  0  0  0
    9.2137    7.1097    3.1865 H   0  0  0  0  0  0  0  0  0  0  0  0
    9.3838    7.3994    1.4344 H   0  0  0  0  0  0  0  0  0  0  0  0
    9.6779    9.5856    1.6451 H   0  0  0  0  0  0  0  0  0  0  0  0
    7.6358    9.5215    4.8725 H   0  0  0  0  0  0  0  0  0  0  0  0
    5.4574   10.1340    5.8255 H   0  0  0  0  0  0  0  0  0  0  0  0
    3.7613   11.7883    2.8055 H   0  0  0  0  0  0  0  0  0  0  0  0
    3.2128   10.0634    2.7049 H   0  0  0  0  0  0  0  0  0  0  0  0
    2.1160   11.3250    3.3845 H   0  0  0  0  0  0  0  0  0  0  0  0
    2.8597   10.0339    6.2873 H   0  0  0  0  0  0  0  0  0  0  0  0
    3.3700   11.6423    6.3784 H   0  0  0  0  0  0  0  0  0  0  0  0
   10.1334   10.0287    4.5113 H   0  0  0  0  0  0  0  0  0  0  0  0
   10.2657   11.1447    3.1286 H   0  0  0  0  0  0  0  0  0  0  0  0
   12.2714    9.3416    4.2727 H   0  0  0  0  0  0  0  0  0  0  0  0
   12.4541   10.5996    3.0053 H   0  0  0  0  0  0  0  0  0  0  0  0
  1  2  1  0
  2  3  1  0
  2  4  1  0
  4  5  1  0
  5  6  1  0
  6  7  1  0
  7  8  1  0
  8  9  2  0
  8 10  1  0
 10 11  1  0
 11 12  2  3
 12 13  1  0
 13 14  1  0
 13 15  1  0
  7 16  1  0
 16 17  1  0
 17  4  1  0
  1 18  1  0
  1 19  1  0
  1 20  1  0
  2 21  1  0
  3 22  1  0
  3 23  1  0
  3 24  1  0
  4 25  1  0
  5 26  1  0
  5 27  1  0
  6 28  1  0
  6 29  1  0
  7 30  1  0
 10 31  1  0
 12 32  1  0
 14 33  1  0
 14 34  1  0
 14 35  1  0
 15 36  1  0
 15 37  1  0
 16 38  1  0
 16 39  1  0
 17 40  1  0
 17 41  1  0
M  CHG  1   3   1
M  END
>  <EmbedRMS>  (99) 
0.2570984896337683

$$$$

     RDKit          3D

 44 45  0  0  0  0  0  0  0  0999 V2000
    4.3028    7.8917    5.2998 C   0  0  0  0  0  0  0  0  0  0  0  0
    4.4967    9.2924    5.7870 C   0  0  0  0  0  0  0  0  0  0  0  0
    4.0646    9.7201    6.9916 N   0  0  0  0  0  0  0  0  0  0  0  0
    4.4505   11.0125    7.0420 C   0  0  0  0  0  0  0  0  0  0  0  0
    5.1052   11.3471    5.8776 C   0  0  0  0  0  0  0  0  0  0  0  0
    5.1129   10.2648    5.0835 N   0  0  0  0  0  0  0  0  0  0  0  0
    5.7714   10.1513    3.7865 C   0  0  0  0  0  0  0  0  0  0  0  0
    7.1431    9.6970    3.9707 N   0  0  0  0  0  0  0  0  0  0  0  0
    8.0122    9.4686    2.8595 C   0  0  0  0  0  0  0  0  0  0  0  0
    7.6088    9.6869    1.6826 O   0  0  0  0  0  0  0  0  0  0  0  0
    9.4164    8.9884    3.1047 C   0  0  0  0  0  0  0  0  0  0  0  0
    9.8006    7.9217    2.0821 C   0  0  0  0  0  0  0  0  0  0  0  0
   11.1592    7.3118    2.3957 C   0  0  0  0  0  0  0  0  0  0  0  0
   12.2762    8.3214    2.7733 C   0  0  0  0  0  0  0  0  0  0  0  0
   13.5811    8.3571    1.9536 C   0  0  0  0  0  0  0  0  0  0  0  0
   13.9843    7.0986    1.1853 C   0  0  0  0  0  0  0  0  0  0  0  0
   14.7117    8.8838    2.7303 N   0  0  0  0  0  4  0  0  0  0  0  0
   11.8324    9.7189    3.3044 C   0  0  0  0  0  0  0  0  0  0  0  0
   10.3980   10.1510    3.0063 C   0  0  0  0  0  0  0  0  0  0  0  0
    3.8653    7.2626    6.1032 H   0  0  0  0  0  0  0  0  0  0  0  0
    5.2804    7.4601    4.9995 H   0  0  0  0  0  0  0  0  0  0  0  0
    3.6158    7.8924    4.4284 H   0  0  0  0  0  0  0  0  0  0  0  0
    4.2734   11.6684    7.8837 H   0  0  0  0  0  0  0  0  0  0  0  0
    5.5472   12.3045    5.6335 H   0  0  0  0  0  0  0  0  0  0  0  0
    5.7731   11.1404    3.2786 H   0  0  0  0  0  0  0  0  0  0  0  0
    5.2207    9.4330    3.1420 H   0  0  0  0  0  0  0  0  0  0  0  0
    7.5030    9.5336    4.9388 H   0  0  0  0  0  0  0  0  0  0  0  0
    9.4745    8.5451    4.1246 H   0  0  0  0  0  0  0  0  0  0  0  0
    9.0372    7.1118    2.0767 H   0  0  0  0  0  0  0  0  0  0  0  0
    9.8321    8.3609    1.0594 H   0  0  0  0  0  0  0  0  0  0  0  0
   11.0038    6.5975    3.2378 H   0  0  0  0  0  0  0  0  0  0  0  0
   11.4433    6.6810    1.5334 H   0  0  0  0  0  0  0  0  0  0  0  0
   12.6587    7.8395    3.7043 H   0  0  0  0  0  0  0  0  0  0  0  0
   13.3811    9.1011    1.1484 H   0  0  0  0  0  0  0  0  0  0  0  0
   15.0006    7.2118    0.7516 H   0  0  0  0  0  0  0  0  0  0  0  0
   13.2931    6.9111    0.3371 H   0  0  0  0  0  0  0  0  0  0  0  0
   13.9874    6.2216    1.8665 H   0  0  0  0  0  0  0  0  0  0  0  0
   14.4929    9.7903    3.1968 H   0  0  0  0  0  0  0  0  0  0  0  0
   14.9946    8.1901    3.4604 H   0  0  0  0  0  0  0  0  0  0  0  0
   15.5296    9.0526    2.1001 H   0  0  0  0  0  0  0  0  0  0  0  0
   11.9652    9.7490    4.4103 H   0  0  0  0  0  0  0  0  0  0  0  0
   12.4777   10.5259    2.8990 H   0  0  0  0  0  0  0  0  0  0  0  0
   10.1048   10.9527    3.7204 H   0  0  0  0  0  0  0  0  0  0  0  0
   10.3572   10.5873    1.9825 H   0  0  0  0  0  0  0  0  0  0  0  0
  1  2  1  0
  2  3  2  0
  3  4  1  0
  4  5  2  0
  5  6  1  0
  6  7  1  0
  7  8  1  0
  8  9  1  0
  9 10  2  0
  9 11  1  0
 11 12  1  0
 12 13  1  0
 13 14  1  0
 14 15  1  0
 15 16  1  0
 15 17  1  0
 14 18  1  0
 18 19  1  0
  6  2  1  0
 19 11  1  0
  1 20  1  0
  1 21  1  0
  1 22  1  0
  4 23  1  0
  5 24  1  0
  7 25  1  0
  7 26  1  0
  8 27  1  0
 11 28  1  0
 12 29  1  0
 12 30  1  0
 13 31  1  0
 13 32  1  0
 14 33  1  0
 15 34  1  0
 16 35  1  0
 16 36  1  0
 16 37  1  0
 17 38  1  0
 17 39  1  0
 17 40  1  0
 18 41  1  0
 18 42  1  0
 19 43  1  0
 19 44  1  0
M  CHG  1  17   1
M  END
>  <EmbedRMS>  (100) 
0.19660536923015426

$$$$

     RDKit          3D

 39 40  0  0  0  0  0  0  0  0999 V2000
   14.0110    7.0511    1.2526 C   0  0  0  0  0  0  0  0  0  0  0  0
   13.6007    8.3248    1.9901 C   0  0  0  0  0  0  0  0  0  0  0  0
   14.7033    8.8921    2.7690 N   0  0  0  0  0  4  0  0  0  0  0  0
   12.2625    8.3270    2.7691 C   0  0  0  0  0  0  0  0  0  0  0  0
   11.1802    7.4398    2.1370 C   0  0  0  0  0  0  0  0  0  0  0  0
    9.7464    7.7250    2.5506 C   0  0  0  0  0  0  0  0  0  0  0  0
    9.4528    9.2006    2.6508 C   0  0  0  0  0  0  0  0  0  0  0  0
    7.9907    9.5272    2.7197 C   0  0  0  0  0  0  0  0  0  0  0  0
    7.4511    9.6605    1.5982 O   0  0  0  0  0  0  0  0  0  0  0  0
    7.2032    9.6917    3.9188 N   0  0  0  0  0  0  0  0  0  0  0  0
    5.8190   10.1244    3.8864 C   0  0  0  0  0  0  0  0  0  0  0  0
    5.0492   10.4501    2.7707 C   0  0  0  0  0  0  0  0  0  0  0  0
    3.8118   10.8137    3.2504 C   0  0  0  0  0  0  0  0  0  0  0  0
    3.7917   10.7296    4.5924 N   0  0  0  0  0  0  0  0  0  0  0  0
    5.0092   10.3116    4.9903 C   0  0  0  0  0  0  0  0  0  0  0  0
   10.3879   10.0193    3.4937 C   0  0  0  0  0  0  0  0  0  0  0  0
   11.8511    9.7804    3.1265 C   0  0  0  0  0  0  0  0  0  0  0  0
   13.2659    6.7648    0.4822 H   0  0  0  0  0  0  0  0  0  0  0  0
   14.9817    7.1940    0.7316 H   0  0  0  0  0  0  0  0  0  0  0  0
   14.1182    6.2183    1.9789 H   0  0  0  0  0  0  0  0  0  0  0  0
   13.4353    9.0292    1.1418 H   0  0  0  0  0  0  0  0  0  0  0  0
   14.5218    9.8930    3.0061 H   0  0  0  0  0  0  0  0  0  0  0  0
   15.5925    8.8665    2.2188 H   0  0  0  0  0  0  0  0  0  0  0  0
   14.8389    8.3426    3.6484 H   0  0  0  0  0  0  0  0  0  0  0  0
   12.4711    7.8390    3.7480 H   0  0  0  0  0  0  0  0  0  0  0  0
   11.2117    7.5939    1.0361 H   0  0  0  0  0  0  0  0  0  0  0  0
   11.4077    6.3669    2.3236 H   0  0  0  0  0  0  0  0  0  0  0  0
    9.0547    7.2379    1.8268 H   0  0  0  0  0  0  0  0  0  0  0  0
    9.5649    7.2656    3.5467 H   0  0  0  0  0  0  0  0  0  0  0  0
    9.7356    9.5600    1.6294 H   0  0  0  0  0  0  0  0  0  0  0  0
    7.6552    9.5149    4.8435 H   0  0  0  0  0  0  0  0  0  0  0  0
    5.3065   10.4537    1.7245 H   0  0  0  0  0  0  0  0  0  0  0  0
    2.9693   11.1301    2.6494 H   0  0  0  0  0  0  0  0  0  0  0  0
    2.9817   10.9503    5.2127 H   0  0  0  0  0  0  0  0  0  0  0  0
    5.2923   10.1545    6.0229 H   0  0  0  0  0  0  0  0  0  0  0  0
   10.1492   11.1022    3.3982 H   0  0  0  0  0  0  0  0  0  0  0  0
   10.2369    9.7340    4.5575 H   0  0  0  0  0  0  0  0  0  0  0  0
   12.4748   10.1510    3.9689 H   0  0  0  0  0  0  0  0  0  0  0  0
   12.0642   10.4412    2.2573 H   0  0  0  0  0  0  0  0  0  0  0  0
  1  2  1  0
  2  3  1  0
  2  4  1  0
  4  5  1  0
  5  6  1  0
  6  7  1  0
  7  8  1  0
  8  9  2  0
  8 10  1  0
 10 11  1  0
 11 12  1  0
 12 13  2  0
 13 14  1  0
 14 15  1  0
  7 16  1  0
 16 17  1  0
 17  4  1  0
 15 11  2  0
  1 18  1  0
  1 19  1  0
  1 20  1  0
  2 21  1  0
  3 22  1  0
  3 23  1  0
  3 24  1  0
  4 25  1  0
  5 26  1  0
  5 27  1  0
  6 28  1  0
  6 29  1  0
  7 30  1  0
 10 31  1  0
 12 32  1  0
 13 33  1  0
 14 34  1  0
 15 35  1  0
 16 36  1  0
 16 37  1  0
 17 38  1  0
 17 39  1  0
M  CHG  1   3   1
M  END
>  <EmbedRMS>  (101) 
0.3005329260886256

$$$$

     RDKit          3D

 44 45  0  0  0  0  0  0  0  0999 V2000
   14.0105    7.0507    1.2529 C   0  0  0  0  0  0  0  0  0  0  0  0
   13.6000    8.3245    1.9899 C   0  0  0  0  0  0  0  0  0  0  0  0
   14.7021    8.8917    2.7696 N   0  0  0  0  0  4  0  0  0  0  0  0
   12.2606    8.3275    2.7676 C   0  0  0  0  0  0  0  0  0  0  0  0
   11.1783    7.4407    2.1350 C   0  0  0  0  0  0  0  0  0  0  0  0
    9.7434    7.7269    2.5462 C   0  0  0  0  0  0  0  0  0  0  0  0
    9.4479    9.2025    2.6423 C   0  0  0  0  0  0  0  0  0  0  0  0
    7.9856    9.5285    2.7266 C   0  0  0  0  0  0  0  0  0  0  0  0
    7.4173    9.6838    1.6180 O   0  0  0  0  0  0  0  0  0  0  0  0
    7.2153    9.6879    3.9313 N   0  0  0  0  0  0  0  0  0  0  0  0
    5.8125   10.1150    3.8103 C   0  0  0  0  0  0  0  0  0  0  0  0
    5.1581   10.2735    5.1455 C   0  0  0  0  0  0  0  0  0  0  0  0
    4.4142    9.3185    5.8006 C   0  0  0  0  0  0  0  0  0  0  0  0
    4.0184    9.8095    6.9932 N   0  0  0  0  0  0  0  0  0  0  0  0
    4.5338   11.0573    7.0370 C   0  0  0  0  0  0  0  0  0  0  0  0
    5.2367   11.3624    5.9299 N   0  0  0  0  0  0  0  0  0  0  0  0
    5.9108   12.6233    5.6414 C   0  0  0  0  0  0  0  0  0  0  0  0
   10.3850   10.0203    3.4864 C   0  0  0  0  0  0  0  0  0  0  0  0
   11.8487    9.7810    3.1223 C   0  0  0  0  0  0  0  0  0  0  0  0
   14.1171    6.2180    1.9795 H   0  0  0  0  0  0  0  0  0  0  0  0
   14.9817    7.1933    0.7326 H   0  0  0  0  0  0  0  0  0  0  0  0
   13.2659    6.7643    0.4821 H   0  0  0  0  0  0  0  0  0  0  0  0
   13.4358    9.0287    1.1412 H   0  0  0  0  0  0  0  0  0  0  0  0
   14.8372    8.3421    3.6489 H   0  0  0  0  0  0  0  0  0  0  0  0
   15.5917    8.8663    2.2199 H   0  0  0  0  0  0  0  0  0  0  0  0
   14.5203    9.8926    3.0068 H   0  0  0  0  0  0  0  0  0  0  0  0
   12.4679    7.8404    3.7472 H   0  0  0  0  0  0  0  0  0  0  0  0
   11.4049    6.3678    2.3225 H   0  0  0  0  0  0  0  0  0  0  0  0
   11.2113    7.5941    1.0341 H   0  0  0  0  0  0  0  0  0  0  0  0
    9.5610    7.2695    3.5432 H   0  0  0  0  0  0  0  0  0  0  0  0
    9.0524    7.2381    1.8229 H   0  0  0  0  0  0  0  0  0  0  0  0
    9.7203    9.5619    1.6187 H   0  0  0  0  0  0  0  0  0  0  0  0
    7.6617    9.5357    4.8638 H   0  0  0  0  0  0  0  0  0  0  0  0
    5.7633   11.0817    3.2647 H   0  0  0  0  0  0  0  0  0  0  0  0
    5.2487    9.3615    3.2185 H   0  0  0  0  0  0  0  0  0  0  0  0
    4.1788    8.3258    5.4401 H   0  0  0  0  0  0  0  0  0  0  0  0
    4.3948   11.7318    7.8721 H   0  0  0  0  0  0  0  0  0  0  0  0
    5.9498   13.2601    6.5508 H   0  0  0  0  0  0  0  0  0  0  0  0
    5.3604   13.1661    4.8447 H   0  0  0  0  0  0  0  0  0  0  0  0
    6.9500   12.4268    5.3027 H   0  0  0  0  0  0  0  0  0  0  0  0
   10.1474   11.1034    3.3908 H   0  0  0  0  0  0  0  0  0  0  0  0
   10.2327    9.7357    4.5503 H   0  0  0  0  0  0  0  0  0  0  0  0
   12.4711   10.1527    3.9653 H   0  0  0  0  0  0  0  0  0  0  0  0
   12.0631   10.4406    2.2525 H   0  0  0  0  0  0  0  0  0  0  0  0
  1  2  1  0
  2  3  1  0
  2  4  1  0
  4  5  1  0
  5  6  1  0
  6  7  1  0
  7  8  1  0
  8  9  2  0
  8 10  1  0
 10 11  1  0
 11 12  1  0
 12 13  2  0
 13 14  1  0
 14 15  2  0
 15 16  1  0
 16 17  1  0
  7 18  1  0
 18 19  1  0
 19  4  1  0
 16 12  1  0
  1 20  1  0
  1 21  1  0
  1 22  1  0
  2 23  1  0
  3 24  1  0
  3 25  1  0
  3 26  1  0
  4 27  1  0
  5 28  1  0
  5 29  1  0
  6 30  1  0
  6 31  1  0
  7 32  1  0
 10 33  1  0
 11 34  1  0
 11 35  1  0
 13 36  1  0
 15 37  1  0
 17 38  1  0
 17 39  1  0
 17 40  1  0
 18 41  1  0
 18 42  1  0
 19 43  1  0
 19 44  1  0
M  CHG  1   3   1
M  END
>  <EmbedRMS>  (102) 
0.28482549143865477

$$$$

     RDKit          3D

 44 45  0  0  0  0  0  0  0  0999 V2000
   13.9839    7.0986    1.1859 C   0  0  0  0  0  0  0  0  0  0  0  0
   13.5805    8.3573    1.9538 C   0  0  0  0  0  0  0  0  0  0  0  0
   14.7109    8.8841    2.7307 N   0  0  0  0  0  4  0  0  0  0  0  0
   12.2751    8.3221    2.7731 C   0  0  0  0  0  0  0  0  0  0  0  0
   11.1580    7.3128    2.3949 C   0  0  0  0  0  0  0  0  0  0  0  0
    9.7984    7.9226    2.0841 C   0  0  0  0  0  0  0  0  0  0  0  0
    9.4144    8.9888    3.1081 C   0  0  0  0  0  0  0  0  0  0  0  0
    8.0087    9.4688    2.8654 C   0  0  0  0  0  0  0  0  0  0  0  0
    7.6068    9.6884    1.6882 O   0  0  0  0  0  0  0  0  0  0  0  0
    7.1357    9.6903    3.9796 N   0  0  0  0  0  0  0  0  0  0  0  0
    5.7735   10.1841    3.8210 C   0  0  0  0  0  0  0  0  0  0  0  0
    5.7940   11.6487    3.5371 C   0  0  0  0  0  0  0  0  0  0  0  0
    5.6451   12.2639    2.3095 C   0  0  0  0  0  0  0  0  0  0  0  0
    5.7724   13.5950    2.4709 N   0  0  0  0  0  0  0  0  0  0  0  0
    6.0119   13.8216    3.7540 N   0  0  0  0  0  0  0  0  0  0  0  0
    6.1879   15.1475    4.3266 C   0  0  0  0  0  0  0  0  0  0  0  0
    6.0316   12.6636    4.4370 C   0  0  0  0  0  0  0  0  0  0  0  0
   10.3958   10.1516    3.0079 C   0  0  0  0  0  0  0  0  0  0  0  0
   11.8313    9.7200    3.3035 C   0  0  0  0  0  0  0  0  0  0  0  0
   15.0005    7.2114    0.7529 H   0  0  0  0  0  0  0  0  0  0  0  0
   13.9863    6.2216    1.8671 H   0  0  0  0  0  0  0  0  0  0  0  0
   13.2932    6.9111    0.3372 H   0  0  0  0  0  0  0  0  0  0  0  0
   13.3809    9.1010    1.1484 H   0  0  0  0  0  0  0  0  0  0  0  0
   14.9939    8.1902    3.4607 H   0  0  0  0  0  0  0  0  0  0  0  0
   15.5287    9.0534    2.1006 H   0  0  0  0  0  0  0  0  0  0  0  0
   14.4915    9.7903    3.1975 H   0  0  0  0  0  0  0  0  0  0  0  0
   12.6568    7.8404    3.7044 H   0  0  0  0  0  0  0  0  0  0  0  0
   11.4413    6.6843    1.5308 H   0  0  0  0  0  0  0  0  0  0  0  0
   11.0041    6.5965    3.2356 H   0  0  0  0  0  0  0  0  0  0  0  0
    9.0353    7.1124    2.0792 H   0  0  0  0  0  0  0  0  0  0  0  0
    9.8279    8.3625    1.0617 H   0  0  0  0  0  0  0  0  0  0  0  0
    9.4744    8.5458    4.1279 H   0  0  0  0  0  0  0  0  0  0  0  0
    7.4794    9.4927    4.9466 H   0  0  0  0  0  0  0  0  0  0  0  0
    5.2059   10.0091    4.7602 H   0  0  0  0  0  0  0  0  0  0  0  0
    5.2575    9.6320    3.0058 H   0  0  0  0  0  0  0  0  0  0  0  0
    5.4567   11.7772    1.3618 H   0  0  0  0  0  0  0  0  0  0  0  0
    7.0448   15.1443    5.0332 H   0  0  0  0  0  0  0  0  0  0  0  0
    5.2656   15.4435    4.8689 H   0  0  0  0  0  0  0  0  0  0  0  0
    6.3905   15.8875    3.5235 H   0  0  0  0  0  0  0  0  0  0  0  0
    6.2088   12.5665    5.5007 H   0  0  0  0  0  0  0  0  0  0  0  0
   10.1033   10.9533    3.7223 H   0  0  0  0  0  0  0  0  0  0  0  0
   10.3528   10.5881    1.9842 H   0  0  0  0  0  0  0  0  0  0  0  0
   11.9665    9.7515    4.4091 H   0  0  0  0  0  0  0  0  0  0  0  0
   12.4756   10.5267    2.8958 H   0  0  0  0  0  0  0  0  0  0  0  0
  1  2  1  0
  2  3  1  0
  2  4  1  0
  4  5  1  0
  5  6  1  0
  6  7  1  0
  7  8  1  0
  8  9  2  0
  8 10  1  0
 10 11  1  0
 11 12  1  0
 12 13  1  0
 13 14  2  0
 14 15  1  0
 15 16  1  0
 15 17  1  0
  7 18  1  0
 18 19  1  0
 19  4  1  0
 17 12  2  0
  1 20  1  0
  1 21  1  0
  1 22  1  0
  2 23  1  0
  3 24  1  0
  3 25  1  0
  3 26  1  0
  4 27  1  0
  5 28  1  0
  5 29  1  0
  6 30  1  0
  6 31  1  0
  7 32  1  0
 10 33  1  0
 11 34  1  0
 11 35  1  0
 13 36  1  0
 16 37  1  0
 16 38  1  0
 16 39  1  0
 17 40  1  0
 18 41  1  0
 18 42  1  0
 19 43  1  0
 19 44  1  0
M  CHG  1   3   1
M  END
>  <EmbedRMS>  (103) 
0.19659211194601114

$$$$

     RDKit          3D

 41 42  0  0  0  0  0  0  0  0999 V2000
   14.0155    7.0452    1.2243 C   0  0  0  0  0  0  0  0  0  0  0  0
   13.6577    8.3402    1.9340 C   0  0  0  0  0  0  0  0  0  0  0  0
   14.6213    8.7734    2.9399 N   0  0  0  0  0  4  0  0  0  0  0  0
   12.1479    8.5868    2.2358 C   0  0  0  0  0  0  0  0  0  0  0  0
   11.2708    7.3634    2.5450 C   0  0  0  0  0  0  0  0  0  0  0  0
    9.7738    7.7130    2.4384 C   0  0  0  0  0  0  0  0  0  0  0  0
    9.4545    9.1902    2.6817 C   0  0  0  0  0  0  0  0  0  0  0  0
    7.9930    9.5119    2.7236 C   0  0  0  0  0  0  0  0  0  0  0  0
    7.4746    9.6077    1.5899 O   0  0  0  0  0  0  0  0  0  0  0  0
    7.1920    9.7025    3.9130 N   0  0  0  0  0  0  0  0  0  0  0  0
    5.8002   10.1396    3.9098 C   0  0  0  0  0  0  0  0  0  0  0  0
    5.1136   10.2622    5.1332 C   0  0  0  0  0  0  0  0  0  0  0  0
    3.7791   10.6918    5.1678 C   0  0  0  0  0  0  0  0  0  0  0  0
    3.1050   10.9965    3.9846 C   0  0  0  0  0  0  0  0  0  0  0  0
    3.7620   10.8848    2.7663 C   0  0  0  0  0  0  0  0  0  0  0  0
    5.0915   10.4774    2.7238 C   0  0  0  0  0  0  0  0  0  0  0  0
   10.4123   10.0785    3.4530 C   0  0  0  0  0  0  0  0  0  0  0  0
   11.8967    9.6862    3.2904 C   0  0  0  0  0  0  0  0  0  0  0  0
   13.3412    6.8748    0.3575 H   0  0  0  0  0  0  0  0  0  0  0  0
   15.0600    7.0795    0.8460 H   0  0  0  0  0  0  0  0  0  0  0  0
   13.9272    6.1936    1.9310 H   0  0  0  0  0  0  0  0  0  0  0  0
   13.8472    9.0661    1.1041 H   0  0  0  0  0  0  0  0  0  0  0  0
   14.4394    8.2635    3.8342 H   0  0  0  0  0  0  0  0  0  0  0  0
   14.5690    9.8041    3.1044 H   0  0  0  0  0  0  0  0  0  0  0  0
   15.5964    8.5564    2.6293 H   0  0  0  0  0  0  0  0  0  0  0  0
   11.7549    8.9789    1.2687 H   0  0  0  0  0  0  0  0  0  0  0  0
   11.4801    6.5302    1.8427 H   0  0  0  0  0  0  0  0  0  0  0  0
   11.5022    7.0014    3.5710 H   0  0  0  0  0  0  0  0  0  0  0  0
    9.3960    7.4069    1.4357 H   0  0  0  0  0  0  0  0  0  0  0  0
    9.2216    7.1022    3.1855 H   0  0  0  0  0  0  0  0  0  0  0  0
    9.7131    9.5882    1.6698 H   0  0  0  0  0  0  0  0  0  0  0  0
    7.6559    9.5263    4.8324 H   0  0  0  0  0  0  0  0  0  0  0  0
    5.6153   10.0259    6.0630 H   0  0  0  0  0  0  0  0  0  0  0  0
    3.2672   10.7820    6.1172 H   0  0  0  0  0  0  0  0  0  0  0  0
    2.0739   11.3242    4.0170 H   0  0  0  0  0  0  0  0  0  0  0  0
    3.2415   11.1383    1.8510 H   0  0  0  0  0  0  0  0  0  0  0  0
    5.5040   10.4952    1.7386 H   0  0  0  0  0  0  0  0  0  0  0  0
   10.1475   10.0136    4.5305 H   0  0  0  0  0  0  0  0  0  0  0  0
   10.2671   11.1433    3.1573 H   0  0  0  0  0  0  0  0  0  0  0  0
   12.4562   10.6027    3.0029 H   0  0  0  0  0  0  0  0  0  0  0  0
   12.2889    9.3466    4.2742 H   0  0  0  0  0  0  0  0  0  0  0  0
  1  2  1  0
  2  3  1  0
  2  4  1  0
  4  5  1  0
  5  6  1  0
  6  7  1  0
  7  8  1  0
  8  9  2  0
  8 10  1  0
 10 11  1  0
 11 12  2  0
 12 13  1  0
 13 14  2  0
 14 15  1  0
 15 16  2  0
  7 17  1  0
 17 18  1  0
 18  4  1  0
 16 11  1  0
  1 19  1  0
  1 20  1  0
  1 21  1  0
  2 22  1  0
  3 23  1  0
  3 24  1  0
  3 25  1  0
  4 26  1  0
  5 27  1  0
  5 28  1  0
  6 29  1  0
  6 30  1  0
  7 31  1  0
 10 32  1  0
 12 33  1  0
 13 34  1  0
 14 35  1  0
 15 36  1  0
 16 37  1  0
 17 38  1  0
 17 39  1  0
 18 40  1  0
 18 41  1  0
M  CHG  1   3   1
M  END
>  <EmbedRMS>  (104) 
0.24964892458419108

$$$$

     RDKit          3D

 38 39  0  0  0  0  0  0  0  0999 V2000
   13.9842    7.0987    1.1853 C   0  0  0  0  0  0  0  0  0  0  0  0
   13.5812    8.3572    1.9537 C   0  0  0  0  0  0  0  0  0  0  0  0
   14.7119    8.8839    2.7302 N   0  0  0  0  0  4  0  0  0  0  0  0
   12.2765    8.3213    2.7737 C   0  0  0  0  0  0  0  0  0  0  0  0
   11.1597    7.3114    2.3967 C   0  0  0  0  0  0  0  0  0  0  0  0
    9.8012    7.9211    2.0835 C   0  0  0  0  0  0  0  0  0  0  0  0
    9.4166    8.9879    3.1066 C   0  0  0  0  0  0  0  0  0  0  0  0
    8.0125    9.4689    2.8599 C   0  0  0  0  0  0  0  0  0  0  0  0
    7.6232    9.6834    1.6795 O   0  0  0  0  0  0  0  0  0  0  0  0
    7.1436    9.7001    3.9777 N   0  0  0  0  0  0  0  0  0  0  0  0
    5.7812   10.1373    3.8965 C   0  0  0  0  0  0  0  0  0  0  0  0
    5.0590   10.4418    2.7529 C   0  0  0  0  0  0  0  0  0  0  0  0
    3.8212   10.8093    3.2325 C   0  0  0  0  0  0  0  0  0  0  0  0
    3.8279   10.7216    4.5742 N   0  0  0  0  0  0  0  0  0  0  0  0
    5.0150   10.3141    4.9886 N   0  0  0  0  0  0  0  0  0  0  0  0
   10.3981   10.1506    3.0073 C   0  0  0  0  0  0  0  0  0  0  0  0
   11.8327    9.7188    3.3047 C   0  0  0  0  0  0  0  0  0  0  0  0
   13.2929    6.9111    0.3372 H   0  0  0  0  0  0  0  0  0  0  0  0
   15.0005    7.2120    0.7515 H   0  0  0  0  0  0  0  0  0  0  0  0
   13.9876    6.2216    1.8665 H   0  0  0  0  0  0  0  0  0  0  0  0
   13.3808    9.1011    1.1485 H   0  0  0  0  0  0  0  0  0  0  0  0
   14.9955    8.1898    3.4595 H   0  0  0  0  0  0  0  0  0  0  0  0
   14.4928    9.7899    3.1975 H   0  0  0  0  0  0  0  0  0  0  0  0
   15.5292    9.0536    2.0996 H   0  0  0  0  0  0  0  0  0  0  0  0
   12.6593    7.8397    3.7046 H   0  0  0  0  0  0  0  0  0  0  0  0
   11.4436    6.6805    1.5344 H   0  0  0  0  0  0  0  0  0  0  0  0
   11.0047    6.5972    3.2389 H   0  0  0  0  0  0  0  0  0  0  0  0
    9.8330    8.3602    1.0608 H   0  0  0  0  0  0  0  0  0  0  0  0
    9.0379    7.1111    2.0779 H   0  0  0  0  0  0  0  0  0  0  0  0
    9.4755    8.5442    4.1262 H   0  0  0  0  0  0  0  0  0  0  0  0
    7.5254    9.5361    4.9365 H   0  0  0  0  0  0  0  0  0  0  0  0
    5.3557   10.4142    1.7158 H   0  0  0  0  0  0  0  0  0  0  0  0
    2.9703   11.1209    2.6412 H   0  0  0  0  0  0  0  0  0  0  0  0
    3.0273   10.9388    5.2077 H   0  0  0  0  0  0  0  0  0  0  0  0
   10.1052   10.9525    3.7212 H   0  0  0  0  0  0  0  0  0  0  0  0
   10.3568   10.5867    1.9833 H   0  0  0  0  0  0  0  0  0  0  0  0
   12.4776   10.5259    2.8988 H   0  0  0  0  0  0  0  0  0  0  0  0
   11.9660    9.7492    4.4105 H   0  0  0  0  0  0  0  0  0  0  0  0
  1  2  1  0
  2  3  1  0
  2  4  1  0
  4  5  1  0
  5  6  1  0
  6  7  1  0
  7  8  1  0
  8  9  2  0
  8 10  1  0
 10 11  1  0
 11 12  1  0
 12 13  2  0
 13 14  1  0
 14 15  1  0
  7 16  1  0
 16 17  1  0
 17  4  1  0
 15 11  2  0
  1 18  1  0
  1 19  1  0
  1 20  1  0
  2 21  1  0
  3 22  1  0
  3 23  1  0
  3 24  1  0
  4 25  1  0
  5 26  1  0
  5 27  1  0
  6 28  1  0
  6 29  1  0
  7 30  1  0
 10 31  1  0
 12 32  1  0
 13 33  1  0
 14 34  1  0
 16 35  1  0
 16 36  1  0
 17 37  1  0
 17 38  1  0
M  CHG  1   3   1
M  END
>  <EmbedRMS>  (105) 
0.20783527019262546

$$$$

     RDKit          3D

 39 40  0  0  0  0  0  0  0  0999 V2000
   13.9218    7.3286    1.0388 C   0  0  0  0  0  0  0  0  0  0  0  0
   13.7065    7.9215    2.4416 C   0  0  0  0  0  0  0  0  0  0  0  0
   14.6414    9.0272    2.6702 N   0  0  0  0  0  4  0  0  0  0  0  0
   12.2282    8.2940    2.8220 C   0  0  0  0  0  0  0  0  0  0  0  0
   11.1724    7.4168    2.1510 C   0  0  0  0  0  0  0  0  0  0  0  0
    9.7337    7.7235    2.5398 C   0  0  0  0  0  0  0  0  0  0  0  0
    9.4467    9.2034    2.6376 C   0  0  0  0  0  0  0  0  0  0  0  0
    7.9823    9.5379    2.7252 C   0  0  0  0  0  0  0  0  0  0  0  0
    7.4246    9.6832    1.6109 O   0  0  0  0  0  0  0  0  0  0  0  0
    7.2054    9.6924    3.9346 N   0  0  0  0  0  0  0  0  0  0  0  0
    5.8186   10.1262    3.9049 C   0  0  0  0  0  0  0  0  0  0  0  0
    5.0843   10.2841    5.0899 C   0  0  0  0  0  0  0  0  0  0  0  0
    3.7896   10.7044    5.0304 N   0  0  0  0  0  0  0  0  0  0  0  0
    3.1852   10.9765    3.8439 C   0  0  0  0  0  0  0  0  0  0  0  0
    3.9054   10.8220    2.6617 C   0  0  0  0  0  0  0  0  0  0  0  0
    5.1965   10.4042    2.7212 N   0  0  0  0  0  0  0  0  0  0  0  0
   10.4229   10.0512    3.4215 C   0  0  0  0  0  0  0  0  0  0  0  0
   11.8773    9.7845    2.9988 C   0  0  0  0  0  0  0  0  0  0  0  0
   13.5725    8.0453    0.2657 H   0  0  0  0  0  0  0  0  0  0  0  0
   13.3766    6.3683    0.9251 H   0  0  0  0  0  0  0  0  0  0  0  0
   14.9987    7.1180    0.8661 H   0  0  0  0  0  0  0  0  0  0  0  0
   14.0103    7.0974    3.1302 H   0  0  0  0  0  0  0  0  0  0  0  0
   15.6222    8.7095    2.4917 H   0  0  0  0  0  0  0  0  0  0  0  0
   14.5978    9.3367    3.6677 H   0  0  0  0  0  0  0  0  0  0  0  0
   14.4317    9.8281    2.0314 H   0  0  0  0  0  0  0  0  0  0  0  0
   12.1619    7.9503    3.8816 H   0  0  0  0  0  0  0  0  0  0  0  0
   11.2438    7.5665    1.0520 H   0  0  0  0  0  0  0  0  0  0  0  0
   11.3796    6.3433    2.3578 H   0  0  0  0  0  0  0  0  0  0  0  0
    9.5307    7.2675    3.5334 H   0  0  0  0  0  0  0  0  0  0  0  0
    9.0483    7.2419    1.8065 H   0  0  0  0  0  0  0  0  0  0  0  0
    9.7023    9.5364    1.6005 H   0  0  0  0  0  0  0  0  0  0  0  0
    7.6693    9.5117    4.8530 H   0  0  0  0  0  0  0  0  0  0  0  0
    5.5378   10.0774    6.0503 H   0  0  0  0  0  0  0  0  0  0  0  0
    2.1560   11.3088    3.8216 H   0  0  0  0  0  0  0  0  0  0  0  0
    3.4456   11.0325    1.7054 H   0  0  0  0  0  0  0  0  0  0  0  0
   10.3106    9.8103    4.5008 H   0  0  0  0  0  0  0  0  0  0  0  0
   10.1904   11.1309    3.2874 H   0  0  0  0  0  0  0  0  0  0  0  0
   12.0535   10.2959    2.0276 H   0  0  0  0  0  0  0  0  0  0  0  0
   12.5381   10.2614    3.7532 H   0  0  0  0  0  0  0  0  0  0  0  0
  1  2  1  0
  2  3  1  0
  2  4  1  0
  4  5  1  0
  5  6  1  0
  6  7  1  0
  7  8  1  0
  8  9  2  0
  8 10  1  0
 10 11  1  0
 11 12  2  0
 12 13  1  0
 13 14  2  0
 14 15  1  0
 15 16  2  0
  7 17  1  0
 17 18  1  0
 18  4  1  0
 16 11  1  0
  1 19  1  0
  1 20  1  0
  1 21  1  0
  2 22  1  0
  3 23  1  0
  3 24  1  0
  3 25  1  0
  4 26  1  0
  5 27  1  0
  5 28  1  0
  6 29  1  0
  6 30  1  0
  7 31  1  0
 10 32  1  0
 12 33  1  0
 14 34  1  0
 15 35  1  0
 17 36  1  0
 17 37  1  0
 18 38  1  0
 18 39  1  0
M  CHG  1   3   1
M  END
>  <EmbedRMS>  (106) 
0.26001469916217457

$$$$

     RDKit          3D

 38 38  0  0  0  0  0  0  0  0999 V2000
   14.0278    7.2301    1.0860 C   0  0  0  0  0  0  0  0  0  0  0  0
   13.6450    7.9625    2.3849 C   0  0  0  0  0  0  0  0  0  0  0  0
   14.6261    9.0244    2.6476 N   0  0  0  0  0  4  0  0  0  0  0  0
   12.1809    8.5082    2.2945 C   0  0  0  0  0  0  0  0  0  0  0  0
   11.1969    7.3498    2.5393 C   0  0  0  0  0  0  0  0  0  0  0  0
    9.7336    7.7424    2.3683 C   0  0  0  0  0  0  0  0  0  0  0  0
    9.4466    9.2130    2.6282 C   0  0  0  0  0  0  0  0  0  0  0  0
    7.9828    9.5319    2.7246 C   0  0  0  0  0  0  0  0  0  0  0  0
    7.3913    9.6623    1.6258 O   0  0  0  0  0  0  0  0  0  0  0  0
    7.2450    9.7061    3.9487 N   0  0  0  0  0  0  0  0  0  0  0  0
    5.9459   10.3385    4.0016 C   0  0  0  0  0  0  0  0  0  0  0  0
    5.7123   11.3855    3.2155 N   0  0  0  0  0  0  0  0  0  0  0  0
    6.7637   12.2386    2.6978 N   0  0  0  0  0  0  0  0  0  0  0  0
    6.4331   13.3530    1.9193 N   0  0  0  0  0  0  0  0  0  0  0  0
   10.4148   10.0737    3.4204 C   0  0  0  0  0  0  0  0  0  0  0  0
   11.8933    9.6372    3.3163 C   0  0  0  0  0  0  0  0  0  0  0  0
   15.0711    6.8548    1.1528 H   0  0  0  0  0  0  0  0  0  0  0  0
   13.3807    6.3499    0.9040 H   0  0  0  0  0  0  0  0  0  0  0  0
   13.9583    7.9169    0.2155 H   0  0  0  0  0  0  0  0  0  0  0  0
   13.7129    7.2277    3.2199 H   0  0  0  0  0  0  0  0  0  0  0  0
   14.5259    9.7974    1.9497 H   0  0  0  0  0  0  0  0  0  0  0  0
   14.5124    9.3997    3.6162 H   0  0  0  0  0  0  0  0  0  0  0  0
   15.5979    8.6418    2.5864 H   0  0  0  0  0  0  0  0  0  0  0  0
   12.0108    8.9215    1.2747 H   0  0  0  0  0  0  0  0  0  0  0  0
   11.3989    6.4984    1.8584 H   0  0  0  0  0  0  0  0  0  0  0  0
   11.3407    6.9718    3.5768 H   0  0  0  0  0  0  0  0  0  0  0  0
    9.1268    7.1289    3.0705 H   0  0  0  0  0  0  0  0  0  0  0  0
    9.3969    7.4677    1.3416 H   0  0  0  0  0  0  0  0  0  0  0  0
    9.6972    9.6217    1.6175 H   0  0  0  0  0  0  0  0  0  0  0  0
    7.6388    9.3132    4.8318 H   0  0  0  0  0  0  0  0  0  0  0  0
    5.3275   10.9362    3.3710 H   0  0  0  0  0  0  0  0  0  0  0  0
    7.7339   12.1666    3.0819 H   0  0  0  0  0  0  0  0  0  0  0  0
    7.1816   13.4583    1.1974 H   0  0  0  0  0  0  0  0  0  0  0  0
    6.4888   14.1895    2.5431 H   0  0  0  0  0  0  0  0  0  0  0  0
   10.3143   11.1398    3.1116 H   0  0  0  0  0  0  0  0  0  0  0  0
   10.1130   10.0318    4.4895 H   0  0  0  0  0  0  0  0  0  0  0  0
   12.2283    9.3007    4.3230 H   0  0  0  0  0  0  0  0  0  0  0  0
   12.4935   10.5344    3.0522 H   0  0  0  0  0  0  0  0  0  0  0  0
  1  2  1  0
  2  3  1  0
  2  4  1  0
  4  5  1  0
  5  6  1  0
  6  7  1  0
  7  8  1  0
  8  9  2  0
  8 10  1  0
 10 11  1  0
 11 12  2  3
 12 13  1  0
 13 14  1  0
  7 15  1  0
 15 16  1  0
 16  4  1  0
  1 17  1  0
  1 18  1  0
  1 19  1  0
  2 20  1  0
  3 21  1  0
  3 22  1  0
  3 23  1  0
  4 24  1  0
  5 25  1  0
  5 26  1  0
  6 27  1  0
  6 28  1  0
  7 29  1  0
 10 30  1  0
 11 31  1  0
 13 32  1  0
 14 33  1  0
 14 34  1  0
 15 35  1  0
 15 36  1  0
 16 37  1  0
 16 38  1  0
M  CHG  1   3   1
M  END
>  <EmbedRMS>  (107) 
0.19412633373752486

$$$$

     RDKit          3D

 39 40  0  0  0  0  0  0  0  0999 V2000
   14.0110    7.0511    1.2526 C   0  0  0  0  0  0  0  0  0  0  0  0
   13.6007    8.3248    1.9901 C   0  0  0  0  0  0  0  0  0  0  0  0
   14.7033    8.8921    2.7690 N   0  0  0  0  0  4  0  0  0  0  0  0
   12.2625    8.3270    2.7691 C   0  0  0  0  0  0  0  0  0  0  0  0
   11.1802    7.4398    2.1370 C   0  0  0  0  0  0  0  0  0  0  0  0
    9.7464    7.7250    2.5506 C   0  0  0  0  0  0  0  0  0  0  0  0
    9.4528    9.2006    2.6508 C   0  0  0  0  0  0  0  0  0  0  0  0
    7.9907    9.5272    2.7197 C   0  0  0  0  0  0  0  0  0  0  0  0
    7.4511    9.6605    1.5982 O   0  0  0  0  0  0  0  0  0  0  0  0
    7.2032    9.6917    3.9188 N   0  0  0  0  0  0  0  0  0  0  0  0
    5.8190   10.1244    3.8864 C   0  0  0  0  0  0  0  0  0  0  0  0
    5.0492   10.4501    2.7707 C   0  0  0  0  0  0  0  0  0  0  0  0
    3.8118   10.8137    3.2504 C   0  0  0  0  0  0  0  0  0  0  0  0
    3.7917   10.7296    4.5924 N   0  0  0  0  0  0  0  0  0  0  0  0
    5.0092   10.3116    4.9903 C   0  0  0  0  0  0  0  0  0  0  0  0
   10.3879   10.0193    3.4937 C   0  0  0  0  0  0  0  0  0  0  0  0
   11.8511    9.7804    3.1265 C   0  0  0  0  0  0  0  0  0  0  0  0
   13.2659    6.7648    0.4822 H   0  0  0  0  0  0  0  0  0  0  0  0
   14.9817    7.1940    0.7316 H   0  0  0  0  0  0  0  0  0  0  0  0
   14.1182    6.2183    1.9789 H   0  0  0  0  0  0  0  0  0  0  0  0
   13.4353    9.0292    1.1418 H   0  0  0  0  0  0  0  0  0  0  0  0
   14.5218    9.8930    3.0061 H   0  0  0  0  0  0  0  0  0  0  0  0
   15.5925    8.8665    2.2188 H   0  0  0  0  0  0  0  0  0  0  0  0
   14.8389    8.3426    3.6484 H   0  0  0  0  0  0  0  0  0  0  0  0
   12.4711    7.8390    3.7480 H   0  0  0  0  0  0  0  0  0  0  0  0
   11.2117    7.5939    1.0361 H   0  0  0  0  0  0  0  0  0  0  0  0
   11.4077    6.3669    2.3236 H   0  0  0  0  0  0  0  0  0  0  0  0
    9.0547    7.2379    1.8268 H   0  0  0  0  0  0  0  0  0  0  0  0
    9.5649    7.2656    3.5467 H   0  0  0  0  0  0  0  0  0  0  0  0
    9.7356    9.5600    1.6294 H   0  0  0  0  0  0  0  0  0  0  0  0
    7.6552    9.5149    4.8435 H   0  0  0  0  0  0  0  0  0  0  0  0
    5.3065   10.4537    1.7245 H   0  0  0  0  0  0  0  0  0  0  0  0
    2.9693   11.1301    2.6494 H   0  0  0  0  0  0  0  0  0  0  0  0
    2.9817   10.9503    5.2127 H   0  0  0  0  0  0  0  0  0  0  0  0
    5.2923   10.1545    6.0229 H   0  0  0  0  0  0  0  0  0  0  0  0
   10.1492   11.1022    3.3982 H   0  0  0  0  0  0  0  0  0  0  0  0
   10.2369    9.7340    4.5575 H   0  0  0  0  0  0  0  0  0  0  0  0
   12.4748   10.1510    3.9689 H   0  0  0  0  0  0  0  0  0  0  0  0
   12.0642   10.4412    2.2573 H   0  0  0  0  0  0  0  0  0  0  0  0
  1  2  1  0
  2  3  1  0
  2  4  1  0
  4  5  1  0
  5  6  1  0
  6  7  1  0
  7  8  1  0
  8  9  2  0
  8 10  1  0
 10 11  1  0
 11 12  1  0
 12 13  2  0
 13 14  1  0
 14 15  1  0
  7 16  1  0
 16 17  1  0
 17  4  1  0
 15 11  2  0
  1 18  1  0
  1 19  1  0
  1 20  1  0
  2 21  1  0
  3 22  1  0
  3 23  1  0
  3 24  1  0
  4 25  1  0
  5 26  1  0
  5 27  1  0
  6 28  1  0
  6 29  1  0
  7 30  1  0
 10 31  1  0
 12 32  1  0
 13 33  1  0
 14 34  1  0
 15 35  1  0
 16 36  1  0
 16 37  1  0
 17 38  1  0
 17 39  1  0
M  CHG  1   3   1
M  END
>  <EmbedRMS>  (108) 
0.3005329260886256

$$$$

     RDKit          3D

 44 45  0  0  0  0  0  0  0  0999 V2000
   13.9227    7.3285    1.0386 C   0  0  0  0  0  0  0  0  0  0  0  0
   13.7074    7.9212    2.4415 C   0  0  0  0  0  0  0  0  0  0  0  0
   14.6423    9.0270    2.6701 N   0  0  0  0  0  4  0  0  0  0  0  0
   12.2292    8.2936    2.8216 C   0  0  0  0  0  0  0  0  0  0  0  0
   11.1738    7.4161    2.1504 C   0  0  0  0  0  0  0  0  0  0  0  0
    9.7352    7.7239    2.5374 C   0  0  0  0  0  0  0  0  0  0  0  0
    9.4499    9.2039    2.6307 C   0  0  0  0  0  0  0  0  0  0  0  0
    7.9883    9.5373    2.7254 C   0  0  0  0  0  0  0  0  0  0  0  0
    7.4130    9.6894    1.6199 O   0  0  0  0  0  0  0  0  0  0  0  0
    7.2229    9.6957    3.9331 N   0  0  0  0  0  0  0  0  0  0  0  0
    5.8124   10.1082    3.8174 C   0  0  0  0  0  0  0  0  0  0  0  0
    5.1389   10.3040    5.1733 C   0  0  0  0  0  0  0  0  0  0  0  0
    5.6795   11.5105    5.8681 C   0  0  0  0  0  0  0  0  0  0  0  0
    6.7078   11.4562    6.7384 N   0  0  0  0  0  0  0  0  0  0  0  0
    6.9051   12.7417    7.0884 C   0  0  0  0  0  0  0  0  0  0  0  0
    6.0061   13.5438    6.4212 C   0  0  0  0  0  0  0  0  0  0  0  0
    5.2376   12.7635    5.6469 N   0  0  0  0  0  0  0  0  0  0  0  0
   10.4242   10.0509    3.4178 C   0  0  0  0  0  0  0  0  0  0  0  0
   11.8787    9.7843    2.9976 C   0  0  0  0  0  0  0  0  0  0  0  0
   13.3778    6.3681    0.9249 H   0  0  0  0  0  0  0  0  0  0  0  0
   13.5733    8.0452    0.2656 H   0  0  0  0  0  0  0  0  0  0  0  0
   14.9997    7.1182    0.8658 H   0  0  0  0  0  0  0  0  0  0  0  0
   14.0111    7.0971    3.1300 H   0  0  0  0  0  0  0  0  0  0  0  0
   14.4330    9.8276    2.0310 H   0  0  0  0  0  0  0  0  0  0  0  0
   15.6231    8.7091    2.4922 H   0  0  0  0  0  0  0  0  0  0  0  0
   14.5982    9.3368    3.6676 H   0  0  0  0  0  0  0  0  0  0  0  0
   12.1627    7.9503    3.8813 H   0  0  0  0  0  0  0  0  0  0  0  0
   11.3803    6.3427    2.3586 H   0  0  0  0  0  0  0  0  0  0  0  0
   11.2461    7.5645    1.0513 H   0  0  0  0  0  0  0  0  0  0  0  0
    9.5313    7.2705    3.5320 H   0  0  0  0  0  0  0  0  0  0  0  0
    9.0501    7.2411    1.8047 H   0  0  0  0  0  0  0  0  0  0  0  0
    9.7010    9.5368    1.5928 H   0  0  0  0  0  0  0  0  0  0  0  0
    7.6762    9.5426    4.8617 H   0  0  0  0  0  0  0  0  0  0  0  0
    5.7440   11.0523    3.2321 H   0  0  0  0  0  0  0  0  0  0  0  0
    5.2544    9.3226    3.2629 H   0  0  0  0  0  0  0  0  0  0  0  0
    5.2898    9.4020    5.8051 H   0  0  0  0  0  0  0  0  0  0  0  0
    4.0455   10.4344    5.0225 H   0  0  0  0  0  0  0  0  0  0  0  0
    7.6637   13.0748    7.7837 H   0  0  0  0  0  0  0  0  0  0  0  0
    5.9237   14.6205    6.4894 H   0  0  0  0  0  0  0  0  0  0  0  0
    4.4697   13.0665    5.0075 H   0  0  0  0  0  0  0  0  0  0  0  0
   10.1921   11.1308    3.2841 H   0  0  0  0  0  0  0  0  0  0  0  0
   10.3097    9.8093    4.4968 H   0  0  0  0  0  0  0  0  0  0  0  0
   12.0563   10.2955    2.0266 H   0  0  0  0  0  0  0  0  0  0  0  0
   12.5384   10.2611    3.7530 H   0  0  0  0  0  0  0  0  0  0  0  0
  1  2  1  0
  2  3  1  0
  2  4  1  0
  4  5  1  0
  5  6  1  0
  6  7  1  0
  7  8  1  0
  8  9  2  0
  8 10  1  0
 10 11  1  0
 11 12  1  0
 12 13  1  0
 13 14  2  0
 14 15  1  0
 15 16  2  0
 16 17  1  0
  7 18  1  0
 18 19  1  0
 19  4  1  0
 17 13  1  0
  1 20  1  0
  1 21  1  0
  1 22  1  0
  2 23  1  0
  3 24  1  0
  3 25  1  0
  3 26  1  0
  4 27  1  0
  5 28  1  0
  5 29  1  0
  6 30  1  0
  6 31  1  0
  7 32  1  0
 10 33  1  0
 11 34  1  0
 11 35  1  0
 12 36  1  0
 12 37  1  0
 15 38  1  0
 16 39  1  0
 17 40  1  0
 18 41  1  0
 18 42  1  0
 19 43  1  0
 19 44  1  0
M  CHG  1   3   1
M  END
>  <EmbedRMS>  (109) 
0.2541626628134513

$$$$

     RDKit          3D

 42 43  0  0  0  0  0  0  0  0999 V2000
    5.1337    8.1508    2.0250 C   0  0  0  0  0  0  0  0  0  0  0  0
    4.8481    9.1836    3.0699 C   0  0  0  0  0  0  0  0  0  0  0  0
    3.5972    9.5702    3.3847 N   0  0  0  0  0  0  0  0  0  0  0  0
    3.6940   10.4163    4.4273 C   0  0  0  0  0  0  0  0  0  0  0  0
    5.0200   10.5864    4.7890 C   0  0  0  0  0  0  0  0  0  0  0  0
    5.7612    9.8160    3.9111 C   0  0  0  0  0  0  0  0  0  0  0  0
    7.1987    9.6484    3.9458 N   0  0  0  0  0  0  0  0  0  0  0  0
    7.9778    9.5237    2.7396 C   0  0  0  0  0  0  0  0  0  0  0  0
    7.4319    9.7429    1.6311 O   0  0  0  0  0  0  0  0  0  0  0  0
    9.4420    9.1941    2.6666 C   0  0  0  0  0  0  0  0  0  0  0  0
    9.7630    7.7147    2.4364 C   0  0  0  0  0  0  0  0  0  0  0  0
   11.2625    7.3645    2.5409 C   0  0  0  0  0  0  0  0  0  0  0  0
   12.1422    8.5867    2.2327 C   0  0  0  0  0  0  0  0  0  0  0  0
   13.6535    8.3398    1.9332 C   0  0  0  0  0  0  0  0  0  0  0  0
   14.0127    7.0446    1.2248 C   0  0  0  0  0  0  0  0  0  0  0  0
   14.6167    8.7743    2.9394 N   0  0  0  0  0  4  0  0  0  0  0  0
   11.8900    9.6851    3.2857 C   0  0  0  0  0  0  0  0  0  0  0  0
   10.4060   10.0826    3.4359 C   0  0  0  0  0  0  0  0  0  0  0  0
    4.2932    7.4270    1.9793 H   0  0  0  0  0  0  0  0  0  0  0  0
    6.0538    7.5811    2.2711 H   0  0  0  0  0  0  0  0  0  0  0  0
    5.2289    8.6338    1.0309 H   0  0  0  0  0  0  0  0  0  0  0  0
    2.7121    9.2496    2.9324 H   0  0  0  0  0  0  0  0  0  0  0  0
    2.8449   10.8791    4.9127 H   0  0  0  0  0  0  0  0  0  0  0  0
    5.3986   11.1973    5.5976 H   0  0  0  0  0  0  0  0  0  0  0  0
    7.6959    9.7511    4.8581 H   0  0  0  0  0  0  0  0  0  0  0  0
    9.6850    9.5827    1.6479 H   0  0  0  0  0  0  0  0  0  0  0  0
    9.2133    7.1113    3.1912 H   0  0  0  0  0  0  0  0  0  0  0  0
    9.3797    7.3992    1.4388 H   0  0  0  0  0  0  0  0  0  0  0  0
   11.4946    7.0001    3.5658 H   0  0  0  0  0  0  0  0  0  0  0  0
   11.4710    6.5324    1.8369 H   0  0  0  0  0  0  0  0  0  0  0  0
   11.7488    8.9798    1.2659 H   0  0  0  0  0  0  0  0  0  0  0  0
   13.8431    9.0650    1.1029 H   0  0  0  0  0  0  0  0  0  0  0  0
   13.3395    6.8735    0.3573 H   0  0  0  0  0  0  0  0  0  0  0  0
   13.9233    6.1935    1.9319 H   0  0  0  0  0  0  0  0  0  0  0  0
   15.0577    7.0789    0.8479 H   0  0  0  0  0  0  0  0  0  0  0  0
   15.5919    8.5556    2.6306 H   0  0  0  0  0  0  0  0  0  0  0  0
   14.4330    8.2668    3.8347 H   0  0  0  0  0  0  0  0  0  0  0  0
   14.5653    9.8054    3.1016 H   0  0  0  0  0  0  0  0  0  0  0  0
   12.4548   10.5998    3.0034 H   0  0  0  0  0  0  0  0  0  0  0  0
   12.2738    9.3425    4.2718 H   0  0  0  0  0  0  0  0  0  0  0  0
   10.2670   11.1451    3.1301 H   0  0  0  0  0  0  0  0  0  0  0  0
   10.1383   10.0292    4.5131 H   0  0  0  0  0  0  0  0  0  0  0  0
  1  2  1  0
  2  3  1  0
  3  4  1  0
  4  5  2  0
  5  6  1  0
  6  7  1  0
  7  8  1  0
  8  9  2  0
  8 10  1  0
 10 11  1  0
 11 12  1  0
 12 13  1  0
 13 14  1  0
 14 15  1  0
 14 16  1  0
 13 17  1  0
 17 18  1  0
  6  2  2  0
 18 10  1  0
  1 19  1  0
  1 20  1  0
  1 21  1  0
  3 22  1  0
  4 23  1  0
  5 24  1  0
  7 25  1  0
 10 26  1  0
 11 27  1  0
 11 28  1  0
 12 29  1  0
 12 30  1  0
 13 31  1  0
 14 32  1  0
 15 33  1  0
 15 34  1  0
 15 35  1  0
 16 36  1  0
 16 37  1  0
 16 38  1  0
 17 39  1  0
 17 40  1  0
 18 41  1  0
 18 42  1  0
M  CHG  1  16   1
M  END
>  <EmbedRMS>  (110) 
0.24995529680257836

$$$$

     RDKit          3D

 34 34  0  0  0  0  0  0  0  0999 V2000
    5.8329   10.1084    3.8848 C   0  0  0  0  0  0  0  0  0  0  0  0
    7.2300    9.6721    3.9456 N   0  0  0  0  0  0  0  0  0  0  0  0
    7.9825    9.5176    2.7336 C   0  0  0  0  0  0  0  0  0  0  0  0
    7.4038    9.6808    1.6309 O   0  0  0  0  0  0  0  0  0  0  0  0
    9.4450    9.1949    2.6523 C   0  0  0  0  0  0  0  0  0  0  0  0
    9.7659    7.7145    2.4310 C   0  0  0  0  0  0  0  0  0  0  0  0
   11.2645    7.3643    2.5394 C   0  0  0  0  0  0  0  0  0  0  0  0
   12.1440    8.5865    2.2316 C   0  0  0  0  0  0  0  0  0  0  0  0
   13.6550    8.3396    1.9330 C   0  0  0  0  0  0  0  0  0  0  0  0
   14.0142    7.0445    1.2245 C   0  0  0  0  0  0  0  0  0  0  0  0
   14.6175    8.7737    2.9400 N   0  0  0  0  0  4  0  0  0  0  0  0
   11.8902    9.6847    3.2842 C   0  0  0  0  0  0  0  0  0  0  0  0
   10.4057   10.0818    3.4290 C   0  0  0  0  0  0  0  0  0  0  0  0
    5.7674   11.1015    3.3922 H   0  0  0  0  0  0  0  0  0  0  0  0
    5.4215   10.1915    4.9127 H   0  0  0  0  0  0  0  0  0  0  0  0
    5.2299    9.3684    3.3173 H   0  0  0  0  0  0  0  0  0  0  0  0
    7.6848    9.4991    4.8697 H   0  0  0  0  0  0  0  0  0  0  0  0
    9.6804    9.5858    1.6329 H   0  0  0  0  0  0  0  0  0  0  0  0
    9.2153    7.1145    3.1879 H   0  0  0  0  0  0  0  0  0  0  0  0
    9.3849    7.3947    1.4340 H   0  0  0  0  0  0  0  0  0  0  0  0
   11.4945    7.0012    3.5653 H   0  0  0  0  0  0  0  0  0  0  0  0
   11.4746    6.5314    1.8369 H   0  0  0  0  0  0  0  0  0  0  0  0
   11.7511    8.9795    1.2646 H   0  0  0  0  0  0  0  0  0  0  0  0
   13.8453    9.0650    1.1029 H   0  0  0  0  0  0  0  0  0  0  0  0
   15.0594    7.0787    0.8480 H   0  0  0  0  0  0  0  0  0  0  0  0
   13.3413    6.8737    0.3566 H   0  0  0  0  0  0  0  0  0  0  0  0
   13.9245    6.1932    1.9314 H   0  0  0  0  0  0  0  0  0  0  0  0
   15.5929    8.5546    2.6319 H   0  0  0  0  0  0  0  0  0  0  0  0
   14.5663    9.8048    3.1021 H   0  0  0  0  0  0  0  0  0  0  0  0
   14.4328    8.2662    3.8350 H   0  0  0  0  0  0  0  0  0  0  0  0
   12.2711    9.3420    4.2714 H   0  0  0  0  0  0  0  0  0  0  0  0
   12.4559   10.5993    3.0033 H   0  0  0  0  0  0  0  0  0  0  0  0
   10.1327   10.0263    4.5050 H   0  0  0  0  0  0  0  0  0  0  0  0
   10.2681   11.1447    3.1242 H   0  0  0  0  0  0  0  0  0  0  0  0
  1  2  1  0
  2  3  1  0
  3  4  2  0
  3  5  1  0
  5  6  1  0
  6  7  1  0
  7  8  1  0
  8  9  1  0
  9 10  1  0
  9 11  1  0
  8 12  1  0
 12 13  1  0
 13  5  1  0
  1 14  1  0
  1 15  1  0
  1 16  1  0
  2 17  1  0
  5 18  1  0
  6 19  1  0
  6 20  1  0
  7 21  1  0
  7 22  1  0
  8 23  1  0
  9 24  1  0
 10 25  1  0
 10 26  1  0
 10 27  1  0
 11 28  1  0
 11 29  1  0
 11 30  1  0
 12 31  1  0
 12 32  1  0
 13 33  1  0
 13 34  1  0
M  CHG  1  11   1
M  END
>  <EmbedRMS>  (111) 
0.29639754771625826

$$$$

     RDKit          3D

 43 43  0  0  0  0  0  0  0  0999 V2000
    5.1668   10.8957    4.9912 C   0  0  0  0  0  0  0  0  0  0  0  0
    5.8564    9.7580    4.2807 C   0  0  0  0  0  0  0  0  0  0  0  0
    4.9783    8.9456    3.3204 C   0  0  0  0  0  0  0  0  0  0  0  0
    4.7804    7.6252    3.9182 N   0  0  0  0  0  4  0  0  0  0  0  0
    7.2447   10.0138    3.9239 N   0  0  0  0  0  0  0  0  0  0  0  0
    8.0000    9.4904    2.8323 C   0  0  0  0  0  0  0  0  0  0  0  0
    7.5842    9.6383    1.6525 O   0  0  0  0  0  0  0  0  0  0  0  0
    9.4014    8.9926    3.0914 C   0  0  0  0  0  0  0  0  0  0  0  0
    9.7947    7.9198    2.0778 C   0  0  0  0  0  0  0  0  0  0  0  0
   11.1535    7.3108    2.4002 C   0  0  0  0  0  0  0  0  0  0  0  0
   12.2723    8.3197    2.7746 C   0  0  0  0  0  0  0  0  0  0  0  0
   13.5774    8.3573    1.9538 C   0  0  0  0  0  0  0  0  0  0  0  0
   13.9808    7.0995    1.1846 C   0  0  0  0  0  0  0  0  0  0  0  0
   14.7089    8.8835    2.7299 N   0  0  0  0  0  4  0  0  0  0  0  0
   11.8264    9.7140    3.3094 C   0  0  0  0  0  0  0  0  0  0  0  0
   10.3953   10.1493    2.9997 C   0  0  0  0  0  0  0  0  0  0  0  0
    4.2075   10.5564    5.4401 H   0  0  0  0  0  0  0  0  0  0  0  0
    5.8088   11.3084    5.7999 H   0  0  0  0  0  0  0  0  0  0  0  0
    4.9520   11.7071    4.2645 H   0  0  0  0  0  0  0  0  0  0  0  0
    6.0022    9.1004    5.1700 H   0  0  0  0  0  0  0  0  0  0  0  0
    5.4277    8.8350    2.3161 H   0  0  0  0  0  0  0  0  0  0  0  0
    3.9901    9.4381    3.1800 H   0  0  0  0  0  0  0  0  0  0  0  0
    4.1963    7.0514    3.2679 H   0  0  0  0  0  0  0  0  0  0  0  0
    5.6960    7.1337    4.0459 H   0  0  0  0  0  0  0  0  0  0  0  0
    4.2675    7.6990    4.8280 H   0  0  0  0  0  0  0  0  0  0  0  0
    7.8180   10.4539    4.6803 H   0  0  0  0  0  0  0  0  0  0  0  0
    9.4356    8.5554    4.1150 H   0  0  0  0  0  0  0  0  0  0  0  0
    9.0308    7.1105    2.0724 H   0  0  0  0  0  0  0  0  0  0  0  0
    9.8316    8.3538    1.0532 H   0  0  0  0  0  0  0  0  0  0  0  0
   10.9935    6.6036    3.2475 H   0  0  0  0  0  0  0  0  0  0  0  0
   11.4402    6.6723    1.5444 H   0  0  0  0  0  0  0  0  0  0  0  0
   12.6576    7.8367    3.7038 H   0  0  0  0  0  0  0  0  0  0  0  0
   13.3761    9.1020    1.1497 H   0  0  0  0  0  0  0  0  0  0  0  0
   13.2861    6.9098    0.3396 H   0  0  0  0  0  0  0  0  0  0  0  0
   14.9950    7.2152    0.7465 H   0  0  0  0  0  0  0  0  0  0  0  0
   13.9888    6.2228    1.8662 H   0  0  0  0  0  0  0  0  0  0  0  0
   14.9930    8.1889    3.4587 H   0  0  0  0  0  0  0  0  0  0  0  0
   14.4905    9.7892    3.1981 H   0  0  0  0  0  0  0  0  0  0  0  0
   15.5258    9.0535    2.0989 H   0  0  0  0  0  0  0  0  0  0  0  0
   12.4765   10.5226    2.9154 H   0  0  0  0  0  0  0  0  0  0  0  0
   11.9475    9.7370    4.4168 H   0  0  0  0  0  0  0  0  0  0  0  0
   10.3649   10.5830    1.9744 H   0  0  0  0  0  0  0  0  0  0  0  0
   10.1043   10.9570    3.7074 H   0  0  0  0  0  0  0  0  0  0  0  0
  1  2  1  0
  2  3  1  0
  3  4  1  0
  2  5  1  0
  5  6  1  0
  6  7  2  0
  6  8  1  0
  8  9  1  0
  9 10  1  0
 10 11  1  0
 11 12  1  0
 12 13  1  0
 12 14  1  0
 11 15  1  0
 15 16  1  0
 16  8  1  0
  1 17  1  0
  1 18  1  0
  1 19  1  0
  2 20  1  0
  3 21  1  0
  3 22  1  0
  4 23  1  0
  4 24  1  0
  4 25  1  0
  5 26  1  0
  8 27  1  0
  9 28  1  0
  9 29  1  0
 10 30  1  0
 10 31  1  0
 11 32  1  0
 12 33  1  0
 13 34  1  0
 13 35  1  0
 13 36  1  0
 14 37  1  0
 14 38  1  0
 14 39  1  0
 15 40  1  0
 15 41  1  0
 16 42  1  0
 16 43  1  0
M  CHG  2   4   1  14   1
M  END
>  <EmbedRMS>  (112) 
0.3005344476337905

$$$$

     RDKit          3D

 41 41  0  0  0  0  0  0  0  0999 V2000
   14.0128    7.0451    1.2246 C   0  0  0  0  0  0  0  0  0  0  0  0
   13.6534    8.3401    1.9332 C   0  0  0  0  0  0  0  0  0  0  0  0
   14.6165    8.7744    2.9395 N   0  0  0  0  0  4  0  0  0  0  0  0
   12.1420    8.5872    2.2327 C   0  0  0  0  0  0  0  0  0  0  0  0
   11.2631    7.3648    2.5405 C   0  0  0  0  0  0  0  0  0  0  0  0
    9.7641    7.7145    2.4333 C   0  0  0  0  0  0  0  0  0  0  0  0
    9.4407    9.1935    2.6636 C   0  0  0  0  0  0  0  0  0  0  0  0
    7.9759    9.5184    2.7373 C   0  0  0  0  0  0  0  0  0  0  0  0
    7.4055    9.6789    1.6302 O   0  0  0  0  0  0  0  0  0  0  0  0
    7.2040    9.6832    3.9346 N   0  0  0  0  0  0  0  0  0  0  0  0
    5.8641   10.1055    3.8043 N   0  0  0  0  0  0  0  0  0  0  0  0
    5.0841   10.3002    4.8217 C   0  0  0  0  0  0  0  0  0  0  0  0
    3.7250   10.7402    4.6402 N   0  0  0  0  0  0  0  0  0  0  0  0
    3.1736   10.9931    3.3107 C   0  0  0  0  0  0  0  0  0  0  0  0
    2.9039   10.9373    5.7626 N   0  0  0  0  0  0  0  0  0  0  0  0
   10.4042   10.0821    3.4346 C   0  0  0  0  0  0  0  0  0  0  0  0
   11.8889    9.6848    3.2863 C   0  0  0  0  0  0  0  0  0  0  0  0
   13.3395    6.8740    0.3571 H   0  0  0  0  0  0  0  0  0  0  0  0
   13.9237    6.1938    1.9316 H   0  0  0  0  0  0  0  0  0  0  0  0
   15.0578    7.0796    0.8475 H   0  0  0  0  0  0  0  0  0  0  0  0
   13.8429    9.0655    1.1030 H   0  0  0  0  0  0  0  0  0  0  0  0
   14.5651    9.8056    3.1016 H   0  0  0  0  0  0  0  0  0  0  0  0
   15.5918    8.5556    2.6309 H   0  0  0  0  0  0  0  0  0  0  0  0
   14.4325    8.2671    3.8348 H   0  0  0  0  0  0  0  0  0  0  0  0
   11.7481    8.9809    1.2663 H   0  0  0  0  0  0  0  0  0  0  0  0
   11.4729    6.5322    1.8376 H   0  0  0  0  0  0  0  0  0  0  0  0
   11.4938    7.0013    3.5661 H   0  0  0  0  0  0  0  0  0  0  0  0
    9.2137    7.1097    3.1865 H   0  0  0  0  0  0  0  0  0  0  0  0
    9.3838    7.3994    1.4344 H   0  0  0  0  0  0  0  0  0  0  0  0
    9.6779    9.5856    1.6451 H   0  0  0  0  0  0  0  0  0  0  0  0
    7.6358    9.5215    4.8725 H   0  0  0  0  0  0  0  0  0  0  0  0
    5.4574   10.1340    5.8255 H   0  0  0  0  0  0  0  0  0  0  0  0
    3.7613   11.7883    2.8055 H   0  0  0  0  0  0  0  0  0  0  0  0
    3.2128   10.0634    2.7049 H   0  0  0  0  0  0  0  0  0  0  0  0
    2.1160   11.3250    3.3845 H   0  0  0  0  0  0  0  0  0  0  0  0
    2.8597   10.0339    6.2873 H   0  0  0  0  0  0  0  0  0  0  0  0
    3.3700   11.6423    6.3784 H   0  0  0  0  0  0  0  0  0  0  0  0
   10.1334   10.0287    4.5113 H   0  0  0  0  0  0  0  0  0  0  0  0
   10.2657   11.1447    3.1286 H   0  0  0  0  0  0  0  0  0  0  0  0
   12.2714    9.3416    4.2727 H   0  0  0  0  0  0  0  0  0  0  0  0
   12.4541   10.5996    3.0053 H   0  0  0  0  0  0  0  0  0  0  0  0
  1  2  1  0
  2  3  1  0
  2  4  1  0
  4  5  1  0
  5  6  1  0
  6  7  1  0
  7  8  1  0
  8  9  2  0
  8 10  1  0
 10 11  1  0
 11 12  2  3
 12 13  1  0
 13 14  1  0
 13 15  1  0
  7 16  1  0
 16 17  1  0
 17  4  1  0
  1 18  1  0
  1 19  1  0
  1 20  1  0
  2 21  1  0
  3 22  1  0
  3 23  1  0
  3 24  1  0
  4 25  1  0
  5 26  1  0
  5 27  1  0
  6 28  1  0
  6 29  1  0
  7 30  1  0
 10 31  1  0
 12 32  1  0
 14 33  1  0
 14 34  1  0
 14 35  1  0
 15 36  1  0
 15 37  1  0
 16 38  1  0
 16 39  1  0
 17 40  1  0
 17 41  1  0
M  CHG  1   3   1
M  END
>  <EmbedRMS>  (113) 
0.2570984896337683

$$$$

     RDKit          3D

 41 41  0  0  0  0  0  0  0  0999 V2000
   13.9215    7.3282    1.0388 C   0  0  0  0  0  0  0  0  0  0  0  0
   13.7055    7.9212    2.4415 C   0  0  0  0  0  0  0  0  0  0  0  0
   14.6407    9.0268    2.6704 N   0  0  0  0  0  4  0  0  0  0  0  0
   12.2269    8.2940    2.8211 C   0  0  0  0  0  0  0  0  0  0  0  0
   11.1713    7.4172    2.1494 C   0  0  0  0  0  0  0  0  0  0  0  0
    9.7320    7.7246    2.5364 C   0  0  0  0  0  0  0  0  0  0  0  0
    9.4444    9.2045    2.6305 C   0  0  0  0  0  0  0  0  0  0  0  0
    7.9810    9.5394    2.7273 C   0  0  0  0  0  0  0  0  0  0  0  0
    7.3992    9.6649    1.6226 O   0  0  0  0  0  0  0  0  0  0  0  0
    7.2225    9.7109    3.9405 N   0  0  0  0  0  0  0  0  0  0  0  0
    5.9218   10.3514    3.9313 C   0  0  0  0  0  0  0  0  0  0  0  0
    5.0285    9.9718    4.7938 N   0  0  0  0  0  0  0  0  0  0  0  0
    5.6501   11.4569    3.0333 N   0  0  0  0  0  0  0  0  0  0  0  0
    4.2718   11.8421    2.7042 C   0  0  0  0  0  0  0  0  0  0  0  0
    6.7298   12.2244    2.5505 N   0  0  0  0  0  0  0  0  0  0  0  0
   10.4209   10.0516    3.4163 C   0  0  0  0  0  0  0  0  0  0  0  0
   11.8760    9.7845    2.9967 C   0  0  0  0  0  0  0  0  0  0  0  0
   14.9985    7.1176    0.8666 H   0  0  0  0  0  0  0  0  0  0  0  0
   13.5727    8.0449    0.2655 H   0  0  0  0  0  0  0  0  0  0  0  0
   13.3763    6.3680    0.9249 H   0  0  0  0  0  0  0  0  0  0  0  0
   14.0088    7.0971    3.1303 H   0  0  0  0  0  0  0  0  0  0  0  0
   14.4317    9.8275    2.0311 H   0  0  0  0  0  0  0  0  0  0  0  0
   15.6215    8.7088    2.4930 H   0  0  0  0  0  0  0  0  0  0  0  0
   14.5962    9.3368    3.6678 H   0  0  0  0  0  0  0  0  0  0  0  0
   12.1599    7.9506    3.8808 H   0  0  0  0  0  0  0  0  0  0  0  0
   11.3778    6.3437    2.3568 H   0  0  0  0  0  0  0  0  0  0  0  0
   11.2438    7.5665    1.0505 H   0  0  0  0  0  0  0  0  0  0  0  0
    9.5284    7.2706    3.5308 H   0  0  0  0  0  0  0  0  0  0  0  0
    9.0473    7.2414    1.8037 H   0  0  0  0  0  0  0  0  0  0  0  0
    9.6930    9.5385    1.5924 H   0  0  0  0  0  0  0  0  0  0  0  0
    7.5851    9.2919    4.8258 H   0  0  0  0  0  0  0  0  0  0  0  0
    4.0839   10.4061    4.8782 H   0  0  0  0  0  0  0  0  0  0  0  0
    3.8042   12.3495    3.5737 H   0  0  0  0  0  0  0  0  0  0  0  0
    4.2381   12.5328    1.8360 H   0  0  0  0  0  0  0  0  0  0  0  0
    3.6820   10.9400    2.4358 H   0  0  0  0  0  0  0  0  0  0  0  0
    7.1835   12.6771    3.3766 H   0  0  0  0  0  0  0  0  0  0  0  0
    6.3800   13.0001    1.9441 H   0  0  0  0  0  0  0  0  0  0  0  0
   10.1890   11.1314    3.2815 H   0  0  0  0  0  0  0  0  0  0  0  0
   10.3058    9.8112    4.4955 H   0  0  0  0  0  0  0  0  0  0  0  0
   12.0539   10.2953    2.0256 H   0  0  0  0  0  0  0  0  0  0  0  0
   12.5357   10.2615    3.7521 H   0  0  0  0  0  0  0  0  0  0  0  0
  1  2  1  0
  2  3  1  0
  2  4  1  0
  4  5  1  0
  5  6  1  0
  6  7  1  0
  7  8  1  0
  8  9  2  0
  8 10  1  0
 10 11  1  0
 11 12  2  3
 11 13  1  0
 13 14  1  0
 13 15  1  0
  7 16  1  0
 16 17  1  0
 17  4  1  0
  1 18  1  0
  1 19  1  0
  1 20  1  0
  2 21  1  0
  3 22  1  0
  3 23  1  0
  3 24  1  0
  4 25  1  0
  5 26  1  0
  5 27  1  0
  6 28  1  0
  6 29  1  0
  7 30  1  0
 10 31  1  0
 12 32  1  0
 14 33  1  0
 14 34  1  0
 14 35  1  0
 15 36  1  0
 15 37  1  0
 16 38  1  0
 16 39  1  0
 17 40  1  0
 17 41  1  0
M  CHG  1   3   1
M  END
>  <EmbedRMS>  (114) 
0.2696792242440413

$$$$

     RDKit          3D

 38 39  0  0  0  0  0  0  0  0999 V2000
   14.0493    7.2192    1.1050 C   0  0  0  0  0  0  0  0  0  0  0  0
   13.6503    7.9554    2.3992 C   0  0  0  0  0  0  0  0  0  0  0  0
   14.6295    9.0155    2.6713 N   0  0  0  0  0  4  0  0  0  0  0  0
   12.2011    8.5116    2.2738 C   0  0  0  0  0  0  0  0  0  0  0  0
   11.1815    7.3652    2.4353 C   0  0  0  0  0  0  0  0  0  0  0  0
    9.7734    7.8709    2.1558 C   0  0  0  0  0  0  0  0  0  0  0  0
    9.4111    8.9933    3.1335 C   0  0  0  0  0  0  0  0  0  0  0  0
    8.0159    9.4806    2.8711 C   0  0  0  0  0  0  0  0  0  0  0  0
    7.6311    9.6885    1.6876 O   0  0  0  0  0  0  0  0  0  0  0  0
    7.1427    9.7073    3.9842 N   0  0  0  0  0  0  0  0  0  0  0  0
    5.7820   10.1379    3.8914 C   0  0  0  0  0  0  0  0  0  0  0  0
    5.0432   10.4451    2.7639 C   0  0  0  0  0  0  0  0  0  0  0  0
    3.8100   10.8158    3.1566 N   0  0  0  0  0  0  0  0  0  0  0  0
    3.7586   10.7491    4.4788 N   0  0  0  0  0  0  0  0  0  0  0  0
    4.9430   10.3395    4.9611 C   0  0  0  0  0  0  0  0  0  0  0  0
   10.4250   10.1481    3.0664 C   0  0  0  0  0  0  0  0  0  0  0  0
   11.8596    9.6373    3.2817 C   0  0  0  0  0  0  0  0  0  0  0  0
   13.4187    6.3263    0.9276 H   0  0  0  0  0  0  0  0  0  0  0  0
   15.0969    6.8577    1.1808 H   0  0  0  0  0  0  0  0  0  0  0  0
   13.9786    7.8971    0.2276 H   0  0  0  0  0  0  0  0  0  0  0  0
   13.6920    7.2247    3.2393 H   0  0  0  0  0  0  0  0  0  0  0  0
   14.5439    9.7862    1.9688 H   0  0  0  0  0  0  0  0  0  0  0  0
   14.4971    9.3930    3.6371 H   0  0  0  0  0  0  0  0  0  0  0  0
   15.6010    8.6297    2.6304 H   0  0  0  0  0  0  0  0  0  0  0  0
   12.0890    8.9471    1.2539 H   0  0  0  0  0  0  0  0  0  0  0  0
   11.2353    6.9389    3.4621 H   0  0  0  0  0  0  0  0  0  0  0  0
   11.3835    6.5443    1.7190 H   0  0  0  0  0  0  0  0  0  0  0  0
    9.0579    7.0275    2.2749 H   0  0  0  0  0  0  0  0  0  0  0  0
    9.7122    8.2296    1.1037 H   0  0  0  0  0  0  0  0  0  0  0  0
    9.4482    8.5655    4.1610 H   0  0  0  0  0  0  0  0  0  0  0  0
    7.5203    9.5481    4.9456 H   0  0  0  0  0  0  0  0  0  0  0  0
    5.3519   10.4137    1.7304 H   0  0  0  0  0  0  0  0  0  0  0  0
    2.9144   10.9847    5.0456 H   0  0  0  0  0  0  0  0  0  0  0  0
    5.1732   10.2026    6.0097 H   0  0  0  0  0  0  0  0  0  0  0  0
   10.1863   10.8996    3.8504 H   0  0  0  0  0  0  0  0  0  0  0  0
   10.3597   10.6521    2.0762 H   0  0  0  0  0  0  0  0  0  0  0  0
   11.9747    9.2650    4.3237 H   0  0  0  0  0  0  0  0  0  0  0  0
   12.5388   10.5044    3.1422 H   0  0  0  0  0  0  0  0  0  0  0  0
  1  2  1  0
  2  3  1  0
  2  4  1  0
  4  5  1  0
  5  6  1  0
  6  7  1  0
  7  8  1  0
  8  9  2  0
  8 10  1  0
 10 11  1  0
 11 12  1  0
 12 13  2  0
 13 14  1  0
 14 15  1  0
  7 16  1  0
 16 17  1  0
 17  4  1  0
 15 11  2  0
  1 18  1  0
  1 19  1  0
  1 20  1  0
  2 21  1  0
  3 22  1  0
  3 23  1  0
  3 24  1  0
  4 25  1  0
  5 26  1  0
  5 27  1  0
  6 28  1  0
  6 29  1  0
  7 30  1  0
 10 31  1  0
 12 32  1  0
 14 33  1  0
 15 34  1  0
 16 35  1  0
 16 36  1  0
 17 37  1  0
 17 38  1  0
M  CHG  1   3   1
M  END
>  <EmbedRMS>  (115) 
0.03057603030946681

$$$$

     RDKit          3D

 41 41  0  0  0  0  0  0  0  0999 V2000
   14.0479    7.2195    1.1054 C   0  0  0  0  0  0  0  0  0  0  0  0
   13.6487    7.9559    2.3994 C   0  0  0  0  0  0  0  0  0  0  0  0
   14.6282    9.0159    2.6715 N   0  0  0  0  0  4  0  0  0  0  0  0
   12.1991    8.5125    2.2741 C   0  0  0  0  0  0  0  0  0  0  0  0
   11.1792    7.3664    2.4360 C   0  0  0  0  0  0  0  0  0  0  0  0
    9.7701    7.8723    2.1585 C   0  0  0  0  0  0  0  0  0  0  0  0
    9.4070    8.9945    3.1370 C   0  0  0  0  0  0  0  0  0  0  0  0
    8.0093    9.4798    2.8762 C   0  0  0  0  0  0  0  0  0  0  0  0
    7.6175    9.6932    1.6942 O   0  0  0  0  0  0  0  0  0  0  0  0
    7.1238    9.6899    3.9822 N   0  0  0  0  0  0  0  0  0  0  0  0
    5.7645   10.1853    3.8143 C   0  0  0  0  0  0  0  0  0  0  0  0
    5.7965   11.6683    3.5588 C   0  0  0  0  0  0  0  0  0  0  0  0
    5.6702   12.1220    2.3591 N   0  0  0  0  0  4  0  0  0  0  0  0
    6.0623   12.5758    4.6419 N   0  0  0  0  0  4  0  0  0  0  0  0
   10.4217   10.1489    3.0677 C   0  0  0  0  0  0  0  0  0  0  0  0
   11.8573    9.6383    3.2818 C   0  0  0  0  0  0  0  0  0  0  0  0
   13.4165    6.3272    0.9276 H   0  0  0  0  0  0  0  0  0  0  0  0
   15.0951    6.8573    1.1817 H   0  0  0  0  0  0  0  0  0  0  0  0
   13.9780    7.8976    0.2280 H   0  0  0  0  0  0  0  0  0  0  0  0
   13.6902    7.2253    3.2395 H   0  0  0  0  0  0  0  0  0  0  0  0
   15.5996    8.6298    2.6310 H   0  0  0  0  0  0  0  0  0  0  0  0
   14.4953    9.3938    3.6370 H   0  0  0  0  0  0  0  0  0  0  0  0
   14.5429    9.7864    1.9687 H   0  0  0  0  0  0  0  0  0  0  0  0
   12.0868    8.9476    1.2541 H   0  0  0  0  0  0  0  0  0  0  0  0
   11.2339    6.9397    3.4625 H   0  0  0  0  0  0  0  0  0  0  0  0
   11.3804    6.5458    1.7191 H   0  0  0  0  0  0  0  0  0  0  0  0
    9.7072    8.2316    1.1067 H   0  0  0  0  0  0  0  0  0  0  0  0
    9.0551    7.0285    2.2777 H   0  0  0  0  0  0  0  0  0  0  0  0
    9.4441    8.5686    4.1652 H   0  0  0  0  0  0  0  0  0  0  0  0
    7.4569    9.4886    4.9521 H   0  0  0  0  0  0  0  0  0  0  0  0
    5.2561    9.6368    2.9915 H   0  0  0  0  0  0  0  0  0  0  0  0
    5.1839    9.9920    4.7419 H   0  0  0  0  0  0  0  0  0  0  0  0
    5.7249   13.1346    2.1747 H   0  0  0  0  0  0  0  0  0  0  0  0
    5.5077   11.4885    1.5625 H   0  0  0  0  0  0  0  0  0  0  0  0
    6.9398   13.1067    4.4390 H   0  0  0  0  0  0  0  0  0  0  0  0
    6.1816   12.0565    5.5414 H   0  0  0  0  0  0  0  0  0  0  0  0
    5.2616   13.2410    4.7362 H   0  0  0  0  0  0  0  0  0  0  0  0
   10.3550   10.6521    2.0772 H   0  0  0  0  0  0  0  0  0  0  0  0
   10.1835   10.9014    3.8511 H   0  0  0  0  0  0  0  0  0  0  0  0
   11.9732    9.2664    4.3238 H   0  0  0  0  0  0  0  0  0  0  0  0
   12.5362   10.5055    3.1417 H   0  0  0  0  0  0  0  0  0  0  0  0
  1  2  1  0
  2  3  1  0
  2  4  1  0
  4  5  1  0
  5  6  1  0
  6  7  1  0
  7  8  1  0
  8  9  2  0
  8 10  1  0
 10 11  1  0
 11 12  1  0
 12 13  2  3
 12 14  1  0
  7 15  1  0
 15 16  1  0
 16  4  1  0
  1 17  1  0
  1 18  1  0
  1 19  1  0
  2 20  1  0
  3 21  1  0
  3 22  1  0
  3 23  1  0
  4 24  1  0
  5 25  1  0
  5 26  1  0
  6 27  1  0
  6 28  1  0
  7 29  1  0
 10 30  1  0
 11 31  1  0
 11 32  1  0
 13 33  1  0
 13 34  1  0
 14 35  1  0
 14 36  1  0
 14 37  1  0
 15 38  1  0
 15 39  1  0
 16 40  1  0
 16 41  1  0
M  CHG  3   3   1  13   1  14   1
M  END
>  <EmbedRMS>  (116) 
0.03078882717110932

$$$$

     RDKit          3D

 41 42  0  0  0  0  0  0  0  0999 V2000
   14.0155    7.0452    1.2243 C   0  0  0  0  0  0  0  0  0  0  0  0
   13.6577    8.3402    1.9340 C   0  0  0  0  0  0  0  0  0  0  0  0
   14.6213    8.7734    2.9399 N   0  0  0  0  0  4  0  0  0  0  0  0
   12.1479    8.5868    2.2358 C   0  0  0  0  0  0  0  0  0  0  0  0
   11.2708    7.3634    2.5450 C   0  0  0  0  0  0  0  0  0  0  0  0
    9.7738    7.7130    2.4384 C   0  0  0  0  0  0  0  0  0  0  0  0
    9.4545    9.1902    2.6817 C   0  0  0  0  0  0  0  0  0  0  0  0
    7.9930    9.5119    2.7236 C   0  0  0  0  0  0  0  0  0  0  0  0
    7.4746    9.6077    1.5899 O   0  0  0  0  0  0  0  0  0  0  0  0
    7.1920    9.7025    3.9130 N   0  0  0  0  0  0  0  0  0  0  0  0
    5.8002   10.1396    3.9098 C   0  0  0  0  0  0  0  0  0  0  0  0
    5.1136   10.2622    5.1332 C   0  0  0  0  0  0  0  0  0  0  0  0
    3.7791   10.6918    5.1678 C   0  0  0  0  0  0  0  0  0  0  0  0
    3.1050   10.9965    3.9846 C   0  0  0  0  0  0  0  0  0  0  0  0
    3.7620   10.8848    2.7663 C   0  0  0  0  0  0  0  0  0  0  0  0
    5.0915   10.4774    2.7238 C   0  0  0  0  0  0  0  0  0  0  0  0
   10.4123   10.0785    3.4530 C   0  0  0  0  0  0  0  0  0  0  0  0
   11.8967    9.6862    3.2904 C   0  0  0  0  0  0  0  0  0  0  0  0
   13.3412    6.8748    0.3575 H   0  0  0  0  0  0  0  0  0  0  0  0
   15.0600    7.0795    0.8460 H   0  0  0  0  0  0  0  0  0  0  0  0
   13.9272    6.1936    1.9310 H   0  0  0  0  0  0  0  0  0  0  0  0
   13.8472    9.0661    1.1041 H   0  0  0  0  0  0  0  0  0  0  0  0
   14.4394    8.2635    3.8342 H   0  0  0  0  0  0  0  0  0  0  0  0
   14.5690    9.8041    3.1044 H   0  0  0  0  0  0  0  0  0  0  0  0
   15.5964    8.5564    2.6293 H   0  0  0  0  0  0  0  0  0  0  0  0
   11.7549    8.9789    1.2687 H   0  0  0  0  0  0  0  0  0  0  0  0
   11.4801    6.5302    1.8427 H   0  0  0  0  0  0  0  0  0  0  0  0
   11.5022    7.0014    3.5710 H   0  0  0  0  0  0  0  0  0  0  0  0
    9.3960    7.4069    1.4357 H   0  0  0  0  0  0  0  0  0  0  0  0
    9.2216    7.1022    3.1855 H   0  0  0  0  0  0  0  0  0  0  0  0
    9.7131    9.5882    1.6698 H   0  0  0  0  0  0  0  0  0  0  0  0
    7.6559    9.5263    4.8324 H   0  0  0  0  0  0  0  0  0  0  0  0
    5.6153   10.0259    6.0630 H   0  0  0  0  0  0  0  0  0  0  0  0
    3.2672   10.7820    6.1172 H   0  0  0  0  0  0  0  0  0  0  0  0
    2.0739   11.3242    4.0170 H   0  0  0  0  0  0  0  0  0  0  0  0
    3.2415   11.1383    1.8510 H   0  0  0  0  0  0  0  0  0  0  0  0
    5.5040   10.4952    1.7386 H   0  0  0  0  0  0  0  0  0  0  0  0
   10.1475   10.0136    4.5305 H   0  0  0  0  0  0  0  0  0  0  0  0
   10.2671   11.1433    3.1573 H   0  0  0  0  0  0  0  0  0  0  0  0
   12.4562   10.6027    3.0029 H   0  0  0  0  0  0  0  0  0  0  0  0
   12.2889    9.3466    4.2742 H   0  0  0  0  0  0  0  0  0  0  0  0
  1  2  1  0
  2  3  1  0
  2  4  1  0
  4  5  1  0
  5  6  1  0
  6  7  1  0
  7  8  1  0
  8  9  2  0
  8 10  1  0
 10 11  1  0
 11 12  2  0
 12 13  1  0
 13 14  2  0
 14 15  1  0
 15 16  2  0
  7 17  1  0
 17 18  1  0
 18  4  1  0
 16 11  1  0
  1 19  1  0
  1 20  1  0
  1 21  1  0
  2 22  1  0
  3 23  1  0
  3 24  1  0
  3 25  1  0
  4 26  1  0
  5 27  1  0
  5 28  1  0
  6 29  1  0
  6 30  1  0
  7 31  1  0
 10 32  1  0
 12 33  1  0
 13 34  1  0
 14 35  1  0
 15 36  1  0
 16 37  1  0
 17 38  1  0
 17 39  1  0
 18 40  1  0
 18 41  1  0
M  CHG  1   3   1
M  END
>  <EmbedRMS>  (117) 
0.24964892458419108

$$$$

     RDKit          3D

 38 39  0  0  0  0  0  0  0  0999 V2000
   13.9842    7.0987    1.1853 C   0  0  0  0  0  0  0  0  0  0  0  0
   13.5812    8.3572    1.9537 C   0  0  0  0  0  0  0  0  0  0  0  0
   14.7119    8.8839    2.7302 N   0  0  0  0  0  4  0  0  0  0  0  0
   12.2765    8.3213    2.7737 C   0  0  0  0  0  0  0  0  0  0  0  0
   11.1597    7.3114    2.3967 C   0  0  0  0  0  0  0  0  0  0  0  0
    9.8012    7.9211    2.0835 C   0  0  0  0  0  0  0  0  0  0  0  0
    9.4166    8.9879    3.1066 C   0  0  0  0  0  0  0  0  0  0  0  0
    8.0125    9.4689    2.8599 C   0  0  0  0  0  0  0  0  0  0  0  0
    7.6232    9.6834    1.6795 O   0  0  0  0  0  0  0  0  0  0  0  0
    7.1436    9.7001    3.9777 N   0  0  0  0  0  0  0  0  0  0  0  0
    5.7812   10.1373    3.8965 C   0  0  0  0  0  0  0  0  0  0  0  0
    5.0590   10.4418    2.7529 C   0  0  0  0  0  0  0  0  0  0  0  0
    3.8212   10.8093    3.2325 C   0  0  0  0  0  0  0  0  0  0  0  0
    3.8279   10.7216    4.5742 N   0  0  0  0  0  0  0  0  0  0  0  0
    5.0150   10.3141    4.9886 N   0  0  0  0  0  0  0  0  0  0  0  0
   10.3981   10.1506    3.0073 C   0  0  0  0  0  0  0  0  0  0  0  0
   11.8327    9.7188    3.3047 C   0  0  0  0  0  0  0  0  0  0  0  0
   13.2929    6.9111    0.3372 H   0  0  0  0  0  0  0  0  0  0  0  0
   15.0005    7.2120    0.7515 H   0  0  0  0  0  0  0  0  0  0  0  0
   13.9876    6.2216    1.8665 H   0  0  0  0  0  0  0  0  0  0  0  0
   13.3808    9.1011    1.1485 H   0  0  0  0  0  0  0  0  0  0  0  0
   14.9955    8.1898    3.4595 H   0  0  0  0  0  0  0  0  0  0  0  0
   14.4928    9.7899    3.1975 H   0  0  0  0  0  0  0  0  0  0  0  0
   15.5292    9.0536    2.0996 H   0  0  0  0  0  0  0  0  0  0  0  0
   12.6593    7.8397    3.7046 H   0  0  0  0  0  0  0  0  0  0  0  0
   11.4436    6.6805    1.5344 H   0  0  0  0  0  0  0  0  0  0  0  0
   11.0047    6.5972    3.2389 H   0  0  0  0  0  0  0  0  0  0  0  0
    9.8330    8.3602    1.0608 H   0  0  0  0  0  0  0  0  0  0  0  0
    9.0379    7.1111    2.0779 H   0  0  0  0  0  0  0  0  0  0  0  0
    9.4755    8.5442    4.1262 H   0  0  0  0  0  0  0  0  0  0  0  0
    7.5254    9.5361    4.9365 H   0  0  0  0  0  0  0  0  0  0  0  0
    5.3557   10.4142    1.7158 H   0  0  0  0  0  0  0  0  0  0  0  0
    2.9703   11.1209    2.6412 H   0  0  0  0  0  0  0  0  0  0  0  0
    3.0273   10.9388    5.2077 H   0  0  0  0  0  0  0  0  0  0  0  0
   10.1052   10.9525    3.7212 H   0  0  0  0  0  0  0  0  0  0  0  0
   10.3568   10.5867    1.9833 H   0  0  0  0  0  0  0  0  0  0  0  0
   12.4776   10.5259    2.8988 H   0  0  0  0  0  0  0  0  0  0  0  0
   11.9660    9.7492    4.4105 H   0  0  0  0  0  0  0  0  0  0  0  0
  1  2  1  0
  2  3  1  0
  2  4  1  0
  4  5  1  0
  5  6  1  0
  6  7  1  0
  7  8  1  0
  8  9  2  0
  8 10  1  0
 10 11  1  0
 11 12  1  0
 12 13  2  0
 13 14  1  0
 14 15  1  0
  7 16  1  0
 16 17  1  0
 17  4  1  0
 15 11  2  0
  1 18  1  0
  1 19  1  0
  1 20  1  0
  2 21  1  0
  3 22  1  0
  3 23  1  0
  3 24  1  0
  4 25  1  0
  5 26  1  0
  5 27  1  0
  6 28  1  0
  6 29  1  0
  7 30  1  0
 10 31  1  0
 12 32  1  0
 13 33  1  0
 14 34  1  0
 16 35  1  0
 16 36  1  0
 17 37  1  0
 17 38  1  0
M  CHG  1   3   1
M  END
>  <EmbedRMS>  (118) 
0.20783527019262546

$$$$

     RDKit          3D

 41 42  0  0  0  0  0  0  0  0999 V2000
   13.9844    7.0987    1.1852 C   0  0  0  0  0  0  0  0  0  0  0  0
   13.5813    8.3571    1.9536 C   0  0  0  0  0  0  0  0  0  0  0  0
   14.7121    8.8839    2.7300 N   0  0  0  0  0  4  0  0  0  0  0  0
   12.2768    8.3212    2.7738 C   0  0  0  0  0  0  0  0  0  0  0  0
   11.1601    7.3112    2.3969 C   0  0  0  0  0  0  0  0  0  0  0  0
    9.8018    7.9209    2.0835 C   0  0  0  0  0  0  0  0  0  0  0  0
    9.4173    8.9877    3.1066 C   0  0  0  0  0  0  0  0  0  0  0  0
    8.0138    9.4689    2.8591 C   0  0  0  0  0  0  0  0  0  0  0  0
    7.6251    9.6825    1.6784 O   0  0  0  0  0  0  0  0  0  0  0  0
    7.1449    9.7019    3.9762 N   0  0  0  0  0  0  0  0  0  0  0  0
    5.7828   10.1379    3.8920 C   0  0  0  0  0  0  0  0  0  0  0  0
    5.0632   10.4442    2.7446 C   0  0  0  0  0  0  0  0  0  0  0  0
    3.8226   10.8108    3.2163 C   0  0  0  0  0  0  0  0  0  0  0  0
    3.8279   10.7100    4.5578 N   0  0  0  0  0  0  0  0  0  0  0  0
    2.7163   11.0342    5.4382 C   0  0  0  0  0  0  0  0  0  0  0  0
    5.0147   10.3126    4.9830 N   0  0  0  0  0  0  0  0  0  0  0  0
   10.3986   10.1505    3.0073 C   0  0  0  0  0  0  0  0  0  0  0  0
   11.8330    9.7187    3.3049 C   0  0  0  0  0  0  0  0  0  0  0  0
   15.0005    7.2121    0.7511 H   0  0  0  0  0  0  0  0  0  0  0  0
   13.2929    6.9109    0.3373 H   0  0  0  0  0  0  0  0  0  0  0  0
   13.9881    6.2217    1.8665 H   0  0  0  0  0  0  0  0  0  0  0  0
   13.3809    9.1011    1.1485 H   0  0  0  0  0  0  0  0  0  0  0  0
   15.5295    9.0533    2.0995 H   0  0  0  0  0  0  0  0  0  0  0  0
   14.9956    8.1899    3.4597 H   0  0  0  0  0  0  0  0  0  0  0  0
   14.4932    9.7901    3.1971 H   0  0  0  0  0  0  0  0  0  0  0  0
   12.6598    7.8396    3.7047 H   0  0  0  0  0  0  0  0  0  0  0  0
   11.0050    6.5972    3.2394 H   0  0  0  0  0  0  0  0  0  0  0  0
   11.4440    6.6800    1.5348 H   0  0  0  0  0  0  0  0  0  0  0  0
    9.0384    7.1109    2.0780 H   0  0  0  0  0  0  0  0  0  0  0  0
    9.8338    8.3598    1.0608 H   0  0  0  0  0  0  0  0  0  0  0  0
    9.4757    8.5442    4.1263 H   0  0  0  0  0  0  0  0  0  0  0  0
    7.5257    9.5388    4.9355 H   0  0  0  0  0  0  0  0  0  0  0  0
    5.3655   10.4225    1.7090 H   0  0  0  0  0  0  0  0  0  0  0  0
    2.9765   11.1294    2.6210 H   0  0  0  0  0  0  0  0  0  0  0  0
    2.6385   12.1361    5.5478 H   0  0  0  0  0  0  0  0  0  0  0  0
    1.7686   10.6392    5.0146 H   0  0  0  0  0  0  0  0  0  0  0  0
    2.8761   10.5796    6.4389 H   0  0  0  0  0  0  0  0  0  0  0  0
   10.3575   10.5865    1.9833 H   0  0  0  0  0  0  0  0  0  0  0  0
   10.1057   10.9524    3.7212 H   0  0  0  0  0  0  0  0  0  0  0  0
   11.9663    9.7490    4.4107 H   0  0  0  0  0  0  0  0  0  0  0  0
   12.4781   10.5258    2.8991 H   0  0  0  0  0  0  0  0  0  0  0  0
  1  2  1  0
  2  3  1  0
  2  4  1  0
  4  5  1  0
  5  6  1  0
  6  7  1  0
  7  8  1  0
  8  9  2  0
  8 10  1  0
 10 11  1  0
 11 12  1  0
 12 13  2  0
 13 14  1  0
 14 15  1  0
 14 16  1  0
  7 17  1  0
 17 18  1  0
 18  4  1  0
 16 11  2  0
  1 19  1  0
  1 20  1  0
  1 21  1  0
  2 22  1  0
  3 23  1  0
  3 24  1  0
  3 25  1  0
  4 26  1  0
  5 27  1  0
  5 28  1  0
  6 29  1  0
  6 30  1  0
  7 31  1  0
 10 32  1  0
 12 33  1  0
 13 34  1  0
 15 35  1  0
 15 36  1  0
 15 37  1  0
 17 38  1  0
 17 39  1  0
 18 40  1  0
 18 41  1  0
M  CHG  1   3   1
M  END
>  <EmbedRMS>  (119) 
0.20203882927987918

$$$$

     RDKit          3D

 35 35  0  0  0  0  0  0  0  0999 V2000
   14.0267    7.2303    1.0860 C   0  0  0  0  0  0  0  0  0  0  0  0
   13.6450    7.9628    2.3852 C   0  0  0  0  0  0  0  0  0  0  0  0
   14.6267    9.0244    2.6471 N   0  0  0  0  0  4  0  0  0  0  0  0
   12.1810    8.5090    2.2964 C   0  0  0  0  0  0  0  0  0  0  0  0
   11.1966    7.3508    2.5414 C   0  0  0  0  0  0  0  0  0  0  0  0
    9.7335    7.7452    2.3741 C   0  0  0  0  0  0  0  0  0  0  0  0
    9.4486    9.2155    2.6433 C   0  0  0  0  0  0  0  0  0  0  0  0
    7.9843    9.5408    2.7233 C   0  0  0  0  0  0  0  0  0  0  0  0
    7.4256    9.6685    1.6091 O   0  0  0  0  0  0  0  0  0  0  0  0
    7.2150    9.6934    3.9363 N   0  0  0  0  0  0  0  0  0  0  0  0
    5.8436   10.1683    3.9569 C   0  0  0  0  0  0  0  0  0  0  0  0
    5.0293   10.2607    5.3731 S   0  0  0  0  0  0  0  0  0  0  0  0
    4.9635   10.6901    2.4720 S   0  0  0  0  0  0  0  0  0  0  0  0
    5.7160   12.6782    2.5989 S   0  0  0  0  0  0  0  0  0  0  0  0
   10.4179   10.0747    3.4321 C   0  0  0  0  0  0  0  0  0  0  0  0
   11.8958    9.6384    3.3193 C   0  0  0  0  0  0  0  0  0  0  0  0
   13.9567    7.9172    0.2156 H   0  0  0  0  0  0  0  0  0  0  0  0
   15.0698    6.8546    1.1520 H   0  0  0  0  0  0  0  0  0  0  0  0
   13.3790    6.3504    0.9045 H   0  0  0  0  0  0  0  0  0  0  0  0
   13.7134    7.2279    3.2201 H   0  0  0  0  0  0  0  0  0  0  0  0
   15.5983    8.6417    2.5845 H   0  0  0  0  0  0  0  0  0  0  0  0
   14.5257    9.7977    1.9497 H   0  0  0  0  0  0  0  0  0  0  0  0
   14.5145    9.3994    3.6161 H   0  0  0  0  0  0  0  0  0  0  0  0
   12.0104    8.9228    1.2768 H   0  0  0  0  0  0  0  0  0  0  0  0
   11.3422    6.9712    3.5780 H   0  0  0  0  0  0  0  0  0  0  0  0
   11.3965    6.5005    1.8585 H   0  0  0  0  0  0  0  0  0  0  0  0
    9.3953    7.4760    1.3464 H   0  0  0  0  0  0  0  0  0  0  0  0
    9.1267    7.1291    3.0740 H   0  0  0  0  0  0  0  0  0  0  0  0
    9.7114    9.6242    1.6351 H   0  0  0  0  0  0  0  0  0  0  0  0
    7.6817    9.4695    4.8436 H   0  0  0  0  0  0  0  0  0  0  0  0
    4.6288   13.0944    3.3895 H   0  0  0  0  0  0  0  0  0  0  0  0
   10.3151   11.1420    3.1280 H   0  0  0  0  0  0  0  0  0  0  0  0
   10.1215   10.0287    4.5025 H   0  0  0  0  0  0  0  0  0  0  0  0
   12.2361    9.3026    4.3244 H   0  0  0  0  0  0  0  0  0  0  0  0
   12.4943   10.5359    3.0522 H   0  0  0  0  0  0  0  0  0  0  0  0
  1  2  1  0
  2  3  1  0
  2  4  1  0
  4  5  1  0
  5  6  1  0
  6  7  1  0
  7  8  1  0
  8  9  2  0
  8 10  1  0
 10 11  1  0
 11 12  2  0
 11 13  1  0
 13 14  1  0
  7 15  1  0
 15 16  1  0
 16  4  1  0
  1 17  1  0
  1 18  1  0
  1 19  1  0
  2 20  1  0
  3 21  1  0
  3 22  1  0
  3 23  1  0
  4 24  1  0
  5 25  1  0
  5 26  1  0
  6 27  1  0
  6 28  1  0
  7 29  1  0
 10 30  1  0
 14 31  1  0
 15 32  1  0
 15 33  1  0
 16 34  1  0
 16 35  1  0
M  CHG  1   3   1
M  END
>  <EmbedRMS>  (120) 
0.18600888397479576

$$$$

     RDKit          3D

 47 47  0  0  0  0  0  0  0  0999 V2000
    5.1047    7.8810    5.6812 C   0  0  0  0  0  0  0  0  0  0  0  0
    4.6304    7.9103    4.2600 C   0  0  0  0  0  0  0  0  0  0  0  0
    4.9029    8.9099    3.3923 C   0  0  0  0  0  0  0  0  0  0  0  0
    5.7359   10.1027    3.8260 C   0  0  0  0  0  0  0  0  0  0  0  0
    7.1361    9.7260    3.9838 N   0  0  0  0  0  0  0  0  0  0  0  0
    8.0073    9.4824    2.8742 C   0  0  0  0  0  0  0  0  0  0  0  0
    7.6108    9.6863    1.6926 O   0  0  0  0  0  0  0  0  0  0  0  0
    9.4049    8.9955    3.1351 C   0  0  0  0  0  0  0  0  0  0  0  0
    9.7687    7.8725    2.1577 C   0  0  0  0  0  0  0  0  0  0  0  0
   11.1779    7.3665    2.4361 C   0  0  0  0  0  0  0  0  0  0  0  0
   12.1983    8.5123    2.2741 C   0  0  0  0  0  0  0  0  0  0  0  0
   13.6480    7.9558    2.3995 C   0  0  0  0  0  0  0  0  0  0  0  0
   14.0473    7.2194    1.1054 C   0  0  0  0  0  0  0  0  0  0  0  0
   14.6275    9.0157    2.6716 N   0  0  0  0  0  4  0  0  0  0  0  0
   11.8564    9.6378    3.2819 C   0  0  0  0  0  0  0  0  0  0  0  0
   10.4211   10.1490    3.0672 C   0  0  0  0  0  0  0  0  0  0  0  0
    4.3801    8.8557    1.9938 C   0  0  0  0  0  0  0  0  0  0  0  0
    3.6085    7.6654    1.4884 C   0  0  0  0  0  0  0  0  0  0  0  0
    4.5738    9.8630    1.1999 N   0  0  0  0  0  0  0  0  0  0  0  0
    6.2122    7.8436    5.7191 H   0  0  0  0  0  0  0  0  0  0  0  0
    4.7307    8.7661    6.2363 H   0  0  0  0  0  0  0  0  0  0  0  0
    4.7149    6.9708    6.1834 H   0  0  0  0  0  0  0  0  0  0  0  0
    4.0275    7.0657    3.9564 H   0  0  0  0  0  0  0  0  0  0  0  0
    5.6631   10.9528    3.1163 H   0  0  0  0  0  0  0  0  0  0  0  0
    5.3487   10.4962    4.7898 H   0  0  0  0  0  0  0  0  0  0  0  0
    7.5301    9.6942    4.9512 H   0  0  0  0  0  0  0  0  0  0  0  0
    9.4385    8.5691    4.1634 H   0  0  0  0  0  0  0  0  0  0  0  0
    9.0531    7.0291    2.2772 H   0  0  0  0  0  0  0  0  0  0  0  0
    9.7061    8.2313    1.1058 H   0  0  0  0  0  0  0  0  0  0  0  0
   11.2320    6.9402    3.4628 H   0  0  0  0  0  0  0  0  0  0  0  0
   11.3793    6.5456    1.7197 H   0  0  0  0  0  0  0  0  0  0  0  0
   12.0860    8.9475    1.2542 H   0  0  0  0  0  0  0  0  0  0  0  0
   13.6894    7.2251    3.2396 H   0  0  0  0  0  0  0  0  0  0  0  0
   13.9778    7.8976    0.2282 H   0  0  0  0  0  0  0  0  0  0  0  0
   13.4155    6.3274    0.9274 H   0  0  0  0  0  0  0  0  0  0  0  0
   15.0944    6.8568    1.1819 H   0  0  0  0  0  0  0  0  0  0  0  0
   15.5990    8.6296    2.6311 H   0  0  0  0  0  0  0  0  0  0  0  0
   14.4947    9.3935    3.6372 H   0  0  0  0  0  0  0  0  0  0  0  0
   14.5422    9.7863    1.9689 H   0  0  0  0  0  0  0  0  0  0  0  0
   11.9717    9.2655    4.3239 H   0  0  0  0  0  0  0  0  0  0  0  0
   12.5357   10.5049    3.1425 H   0  0  0  0  0  0  0  0  0  0  0  0
   10.3553   10.6527    2.0770 H   0  0  0  0  0  0  0  0  0  0  0  0
   10.1832   10.9012    3.8509 H   0  0  0  0  0  0  0  0  0  0  0  0
    3.3606    7.7659    0.4104 H   0  0  0  0  0  0  0  0  0  0  0  0
    4.2147    6.7431    1.6095 H   0  0  0  0  0  0  0  0  0  0  0  0
    2.6570    7.5671    2.0517 H   0  0  0  0  0  0  0  0  0  0  0  0
    4.2238    9.8839    0.2159 H   0  0  0  0  0  0  0  0  0  0  0  0
  1  2  1  0
  2  3  2  3
  3  4  1  0
  4  5  1  0
  5  6  1  0
  6  7  2  0
  6  8  1  0
  8  9  1  0
  9 10  1  0
 10 11  1  0
 11 12  1  0
 12 13  1  0
 12 14  1  0
 11 15  1  0
 15 16  1  0
  3 17  1  0
 17 18  1  0
 17 19  2  3
 16  8  1  0
  1 20  1  0
  1 21  1  0
  1 22  1  0
  2 23  1  0
  4 24  1  0
  4 25  1  0
  5 26  1  0
  8 27  1  0
  9 28  1  0
  9 29  1  0
 10 30  1  0
 10 31  1  0
 11 32  1  0
 12 33  1  0
 13 34  1  0
 13 35  1  0
 13 36  1  0
 14 37  1  0
 14 38  1  0
 14 39  1  0
 15 40  1  0
 15 41  1  0
 16 42  1  0
 16 43  1  0
 18 44  1  0
 18 45  1  0
 18 46  1  0
 19 47  1  0
M  CHG  1  14   1
M  END
>  <EmbedRMS>  (121) 
0.029553590920788075

$$$$

     RDKit          3D

 41 42  0  0  0  0  0  0  0  0999 V2000
   14.0109    7.0504    1.2530 C   0  0  0  0  0  0  0  0  0  0  0  0
   13.6001    8.3242    1.9897 C   0  0  0  0  0  0  0  0  0  0  0  0
   14.7019    8.8917    2.7696 N   0  0  0  0  0  4  0  0  0  0  0  0
   12.2605    8.3272    2.7670 C   0  0  0  0  0  0  0  0  0  0  0  0
   11.1785    7.4395    2.1347 C   0  0  0  0  0  0  0  0  0  0  0  0
    9.7431    7.7265    2.5438 C   0  0  0  0  0  0  0  0  0  0  0  0
    9.4480    9.2022    2.6348 C   0  0  0  0  0  0  0  0  0  0  0  0
    7.9855    9.5269    2.7212 C   0  0  0  0  0  0  0  0  0  0  0  0
    7.4160    9.6964    1.6166 O   0  0  0  0  0  0  0  0  0  0  0  0
    7.2200    9.6619    3.9307 N   0  0  0  0  0  0  0  0  0  0  0  0
    5.8087   10.0702    3.8756 C   0  0  0  0  0  0  0  0  0  0  0  0
    4.9486    8.9371    3.3964 C   0  0  0  0  0  0  0  0  0  0  0  0
    4.4548    8.7452    2.1230 C   0  0  0  0  0  0  0  0  0  0  0  0
    3.7772    7.5798    2.0873 N   0  0  0  0  0  0  0  0  0  0  0  0
    3.8798    7.0921    3.3428 C   0  0  0  0  0  0  0  0  0  0  0  0
    4.5889    7.8937    4.1582 N   0  0  0  0  0  0  0  0  0  0  0  0
   10.3837   10.0201    3.4813 C   0  0  0  0  0  0  0  0  0  0  0  0
   11.8482    9.7807    3.1209 C   0  0  0  0  0  0  0  0  0  0  0  0
   13.2670    6.7643    0.4814 H   0  0  0  0  0  0  0  0  0  0  0  0
   14.9826    7.1928    0.7336 H   0  0  0  0  0  0  0  0  0  0  0  0
   14.1165    6.2176    1.9796 H   0  0  0  0  0  0  0  0  0  0  0  0
   13.4361    9.0283    1.1408 H   0  0  0  0  0  0  0  0  0  0  0  0
   15.5914    8.8672    2.2198 H   0  0  0  0  0  0  0  0  0  0  0  0
   14.5195    9.8922    3.0077 H   0  0  0  0  0  0  0  0  0  0  0  0
   14.8374    8.3415    3.6486 H   0  0  0  0  0  0  0  0  0  0  0  0
   12.4676    7.8407    3.7469 H   0  0  0  0  0  0  0  0  0  0  0  0
   11.4048    6.3669    2.3242 H   0  0  0  0  0  0  0  0  0  0  0  0
   11.2125    7.5910    1.0336 H   0  0  0  0  0  0  0  0  0  0  0  0
    9.0527    7.2359    1.8211 H   0  0  0  0  0  0  0  0  0  0  0  0
    9.5596    7.2719    3.5418 H   0  0  0  0  0  0  0  0  0  0  0  0
    9.7204    9.5601    1.6109 H   0  0  0  0  0  0  0  0  0  0  0  0
    7.6822    9.5153    4.8558 H   0  0  0  0  0  0  0  0  0  0  0  0
    5.6911   10.9573    3.2159 H   0  0  0  0  0  0  0  0  0  0  0  0
    5.4737   10.3634    4.8934 H   0  0  0  0  0  0  0  0  0  0  0  0
    4.5840    9.4038    1.2744 H   0  0  0  0  0  0  0  0  0  0  0  0
    3.4435    6.1529    3.6564 H   0  0  0  0  0  0  0  0  0  0  0  0
    4.8181    7.7294    5.1636 H   0  0  0  0  0  0  0  0  0  0  0  0
   10.2295    9.7357    4.5450 H   0  0  0  0  0  0  0  0  0  0  0  0
   10.1466   11.1032    3.3848 H   0  0  0  0  0  0  0  0  0  0  0  0
   12.4688   10.1523    3.9652 H   0  0  0  0  0  0  0  0  0  0  0  0
   12.0645   10.4404    2.2517 H   0  0  0  0  0  0  0  0  0  0  0  0
  1  2  1  0
  2  3  1  0
  2  4  1  0
  4  5  1  0
  5  6  1  0
  6  7  1  0
  7  8  1  0
  8  9  2  0
  8 10  1  0
 10 11  1  0
 11 12  1  0
 12 13  2  0
 13 14  1  0
 14 15  2  0
 15 16  1  0
  7 17  1  0
 17 18  1  0
 18  4  1  0
 16 12  1  0
  1 19  1  0
  1 20  1  0
  1 21  1  0
  2 22  1  0
  3 23  1  0
  3 24  1  0
  3 25  1  0
  4 26  1  0
  5 27  1  0
  5 28  1  0
  6 29  1  0
  6 30  1  0
  7 31  1  0
 10 32  1  0
 11 33  1  0
 11 34  1  0
 13 35  1  0
 15 36  1  0
 16 37  1  0
 17 38  1  0
 17 39  1  0
 18 40  1  0
 18 41  1  0
M  CHG  1   3   1
M  END
>  <EmbedRMS>  (122) 
0.29359866989900446

$$$$

     RDKit          3D

 38 38  0  0  0  0  0  0  0  0999 V2000
   14.0278    7.2301    1.0860 C   0  0  0  0  0  0  0  0  0  0  0  0
   13.6450    7.9625    2.3849 C   0  0  0  0  0  0  0  0  0  0  0  0
   14.6261    9.0244    2.6476 N   0  0  0  0  0  4  0  0  0  0  0  0
   12.1809    8.5082    2.2945 C   0  0  0  0  0  0  0  0  0  0  0  0
   11.1969    7.3498    2.5393 C   0  0  0  0  0  0  0  0  0  0  0  0
    9.7336    7.7424    2.3683 C   0  0  0  0  0  0  0  0  0  0  0  0
    9.4466    9.2130    2.6282 C   0  0  0  0  0  0  0  0  0  0  0  0
    7.9828    9.5319    2.7246 C   0  0  0  0  0  0  0  0  0  0  0  0
    7.3913    9.6623    1.6258 O   0  0  0  0  0  0  0  0  0  0  0  0
    7.2450    9.7061    3.9487 N   0  0  0  0  0  0  0  0  0  0  0  0
    5.9459   10.3385    4.0016 C   0  0  0  0  0  0  0  0  0  0  0  0
    5.7123   11.3855    3.2155 N   0  0  0  0  0  0  0  0  0  0  0  0
    6.7637   12.2386    2.6978 N   0  0  0  0  0  0  0  0  0  0  0  0
    6.4331   13.3530    1.9193 N   0  0  0  0  0  0  0  0  0  0  0  0
   10.4148   10.0737    3.4204 C   0  0  0  0  0  0  0  0  0  0  0  0
   11.8933    9.6372    3.3163 C   0  0  0  0  0  0  0  0  0  0  0  0
   15.0711    6.8548    1.1528 H   0  0  0  0  0  0  0  0  0  0  0  0
   13.3807    6.3499    0.9040 H   0  0  0  0  0  0  0  0  0  0  0  0
   13.9583    7.9169    0.2155 H   0  0  0  0  0  0  0  0  0  0  0  0
   13.7129    7.2277    3.2199 H   0  0  0  0  0  0  0  0  0  0  0  0
   14.5259    9.7974    1.9497 H   0  0  0  0  0  0  0  0  0  0  0  0
   14.5124    9.3997    3.6162 H   0  0  0  0  0  0  0  0  0  0  0  0
   15.5979    8.6418    2.5864 H   0  0  0  0  0  0  0  0  0  0  0  0
   12.0108    8.9215    1.2747 H   0  0  0  0  0  0  0  0  0  0  0  0
   11.3989    6.4984    1.8584 H   0  0  0  0  0  0  0  0  0  0  0  0
   11.3407    6.9718    3.5768 H   0  0  0  0  0  0  0  0  0  0  0  0
    9.1268    7.1289    3.0705 H   0  0  0  0  0  0  0  0  0  0  0  0
    9.3969    7.4677    1.3416 H   0  0  0  0  0  0  0  0  0  0  0  0
    9.6972    9.6217    1.6175 H   0  0  0  0  0  0  0  0  0  0  0  0
    7.6388    9.3132    4.8318 H   0  0  0  0  0  0  0  0  0  0  0  0
    5.3275   10.9362    3.3710 H   0  0  0  0  0  0  0  0  0  0  0  0
    7.7339   12.1666    3.0819 H   0  0  0  0  0  0  0  0  0  0  0  0
    7.1816   13.4583    1.1974 H   0  0  0  0  0  0  0  0  0  0  0  0
    6.4888   14.1895    2.5431 H   0  0  0  0  0  0  0  0  0  0  0  0
   10.3143   11.1398    3.1116 H   0  0  0  0  0  0  0  0  0  0  0  0
   10.1130   10.0318    4.4895 H   0  0  0  0  0  0  0  0  0  0  0  0
   12.2283    9.3007    4.3230 H   0  0  0  0  0  0  0  0  0  0  0  0
   12.4935   10.5344    3.0522 H   0  0  0  0  0  0  0  0  0  0  0  0
  1  2  1  0
  2  3  1  0
  2  4  1  0
  4  5  1  0
  5  6  1  0
  6  7  1  0
  7  8  1  0
  8  9  2  0
  8 10  1  0
 10 11  1  0
 11 12  2  3
 12 13  1  0
 13 14  1  0
  7 15  1  0
 15 16  1  0
 16  4  1  0
  1 17  1  0
  1 18  1  0
  1 19  1  0
  2 20  1  0
  3 21  1  0
  3 22  1  0
  3 23  1  0
  4 24  1  0
  5 25  1  0
  5 26  1  0
  6 27  1  0
  6 28  1  0
  7 29  1  0
 10 30  1  0
 11 31  1  0
 13 32  1  0
 14 33  1  0
 14 34  1  0
 15 35  1  0
 15 36  1  0
 16 37  1  0
 16 38  1  0
M  CHG  1   3   1
M  END
>  <EmbedRMS>  (123) 
0.19412633373752486

$$$$

     RDKit          3D

 42 42  0  0  0  0  0  0  0  0999 V2000
    6.6746   12.3418    2.6353 C   0  0  0  0  0  0  0  0  0  0  0  0
    5.6893   11.5726    3.0926 C   0  0  0  0  0  0  0  0  0  0  0  0
    5.9240   10.3627    3.9333 C   0  0  0  0  0  0  0  0  0  0  0  0
    4.9321    9.8637    4.6966 C   0  0  0  0  0  0  0  0  0  0  0  0
    3.5456   10.4507    4.7871 C   0  0  0  0  0  0  0  0  0  0  0  0
    2.5932   10.0607    3.3282 Cl  0  0  0  0  0  0  0  0  0  0  0  0
    7.2235    9.7114    3.9465 N   0  0  0  0  0  0  0  0  0  0  0  0
    7.9798    9.5289    2.7314 C   0  0  0  0  0  0  0  0  0  0  0  0
    7.3975    9.6569    1.6268 O   0  0  0  0  0  0  0  0  0  0  0  0
    9.4439    9.2001    2.6325 C   0  0  0  0  0  0  0  0  0  0  0  0
    9.7338    7.7213    2.5374 C   0  0  0  0  0  0  0  0  0  0  0  0
   11.1726    7.4164    2.1489 C   0  0  0  0  0  0  0  0  0  0  0  0
   12.2274    8.2936    2.8211 C   0  0  0  0  0  0  0  0  0  0  0  0
   13.7060    7.9214    2.4415 C   0  0  0  0  0  0  0  0  0  0  0  0
   13.9222    7.3285    1.0388 C   0  0  0  0  0  0  0  0  0  0  0  0
   14.6407    9.0273    2.6704 N   0  0  0  0  0  4  0  0  0  0  0  0
   11.8754    9.7839    2.9965 C   0  0  0  0  0  0  0  0  0  0  0  0
   10.4201   10.0498    3.4166 C   0  0  0  0  0  0  0  0  0  0  0  0
    6.4441   13.2039    2.0227 H   0  0  0  0  0  0  0  0  0  0  0  0
    7.7089   12.1634    2.8952 H   0  0  0  0  0  0  0  0  0  0  0  0
    4.6817   11.8634    2.8297 H   0  0  0  0  0  0  0  0  0  0  0  0
    5.1410    8.9976    5.3135 H   0  0  0  0  0  0  0  0  0  0  0  0
    3.0232   10.0068    5.6602 H   0  0  0  0  0  0  0  0  0  0  0  0
    3.5886   11.5494    4.9424 H   0  0  0  0  0  0  0  0  0  0  0  0
    7.5863    9.2912    4.8317 H   0  0  0  0  0  0  0  0  0  0  0  0
    9.6902    9.5350    1.5942 H   0  0  0  0  0  0  0  0  0  0  0  0
    9.0492    7.2371    1.8050 H   0  0  0  0  0  0  0  0  0  0  0  0
    9.5319    7.2664    3.5318 H   0  0  0  0  0  0  0  0  0  0  0  0
   11.3806    6.3429    2.3550 H   0  0  0  0  0  0  0  0  0  0  0  0
   11.2443    7.5671    1.0501 H   0  0  0  0  0  0  0  0  0  0  0  0
   12.1604    7.9501    3.8807 H   0  0  0  0  0  0  0  0  0  0  0  0
   14.0096    7.0974    3.1303 H   0  0  0  0  0  0  0  0  0  0  0  0
   13.3776    6.3679    0.9249 H   0  0  0  0  0  0  0  0  0  0  0  0
   13.5729    8.0450    0.2654 H   0  0  0  0  0  0  0  0  0  0  0  0
   14.9993    7.1184    0.8665 H   0  0  0  0  0  0  0  0  0  0  0  0
   15.6216    8.7097    2.4931 H   0  0  0  0  0  0  0  0  0  0  0  0
   14.4314    9.8279    2.0312 H   0  0  0  0  0  0  0  0  0  0  0  0
   14.5960    9.3373    3.6678 H   0  0  0  0  0  0  0  0  0  0  0  0
   12.0525   10.2946    2.0252 H   0  0  0  0  0  0  0  0  0  0  0  0
   12.5349   10.2615    3.7515 H   0  0  0  0  0  0  0  0  0  0  0  0
   10.1873   11.1291    3.2805 H   0  0  0  0  0  0  0  0  0  0  0  0
   10.3059    9.8108    4.4961 H   0  0  0  0  0  0  0  0  0  0  0  0
  1  2  2  3
  2  3  1  0
  3  4  2  3
  4  5  1  0
  5  6  1  0
  3  7  1  0
  7  8  1  0
  8  9  2  0
  8 10  1  0
 10 11  1  0
 11 12  1  0
 12 13  1  0
 13 14  1  0
 14 15  1  0
 14 16  1  0
 13 17  1  0
 17 18  1  0
 18 10  1  0
  1 19  1  0
  1 20  1  0
  2 21  1  0
  4 22  1  0
  5 23  1  0
  5 24  1  0
  7 25  1  0
 10 26  1  0
 11 27  1  0
 11 28  1  0
 12 29  1  0
 12 30  1  0
 13 31  1  0
 14 32  1  0
 15 33  1  0
 15 34  1  0
 15 35  1  0
 16 36  1  0
 16 37  1  0
 16 38  1  0
 17 39  1  0
 17 40  1  0
 18 41  1  0
 18 42  1  0
M  CHG  1  16   1
M  END
>  <EmbedRMS>  (124) 
0.26173100746407224

$$$$

     RDKit          3D

 39 39  0  0  0  0  0  0  0  0999 V2000
   13.9836    7.0977    1.1855 C   0  0  0  0  0  0  0  0  0  0  0  0
   13.5804    8.3563    1.9534 C   0  0  0  0  0  0  0  0  0  0  0  0
   14.7107    8.8831    2.7305 N   0  0  0  0  0  4  0  0  0  0  0  0
   12.2747    8.3209    2.7724 C   0  0  0  0  0  0  0  0  0  0  0  0
   11.1563    7.3133    2.3935 C   0  0  0  0  0  0  0  0  0  0  0  0
    9.7968    7.9247    2.0829 C   0  0  0  0  0  0  0  0  0  0  0  0
    9.4128    8.9902    3.1075 C   0  0  0  0  0  0  0  0  0  0  0  0
    8.0069    9.4756    2.8657 C   0  0  0  0  0  0  0  0  0  0  0  0
    7.6013    9.6868    1.6881 O   0  0  0  0  0  0  0  0  0  0  0  0
    7.1415    9.7152    3.9842 N   0  0  0  0  0  0  0  0  0  0  0  0
    5.8048   10.2100    3.8502 C   0  0  0  0  0  0  0  0  0  0  0  0
    5.4932   11.3776    3.2688 C   0  0  0  0  0  0  0  0  0  0  0  0
    6.4537   12.3353    2.7976 N   0  0  0  0  0  0  0  0  0  0  0  0
    7.7636   12.4037    3.2989 N   0  0  0  0  0  0  0  0  0  0  0  0
   10.3973   10.1512    3.0106 C   0  0  0  0  0  0  0  0  0  0  0  0
   11.8326    9.7184    3.3035 C   0  0  0  0  0  0  0  0  0  0  0  0
   13.2928    6.9100    0.3371 H   0  0  0  0  0  0  0  0  0  0  0  0
   13.9862    6.2208    1.8669 H   0  0  0  0  0  0  0  0  0  0  0  0
   15.0002    7.2105    0.7523 H   0  0  0  0  0  0  0  0  0  0  0  0
   13.3809    9.1000    1.1479 H   0  0  0  0  0  0  0  0  0  0  0  0
   14.4919    9.7898    3.1965 H   0  0  0  0  0  0  0  0  0  0  0  0
   14.9930    8.1896    3.4610 H   0  0  0  0  0  0  0  0  0  0  0  0
   15.5289    9.0515    2.1006 H   0  0  0  0  0  0  0  0  0  0  0  0
   12.6561    7.8379    3.7032 H   0  0  0  0  0  0  0  0  0  0  0  0
   11.0016    6.5966    3.2337 H   0  0  0  0  0  0  0  0  0  0  0  0
   11.4393    6.6852    1.5289 H   0  0  0  0  0  0  0  0  0  0  0  0
    9.0330    7.1152    2.0768 H   0  0  0  0  0  0  0  0  0  0  0  0
    9.8270    8.3658    1.0611 H   0  0  0  0  0  0  0  0  0  0  0  0
    9.4725    8.5458    4.1266 H   0  0  0  0  0  0  0  0  0  0  0  0
    7.4058    9.3124    4.9108 H   0  0  0  0  0  0  0  0  0  0  0  0
    5.0003    9.6190    4.2700 H   0  0  0  0  0  0  0  0  0  0  0  0
    4.4437   11.6224    3.1616 H   0  0  0  0  0  0  0  0  0  0  0  0
    6.1148   13.0849    2.1524 H   0  0  0  0  0  0  0  0  0  0  0  0
    7.6956   12.6577    4.3106 H   0  0  0  0  0  0  0  0  0  0  0  0
    8.2473   13.1982    2.8217 H   0  0  0  0  0  0  0  0  0  0  0  0
   10.1102   10.9486    3.7310 H   0  0  0  0  0  0  0  0  0  0  0  0
   10.3527   10.5935    1.9895 H   0  0  0  0  0  0  0  0  0  0  0  0
   12.4764   10.5249    2.8948 H   0  0  0  0  0  0  0  0  0  0  0  0
   11.9701    9.7497    4.4088 H   0  0  0  0  0  0  0  0  0  0  0  0
  1  2  1  0
  2  3  1  0
  2  4  1  0
  4  5  1  0
  5  6  1  0
  6  7  1  0
  7  8  1  0
  8  9  2  0
  8 10  1  0
 10 11  1  0
 11 12  2  3
 12 13  1  0
 13 14  1  0
  7 15  1  0
 15 16  1  0
 16  4  1  0
  1 17  1  0
  1 18  1  0
  1 19  1  0
  2 20  1  0
  3 21  1  0
  3 22  1  0
  3 23  1  0
  4 24  1  0
  5 25  1  0
  5 26  1  0
  6 27  1  0
  6 28  1  0
  7 29  1  0
 10 30  1  0
 11 31  1  0
 12 32  1  0
 13 33  1  0
 14 34  1  0
 14 35  1  0
 15 36  1  0
 15 37  1  0
 16 38  1  0
 16 39  1  0
M  CHG  1   3   1
M  END
>  <EmbedRMS>  (125) 
0.2141533042732473

$$$$

     RDKit          3D

 41 42  0  0  0  0  0  0  0  0999 V2000
   14.0109    7.0504    1.2530 C   0  0  0  0  0  0  0  0  0  0  0  0
   13.6001    8.3242    1.9897 C   0  0  0  0  0  0  0  0  0  0  0  0
   14.7019    8.8917    2.7696 N   0  0  0  0  0  4  0  0  0  0  0  0
   12.2605    8.3272    2.7670 C   0  0  0  0  0  0  0  0  0  0  0  0
   11.1785    7.4395    2.1347 C   0  0  0  0  0  0  0  0  0  0  0  0
    9.7431    7.7265    2.5438 C   0  0  0  0  0  0  0  0  0  0  0  0
    9.4480    9.2022    2.6348 C   0  0  0  0  0  0  0  0  0  0  0  0
    7.9855    9.5269    2.7212 C   0  0  0  0  0  0  0  0  0  0  0  0
    7.4160    9.6964    1.6166 O   0  0  0  0  0  0  0  0  0  0  0  0
    7.2200    9.6619    3.9307 N   0  0  0  0  0  0  0  0  0  0  0  0
    5.8087   10.0702    3.8756 C   0  0  0  0  0  0  0  0  0  0  0  0
    4.9486    8.9371    3.3964 C   0  0  0  0  0  0  0  0  0  0  0  0
    4.4548    8.7452    2.1230 C   0  0  0  0  0  0  0  0  0  0  0  0
    3.7772    7.5798    2.0873 N   0  0  0  0  0  0  0  0  0  0  0  0
    3.8798    7.0921    3.3428 C   0  0  0  0  0  0  0  0  0  0  0  0
    4.5889    7.8937    4.1582 N   0  0  0  0  0  0  0  0  0  0  0  0
   10.3837   10.0201    3.4813 C   0  0  0  0  0  0  0  0  0  0  0  0
   11.8482    9.7807    3.1209 C   0  0  0  0  0  0  0  0  0  0  0  0
   13.2670    6.7643    0.4814 H   0  0  0  0  0  0  0  0  0  0  0  0
   14.9826    7.1928    0.7336 H   0  0  0  0  0  0  0  0  0  0  0  0
   14.1165    6.2176    1.9796 H   0  0  0  0  0  0  0  0  0  0  0  0
   13.4361    9.0283    1.1408 H   0  0  0  0  0  0  0  0  0  0  0  0
   15.5914    8.8672    2.2198 H   0  0  0  0  0  0  0  0  0  0  0  0
   14.5195    9.8922    3.0077 H   0  0  0  0  0  0  0  0  0  0  0  0
   14.8374    8.3415    3.6486 H   0  0  0  0  0  0  0  0  0  0  0  0
   12.4676    7.8407    3.7469 H   0  0  0  0  0  0  0  0  0  0  0  0
   11.4048    6.3669    2.3242 H   0  0  0  0  0  0  0  0  0  0  0  0
   11.2125    7.5910    1.0336 H   0  0  0  0  0  0  0  0  0  0  0  0
    9.0527    7.2359    1.8211 H   0  0  0  0  0  0  0  0  0  0  0  0
    9.5596    7.2719    3.5418 H   0  0  0  0  0  0  0  0  0  0  0  0
    9.7204    9.5601    1.6109 H   0  0  0  0  0  0  0  0  0  0  0  0
    7.6822    9.5153    4.8558 H   0  0  0  0  0  0  0  0  0  0  0  0
    5.6911   10.9573    3.2159 H   0  0  0  0  0  0  0  0  0  0  0  0
    5.4737   10.3634    4.8934 H   0  0  0  0  0  0  0  0  0  0  0  0
    4.5840    9.4038    1.2744 H   0  0  0  0  0  0  0  0  0  0  0  0
    3.4435    6.1529    3.6564 H   0  0  0  0  0  0  0  0  0  0  0  0
    4.8181    7.7294    5.1636 H   0  0  0  0  0  0  0  0  0  0  0  0
   10.2295    9.7357    4.5450 H   0  0  0  0  0  0  0  0  0  0  0  0
   10.1466   11.1032    3.3848 H   0  0  0  0  0  0  0  0  0  0  0  0
   12.4688   10.1523    3.9652 H   0  0  0  0  0  0  0  0  0  0  0  0
   12.0645   10.4404    2.2517 H   0  0  0  0  0  0  0  0  0  0  0  0
  1  2  1  0
  2  3  1  0
  2  4  1  0
  4  5  1  0
  5  6  1  0
  6  7  1  0
  7  8  1  0
  8  9  2  0
  8 10  1  0
 10 11  1  0
 11 12  1  0
 12 13  2  0
 13 14  1  0
 14 15  2  0
 15 16  1  0
  7 17  1  0
 17 18  1  0
 18  4  1  0
 16 12  1  0
  1 19  1  0
  1 20  1  0
  1 21  1  0
  2 22  1  0
  3 23  1  0
  3 24  1  0
  3 25  1  0
  4 26  1  0
  5 27  1  0
  5 28  1  0
  6 29  1  0
  6 30  1  0
  7 31  1  0
 10 32  1  0
 11 33  1  0
 11 34  1  0
 13 35  1  0
 15 36  1  0
 16 37  1  0
 17 38  1  0
 17 39  1  0
 18 40  1  0
 18 41  1  0
M  CHG  1   3   1
M  END
>  <EmbedRMS>  (126) 
0.29359866989900446

$$$$

     RDKit          3D

 42 42  0  0  0  0  0  0  0  0999 V2000
    8.6750    8.1658    7.0703 C   0  0  0  0  0  0  0  0  0  0  0  0
    8.3763    8.4580    5.8022 C   0  0  0  0  0  0  0  0  0  0  0  0
    7.3143    9.3915    5.3537 C   0  0  0  0  0  0  0  0  0  0  0  0
    6.4078    9.8578    6.2465 C   0  0  0  0  0  0  0  0  0  0  0  0
    5.2565   10.7471    5.8877 C   0  0  0  0  0  0  0  0  0  0  0  0
    7.1493    9.7152    3.9495 N   0  0  0  0  0  0  0  0  0  0  0  0
    7.9765    9.4983    2.7821 C   0  0  0  0  0  0  0  0  0  0  0  0
    7.4301    9.6608    1.6607 O   0  0  0  0  0  0  0  0  0  0  0  0
    9.4445    9.1811    2.6937 C   0  0  0  0  0  0  0  0  0  0  0  0
    9.7537    7.7156    2.4382 C   0  0  0  0  0  0  0  0  0  0  0  0
   11.2038    7.4507    2.0892 C   0  0  0  0  0  0  0  0  0  0  0  0
   12.2683    8.3270    2.7571 C   0  0  0  0  0  0  0  0  0  0  0  0
   13.6145    8.3244    1.9914 C   0  0  0  0  0  0  0  0  0  0  0  0
   14.0289    7.0506    1.2546 C   0  0  0  0  0  0  0  0  0  0  0  0
   14.7105    8.8911    2.7788 N   0  0  0  0  0  4  0  0  0  0  0  0
   11.8580    9.7797    3.1035 C   0  0  0  0  0  0  0  0  0  0  0  0
   10.4067   10.0105    3.5026 C   0  0  0  0  0  0  0  0  0  0  0  0
    9.4522    7.4407    7.2763 H   0  0  0  0  0  0  0  0  0  0  0  0
    8.2207    8.6429    7.9236 H   0  0  0  0  0  0  0  0  0  0  0  0
    8.9290    7.9270    5.0689 H   0  0  0  0  0  0  0  0  0  0  0  0
    6.4522    9.5905    7.2899 H   0  0  0  0  0  0  0  0  0  0  0  0
    5.6232   11.6730    5.3961 H   0  0  0  0  0  0  0  0  0  0  0  0
    4.7085   11.0385    6.8086 H   0  0  0  0  0  0  0  0  0  0  0  0
    4.5465   10.2109    5.2233 H   0  0  0  0  0  0  0  0  0  0  0  0
    6.2337   10.1339    3.6758 H   0  0  0  0  0  0  0  0  0  0  0  0
    9.6986    9.5966    1.6856 H   0  0  0  0  0  0  0  0  0  0  0  0
    9.1148    7.3426    1.6051 H   0  0  0  0  0  0  0  0  0  0  0  0
    9.4972    7.0769    3.2974 H   0  0  0  0  0  0  0  0  0  0  0  0
   11.2718    7.6249    0.9927 H   0  0  0  0  0  0  0  0  0  0  0  0
   11.4331    6.3748    2.2587 H   0  0  0  0  0  0  0  0  0  0  0  0
   12.4573    7.8339    3.7373 H   0  0  0  0  0  0  0  0  0  0  0  0
   13.4588    9.0294    1.1415 H   0  0  0  0  0  0  0  0  0  0  0  0
   14.1162    6.2135    1.9787 H   0  0  0  0  0  0  0  0  0  0  0  0
   13.3003    6.7723    0.4659 H   0  0  0  0  0  0  0  0  0  0  0  0
   15.0110    7.1880    0.7539 H   0  0  0  0  0  0  0  0  0  0  0  0
   14.5373    9.8979    2.9966 H   0  0  0  0  0  0  0  0  0  0  0  0
   15.6086    8.8475    2.2446 H   0  0  0  0  0  0  0  0  0  0  0  0
   14.8256    8.3542    3.6688 H   0  0  0  0  0  0  0  0  0  0  0  0
   12.4979   10.1655    3.9267 H   0  0  0  0  0  0  0  0  0  0  0  0
   12.0458   10.4293    2.2200 H   0  0  0  0  0  0  0  0  0  0  0  0
   10.1603   11.0919    3.4053 H   0  0  0  0  0  0  0  0  0  0  0  0
   10.3056    9.7529    4.5738 H   0  0  0  0  0  0  0  0  0  0  0  0
  1  2  2  3
  2  3  1  0
  3  4  2  3
  4  5  1  0
  3  6  1  0
  6  7  1  0
  7  8  2  0
  7  9  1  0
  9 10  1  0
 10 11  1  0
 11 12  1  0
 12 13  1  0
 13 14  1  0
 13 15  1  0
 12 16  1  0
 16 17  1  0
 17  9  1  0
  1 18  1  0
  1 19  1  0
  2 20  1  0
  4 21  1  0
  5 22  1  0
  5 23  1  0
  5 24  1  0
  6 25  1  0
  9 26  1  0
 10 27  1  0
 10 28  1  0
 11 29  1  0
 11 30  1  0
 12 31  1  0
 13 32  1  0
 14 33  1  0
 14 34  1  0
 14 35  1  0
 15 36  1  0
 15 37  1  0
 15 38  1  0
 16 39  1  0
 16 40  1  0
 17 41  1  0
 17 42  1  0
M  CHG  1  15   1
M  END
>  <EmbedRMS>  (127) 
0.29216731409503444

$$$$

     RDKit          3D

 41 42  0  0  0  0  0  0  0  0999 V2000
   14.0155    7.0452    1.2243 C   0  0  0  0  0  0  0  0  0  0  0  0
   13.6577    8.3402    1.9340 C   0  0  0  0  0  0  0  0  0  0  0  0
   14.6213    8.7734    2.9399 N   0  0  0  0  0  4  0  0  0  0  0  0
   12.1479    8.5868    2.2358 C   0  0  0  0  0  0  0  0  0  0  0  0
   11.2708    7.3634    2.5450 C   0  0  0  0  0  0  0  0  0  0  0  0
    9.7738    7.7130    2.4384 C   0  0  0  0  0  0  0  0  0  0  0  0
    9.4545    9.1902    2.6817 C   0  0  0  0  0  0  0  0  0  0  0  0
    7.9930    9.5119    2.7236 C   0  0  0  0  0  0  0  0  0  0  0  0
    7.4746    9.6077    1.5899 O   0  0  0  0  0  0  0  0  0  0  0  0
    7.1920    9.7025    3.9130 N   0  0  0  0  0  0  0  0  0  0  0  0
    5.8002   10.1396    3.9098 C   0  0  0  0  0  0  0  0  0  0  0  0
    5.1136   10.2622    5.1332 C   0  0  0  0  0  0  0  0  0  0  0  0
    3.7791   10.6918    5.1678 C   0  0  0  0  0  0  0  0  0  0  0  0
    3.1050   10.9965    3.9846 C   0  0  0  0  0  0  0  0  0  0  0  0
    3.7620   10.8848    2.7663 C   0  0  0  0  0  0  0  0  0  0  0  0
    5.0915   10.4774    2.7238 C   0  0  0  0  0  0  0  0  0  0  0  0
   10.4123   10.0785    3.4530 C   0  0  0  0  0  0  0  0  0  0  0  0
   11.8967    9.6862    3.2904 C   0  0  0  0  0  0  0  0  0  0  0  0
   13.3412    6.8748    0.3575 H   0  0  0  0  0  0  0  0  0  0  0  0
   15.0600    7.0795    0.8460 H   0  0  0  0  0  0  0  0  0  0  0  0
   13.9272    6.1936    1.9310 H   0  0  0  0  0  0  0  0  0  0  0  0
   13.8472    9.0661    1.1041 H   0  0  0  0  0  0  0  0  0  0  0  0
   14.4394    8.2635    3.8342 H   0  0  0  0  0  0  0  0  0  0  0  0
   14.5690    9.8041    3.1044 H   0  0  0  0  0  0  0  0  0  0  0  0
   15.5964    8.5564    2.6293 H   0  0  0  0  0  0  0  0  0  0  0  0
   11.7549    8.9789    1.2687 H   0  0  0  0  0  0  0  0  0  0  0  0
   11.4801    6.5302    1.8427 H   0  0  0  0  0  0  0  0  0  0  0  0
   11.5022    7.0014    3.5710 H   0  0  0  0  0  0  0  0  0  0  0  0
    9.3960    7.4069    1.4357 H   0  0  0  0  0  0  0  0  0  0  0  0
    9.2216    7.1022    3.1855 H   0  0  0  0  0  0  0  0  0  0  0  0
    9.7131    9.5882    1.6698 H   0  0  0  0  0  0  0  0  0  0  0  0
    7.6559    9.5263    4.8324 H   0  0  0  0  0  0  0  0  0  0  0  0
    5.6153   10.0259    6.0630 H   0  0  0  0  0  0  0  0  0  0  0  0
    3.2672   10.7820    6.1172 H   0  0  0  0  0  0  0  0  0  0  0  0
    2.0739   11.3242    4.0170 H   0  0  0  0  0  0  0  0  0  0  0  0
    3.2415   11.1383    1.8510 H   0  0  0  0  0  0  0  0  0  0  0  0
    5.5040   10.4952    1.7386 H   0  0  0  0  0  0  0  0  0  0  0  0
   10.1475   10.0136    4.5305 H   0  0  0  0  0  0  0  0  0  0  0  0
   10.2671   11.1433    3.1573 H   0  0  0  0  0  0  0  0  0  0  0  0
   12.4562   10.6027    3.0029 H   0  0  0  0  0  0  0  0  0  0  0  0
   12.2889    9.3466    4.2742 H   0  0  0  0  0  0  0  0  0  0  0  0
  1  2  1  0
  2  3  1  0
  2  4  1  0
  4  5  1  0
  5  6  1  0
  6  7  1  0
  7  8  1  0
  8  9  2  0
  8 10  1  0
 10 11  1  0
 11 12  2  0
 12 13  1  0
 13 14  2  0
 14 15  1  0
 15 16  2  0
  7 17  1  0
 17 18  1  0
 18  4  1  0
 16 11  1  0
  1 19  1  0
  1 20  1  0
  1 21  1  0
  2 22  1  0
  3 23  1  0
  3 24  1  0
  3 25  1  0
  4 26  1  0
  5 27  1  0
  5 28  1  0
  6 29  1  0
  6 30  1  0
  7 31  1  0
 10 32  1  0
 12 33  1  0
 13 34  1  0
 14 35  1  0
 15 36  1  0
 16 37  1  0
 17 38  1  0
 17 39  1  0
 18 40  1  0
 18 41  1  0
M  CHG  1   3   1
M  END
>  <EmbedRMS>  (128) 
0.24964892458419108

$$$$

     RDKit          3D

 41 42  0  0  0  0  0  0  0  0999 V2000
   14.0155    7.0452    1.2243 C   0  0  0  0  0  0  0  0  0  0  0  0
   13.6577    8.3402    1.9340 C   0  0  0  0  0  0  0  0  0  0  0  0
   14.6213    8.7734    2.9399 N   0  0  0  0  0  4  0  0  0  0  0  0
   12.1479    8.5868    2.2358 C   0  0  0  0  0  0  0  0  0  0  0  0
   11.2708    7.3634    2.5450 C   0  0  0  0  0  0  0  0  0  0  0  0
    9.7738    7.7130    2.4384 C   0  0  0  0  0  0  0  0  0  0  0  0
    9.4545    9.1902    2.6817 C   0  0  0  0  0  0  0  0  0  0  0  0
    7.9930    9.5119    2.7236 C   0  0  0  0  0  0  0  0  0  0  0  0
    7.4746    9.6077    1.5899 O   0  0  0  0  0  0  0  0  0  0  0  0
    7.1920    9.7025    3.9130 N   0  0  0  0  0  0  0  0  0  0  0  0
    5.8002   10.1396    3.9098 C   0  0  0  0  0  0  0  0  0  0  0  0
    5.1136   10.2622    5.1332 C   0  0  0  0  0  0  0  0  0  0  0  0
    3.7791   10.6918    5.1678 C   0  0  0  0  0  0  0  0  0  0  0  0
    3.1050   10.9965    3.9846 C   0  0  0  0  0  0  0  0  0  0  0  0
    3.7620   10.8848    2.7663 C   0  0  0  0  0  0  0  0  0  0  0  0
    5.0915   10.4774    2.7238 C   0  0  0  0  0  0  0  0  0  0  0  0
   10.4123   10.0785    3.4530 C   0  0  0  0  0  0  0  0  0  0  0  0
   11.8967    9.6862    3.2904 C   0  0  0  0  0  0  0  0  0  0  0  0
   13.3412    6.8748    0.3575 H   0  0  0  0  0  0  0  0  0  0  0  0
   15.0600    7.0795    0.8460 H   0  0  0  0  0  0  0  0  0  0  0  0
   13.9272    6.1936    1.9310 H   0  0  0  0  0  0  0  0  0  0  0  0
   13.8472    9.0661    1.1041 H   0  0  0  0  0  0  0  0  0  0  0  0
   14.4394    8.2635    3.8342 H   0  0  0  0  0  0  0  0  0  0  0  0
   14.5690    9.8041    3.1044 H   0  0  0  0  0  0  0  0  0  0  0  0
   15.5964    8.5564    2.6293 H   0  0  0  0  0  0  0  0  0  0  0  0
   11.7549    8.9789    1.2687 H   0  0  0  0  0  0  0  0  0  0  0  0
   11.4801    6.5302    1.8427 H   0  0  0  0  0  0  0  0  0  0  0  0
   11.5022    7.0014    3.5710 H   0  0  0  0  0  0  0  0  0  0  0  0
    9.3960    7.4069    1.4357 H   0  0  0  0  0  0  0  0  0  0  0  0
    9.2216    7.1022    3.1855 H   0  0  0  0  0  0  0  0  0  0  0  0
    9.7131    9.5882    1.6698 H   0  0  0  0  0  0  0  0  0  0  0  0
    7.6559    9.5263    4.8324 H   0  0  0  0  0  0  0  0  0  0  0  0
    5.6153   10.0259    6.0630 H   0  0  0  0  0  0  0  0  0  0  0  0
    3.2672   10.7820    6.1172 H   0  0  0  0  0  0  0  0  0  0  0  0
    2.0739   11.3242    4.0170 H   0  0  0  0  0  0  0  0  0  0  0  0
    3.2415   11.1383    1.8510 H   0  0  0  0  0  0  0  0  0  0  0  0
    5.5040   10.4952    1.7386 H   0  0  0  0  0  0  0  0  0  0  0  0
   10.1475   10.0136    4.5305 H   0  0  0  0  0  0  0  0  0  0  0  0
   10.2671   11.1433    3.1573 H   0  0  0  0  0  0  0  0  0  0  0  0
   12.4562   10.6027    3.0029 H   0  0  0  0  0  0  0  0  0  0  0  0
   12.2889    9.3466    4.2742 H   0  0  0  0  0  0  0  0  0  0  0  0
  1  2  1  0
  2  3  1  0
  2  4  1  0
  4  5  1  0
  5  6  1  0
  6  7  1  0
  7  8  1  0
  8  9  2  0
  8 10  1  0
 10 11  1  0
 11 12  2  0
 12 13  1  0
 13 14  2  0
 14 15  1  0
 15 16  2  0
  7 17  1  0
 17 18  1  0
 18  4  1  0
 16 11  1  0
  1 19  1  0
  1 20  1  0
  1 21  1  0
  2 22  1  0
  3 23  1  0
  3 24  1  0
  3 25  1  0
  4 26  1  0
  5 27  1  0
  5 28  1  0
  6 29  1  0
  6 30  1  0
  7 31  1  0
 10 32  1  0
 12 33  1  0
 13 34  1  0
 14 35  1  0
 15 36  1  0
 16 37  1  0
 17 38  1  0
 17 39  1  0
 18 40  1  0
 18 41  1  0
M  CHG  1   3   1
M  END
>  <EmbedRMS>  (129) 
0.24964892458419108

$$$$

     RDKit          3D

 40 40  0  0  0  0  0  0  0  0999 V2000
    5.5407   11.6180    3.6554 C   0  0  0  0  0  0  0  0  0  0  0  0
    5.8058   10.1638    3.3935 C   0  0  0  0  0  0  0  0  0  0  0  0
    4.7538    9.0949    3.4999 C   0  0  0  0  0  0  0  0  0  0  0  0
    7.1646    9.7213    3.7622 N   0  0  0  0  0  0  0  0  0  0  0  0
    8.0477    9.5200    2.6445 C   0  0  0  0  0  0  0  0  0  0  0  0
    7.5830    9.6174    1.4822 O   0  0  0  0  0  0  0  0  0  0  0  0
    9.4927    9.1844    2.6542 C   0  0  0  0  0  0  0  0  0  0  0  0
    9.7616    7.7064    2.5582 C   0  0  0  0  0  0  0  0  0  0  0  0
   11.1938    7.4035    2.1625 C   0  0  0  0  0  0  0  0  0  0  0  0
   12.2467    8.2884    2.8294 C   0  0  0  0  0  0  0  0  0  0  0  0
   13.7211    7.9200    2.4417 C   0  0  0  0  0  0  0  0  0  0  0  0
   13.9297    7.3296    1.0369 C   0  0  0  0  0  0  0  0  0  0  0  0
   14.6532    9.0282    2.6670 N   0  0  0  0  0  4  0  0  0  0  0  0
   11.8971    9.7807    3.0224 C   0  0  0  0  0  0  0  0  0  0  0  0
   10.4425   10.0439    3.4437 C   0  0  0  0  0  0  0  0  0  0  0  0
    5.5188   11.7897    4.7518 H   0  0  0  0  0  0  0  0  0  0  0  0
    4.5582   11.9308    3.2364 H   0  0  0  0  0  0  0  0  0  0  0  0
    6.3437   12.2510    3.2170 H   0  0  0  0  0  0  0  0  0  0  0  0
    5.7140   10.2669    2.2952 H   0  0  0  0  0  0  0  0  0  0  0  0
    5.0730    8.1743    2.9631 H   0  0  0  0  0  0  0  0  0  0  0  0
    4.6011    8.8424    4.5699 H   0  0  0  0  0  0  0  0  0  0  0  0
    3.7828    9.4433    3.0829 H   0  0  0  0  0  0  0  0  0  0  0  0
    7.4775    9.6222    4.7533 H   0  0  0  0  0  0  0  0  0  0  0  0
    9.8037    9.5074    1.6267 H   0  0  0  0  0  0  0  0  0  0  0  0
    9.0743    7.2236    1.8269 H   0  0  0  0  0  0  0  0  0  0  0  0
    9.5619    7.2532    3.5538 H   0  0  0  0  0  0  0  0  0  0  0  0
   11.2595    7.5502    1.0627 H   0  0  0  0  0  0  0  0  0  0  0  0
   11.4058    6.3313    2.3716 H   0  0  0  0  0  0  0  0  0  0  0  0
   12.1870    7.9396    3.8879 H   0  0  0  0  0  0  0  0  0  0  0  0
   14.0315    7.0958    3.1273 H   0  0  0  0  0  0  0  0  0  0  0  0
   13.5712    8.0448    0.2667 H   0  0  0  0  0  0  0  0  0  0  0  0
   15.0067    7.1259    0.8564 H   0  0  0  0  0  0  0  0  0  0  0  0
   13.3906    6.3656    0.9259 H   0  0  0  0  0  0  0  0  0  0  0  0
   15.6338    8.7137    2.4825 H   0  0  0  0  0  0  0  0  0  0  0  0
   14.6153    9.3357    3.6654 H   0  0  0  0  0  0  0  0  0  0  0  0
   14.4385    9.8295    2.0304 H   0  0  0  0  0  0  0  0  0  0  0  0
   12.5558   10.2477    3.7848 H   0  0  0  0  0  0  0  0  0  0  0  0
   12.0785   10.3039    2.0584 H   0  0  0  0  0  0  0  0  0  0  0  0
   10.2028   11.1216    3.3039 H   0  0  0  0  0  0  0  0  0  0  0  0
   10.3242    9.8024    4.5222 H   0  0  0  0  0  0  0  0  0  0  0  0
  1  2  1  0
  2  3  1  0
  2  4  1  0
  4  5  1  0
  5  6  2  0
  5  7  1  0
  7  8  1  0
  8  9  1  0
  9 10  1  0
 10 11  1  0
 11 12  1  0
 11 13  1  0
 10 14  1  0
 14 15  1  0
 15  7  1  0
  1 16  1  0
  1 17  1  0
  1 18  1  0
  2 19  1  0
  3 20  1  0
  3 21  1  0
  3 22  1  0
  4 23  1  0
  7 24  1  0
  8 25  1  0
  8 26  1  0
  9 27  1  0
  9 28  1  0
 10 29  1  0
 11 30  1  0
 12 31  1  0
 12 32  1  0
 12 33  1  0
 13 34  1  0
 13 35  1  0
 13 36  1  0
 14 37  1  0
 14 38  1  0
 15 39  1  0
 15 40  1  0
M  CHG  1  13   1
M  END
>  <EmbedRMS>  (130) 
0.35838126622633487

$$$$

     RDKit          3D

 48 48  0  0  0  0  0  0  0  0999 V2000
    4.2734    7.7287    1.2684 C   0  0  0  0  0  0  0  0  0  0  0  0
    4.4326    8.8614    1.9602 C   0  0  0  0  0  0  0  0  0  0  0  0
    4.2795   10.1319    1.1713 C   0  0  0  0  0  0  0  0  0  0  0  0
    4.9218    8.9138    3.3805 C   0  0  0  0  0  0  0  0  0  0  0  0
    4.6391    7.9869    4.3249 C   0  0  0  0  0  0  0  0  0  0  0  0
    3.7447    6.7954    4.1641 C   0  0  0  0  0  0  0  0  0  0  0  0
    5.7558   10.0968    3.8283 C   0  0  0  0  0  0  0  0  0  0  0  0
    7.1465    9.6957    3.9946 N   0  0  0  0  0  0  0  0  0  0  0  0
    8.0144    9.4644    2.8810 C   0  0  0  0  0  0  0  0  0  0  0  0
    7.6114    9.6853    1.7036 O   0  0  0  0  0  0  0  0  0  0  0  0
    9.4225    8.9838    3.1214 C   0  0  0  0  0  0  0  0  0  0  0  0
    9.7835    7.9352    2.0758 C   0  0  0  0  0  0  0  0  0  0  0  0
   11.1471    7.3156    2.3191 C   0  0  0  0  0  0  0  0  0  0  0  0
   12.2329    8.2988    2.7955 C   0  0  0  0  0  0  0  0  0  0  0  0
   13.7102    7.9150    2.4296 C   0  0  0  0  0  0  0  0  0  0  0  0
   13.9327    7.3323    1.0258 C   0  0  0  0  0  0  0  0  0  0  0  0
   14.6484    9.0166    2.6728 N   0  0  0  0  0  4  0  0  0  0  0  0
   11.8857    9.7890    2.9955 C   0  0  0  0  0  0  0  0  0  0  0  0
   10.3937   10.1680    3.0620 C   0  0  0  0  0  0  0  0  0  0  0  0
    4.5134    6.7524    1.6574 H   0  0  0  0  0  0  0  0  0  0  0  0
    4.5134    6.7524    1.6574 H   0  0  0  0  0  0  0  0  0  0  0  0
    3.8149   10.9198    1.8008 H   0  0  0  0  0  0  0  0  0  0  0  0
    5.2671   10.4786    0.8043 H   0  0  0  0  0  0  0  0  0  0  0  0
    3.6130    9.9853    0.2927 H   0  0  0  0  0  0  0  0  0  0  0  0
    5.0395    8.1286    5.3234 H   0  0  0  0  0  0  0  0  0  0  0  0
    3.3608    6.4988    5.1627 H   0  0  0  0  0  0  0  0  0  0  0  0
    2.8644    7.0323    3.5305 H   0  0  0  0  0  0  0  0  0  0  0  0
    4.3164    5.9300    3.7717 H   0  0  0  0  0  0  0  0  0  0  0  0
    5.7096   10.9608    3.1372 H   0  0  0  0  0  0  0  0  0  0  0  0
    5.3664   10.4739    4.8000 H   0  0  0  0  0  0  0  0  0  0  0  0
    7.5174    9.5798    4.9648 H   0  0  0  0  0  0  0  0  0  0  0  0
    9.4851    8.5135    4.1284 H   0  0  0  0  0  0  0  0  0  0  0  0
    9.7845    8.4036    1.0650 H   0  0  0  0  0  0  0  0  0  0  0  0
    9.0188    7.1261    2.0695 H   0  0  0  0  0  0  0  0  0  0  0  0
   11.0340    6.4795    3.0482 H   0  0  0  0  0  0  0  0  0  0  0  0
   11.4300    6.8362    1.3636 H   0  0  0  0  0  0  0  0  0  0  0  0
   12.2361    8.0286    3.8799 H   0  0  0  0  0  0  0  0  0  0  0  0
   14.0074    7.0852    3.1156 H   0  0  0  0  0  0  0  0  0  0  0  0
   15.0171    7.2738    0.7923 H   0  0  0  0  0  0  0  0  0  0  0  0
   13.5361    6.2978    0.9561 H   0  0  0  0  0  0  0  0  0  0  0  0
   13.4428    7.9753    0.2641 H   0  0  0  0  0  0  0  0  0  0  0  0
   15.6316    8.6701    2.5840 H   0  0  0  0  0  0  0  0  0  0  0  0
   14.5091    9.7864    1.9794 H   0  0  0  0  0  0  0  0  0  0  0  0
   14.5403    9.3812    3.6465 H   0  0  0  0  0  0  0  0  0  0  0  0
   12.3912   10.1915    3.9032 H   0  0  0  0  0  0  0  0  0  0  0  0
   12.3152   10.3476    2.1368 H   0  0  0  0  0  0  0  0  0  0  0  0
   10.2194   10.8170    3.9489 H   0  0  0  0  0  0  0  0  0  0  0  0
   10.1525   10.7873    2.1676 H   0  0  0  0  0  0  0  0  0  0  0  0
  1  2  2  3
  2  3  1  0
  2  4  1  0
  4  5  2  3
  5  6  1  0
  4  7  1  0
  7  8  1  0
  8  9  1  0
  9 10  2  0
  9 11  1  0
 11 12  1  0
 12 13  1  0
 13 14  1  0
 14 15  1  0
 15 16  1  0
 15 17  1  0
 14 18  1  0
 18 19  1  0
 19 11  1  0
  1 20  1  0
  1 21  1  0
  3 22  1  0
  3 23  1  0
  3 24  1  0
  5 25  1  0
  6 26  1  0
  6 27  1  0
  6 28  1  0
  7 29  1  0
  7 30  1  0
  8 31  1  0
 11 32  1  0
 12 33  1  0
 12 34  1  0
 13 35  1  0
 13 36  1  0
 14 37  1  0
 15 38  1  0
 16 39  1  0
 16 40  1  0
 16 41  1  0
 17 42  1  0
 17 43  1  0
 17 44  1  0
 18 45  1  0
 18 46  1  0
 19 47  1  0
 19 48  1  0
M  CHG  1  17   1
M  END
>  <EmbedRMS>  (131) 
0.16423161568044162

$$$$

     RDKit          3D

 41 42  0  0  0  0  0  0  0  0999 V2000
   14.0109    7.0504    1.2530 C   0  0  0  0  0  0  0  0  0  0  0  0
   13.6001    8.3242    1.9897 C   0  0  0  0  0  0  0  0  0  0  0  0
   14.7019    8.8917    2.7696 N   0  0  0  0  0  4  0  0  0  0  0  0
   12.2605    8.3272    2.7670 C   0  0  0  0  0  0  0  0  0  0  0  0
   11.1785    7.4395    2.1347 C   0  0  0  0  0  0  0  0  0  0  0  0
    9.7431    7.7265    2.5438 C   0  0  0  0  0  0  0  0  0  0  0  0
    9.4480    9.2022    2.6348 C   0  0  0  0  0  0  0  0  0  0  0  0
    7.9855    9.5269    2.7212 C   0  0  0  0  0  0  0  0  0  0  0  0
    7.4160    9.6964    1.6166 O   0  0  0  0  0  0  0  0  0  0  0  0
    7.2200    9.6619    3.9307 N   0  0  0  0  0  0  0  0  0  0  0  0
    5.8087   10.0702    3.8756 C   0  0  0  0  0  0  0  0  0  0  0  0
    4.9486    8.9371    3.3964 C   0  0  0  0  0  0  0  0  0  0  0  0
    4.4548    8.7452    2.1230 C   0  0  0  0  0  0  0  0  0  0  0  0
    3.7772    7.5798    2.0873 N   0  0  0  0  0  0  0  0  0  0  0  0
    3.8798    7.0921    3.3428 C   0  0  0  0  0  0  0  0  0  0  0  0
    4.5889    7.8937    4.1582 N   0  0  0  0  0  0  0  0  0  0  0  0
   10.3837   10.0201    3.4813 C   0  0  0  0  0  0  0  0  0  0  0  0
   11.8482    9.7807    3.1209 C   0  0  0  0  0  0  0  0  0  0  0  0
   13.2670    6.7643    0.4814 H   0  0  0  0  0  0  0  0  0  0  0  0
   14.9826    7.1928    0.7336 H   0  0  0  0  0  0  0  0  0  0  0  0
   14.1165    6.2176    1.9796 H   0  0  0  0  0  0  0  0  0  0  0  0
   13.4361    9.0283    1.1408 H   0  0  0  0  0  0  0  0  0  0  0  0
   15.5914    8.8672    2.2198 H   0  0  0  0  0  0  0  0  0  0  0  0
   14.5195    9.8922    3.0077 H   0  0  0  0  0  0  0  0  0  0  0  0
   14.8374    8.3415    3.6486 H   0  0  0  0  0  0  0  0  0  0  0  0
   12.4676    7.8407    3.7469 H   0  0  0  0  0  0  0  0  0  0  0  0
   11.4048    6.3669    2.3242 H   0  0  0  0  0  0  0  0  0  0  0  0
   11.2125    7.5910    1.0336 H   0  0  0  0  0  0  0  0  0  0  0  0
    9.0527    7.2359    1.8211 H   0  0  0  0  0  0  0  0  0  0  0  0
    9.5596    7.2719    3.5418 H   0  0  0  0  0  0  0  0  0  0  0  0
    9.7204    9.5601    1.6109 H   0  0  0  0  0  0  0  0  0  0  0  0
    7.6822    9.5153    4.8558 H   0  0  0  0  0  0  0  0  0  0  0  0
    5.6911   10.9573    3.2159 H   0  0  0  0  0  0  0  0  0  0  0  0
    5.4737   10.3634    4.8934 H   0  0  0  0  0  0  0  0  0  0  0  0
    4.5840    9.4038    1.2744 H   0  0  0  0  0  0  0  0  0  0  0  0
    3.4435    6.1529    3.6564 H   0  0  0  0  0  0  0  0  0  0  0  0
    4.8181    7.7294    5.1636 H   0  0  0  0  0  0  0  0  0  0  0  0
   10.2295    9.7357    4.5450 H   0  0  0  0  0  0  0  0  0  0  0  0
   10.1466   11.1032    3.3848 H   0  0  0  0  0  0  0  0  0  0  0  0
   12.4688   10.1523    3.9652 H   0  0  0  0  0  0  0  0  0  0  0  0
   12.0645   10.4404    2.2517 H   0  0  0  0  0  0  0  0  0  0  0  0
  1  2  1  0
  2  3  1  0
  2  4  1  0
  4  5  1  0
  5  6  1  0
  6  7  1  0
  7  8  1  0
  8  9  2  0
  8 10  1  0
 10 11  1  0
 11 12  1  0
 12 13  2  0
 13 14  1  0
 14 15  2  0
 15 16  1  0
  7 17  1  0
 17 18  1  0
 18  4  1  0
 16 12  1  0
  1 19  1  0
  1 20  1  0
  1 21  1  0
  2 22  1  0
  3 23  1  0
  3 24  1  0
  3 25  1  0
  4 26  1  0
  5 27  1  0
  5 28  1  0
  6 29  1  0
  6 30  1  0
  7 31  1  0
 10 32  1  0
 11 33  1  0
 11 34  1  0
 13 35  1  0
 15 36  1  0
 16 37  1  0
 17 38  1  0
 17 39  1  0
 18 40  1  0
 18 41  1  0
M  CHG  1   3   1
M  END
>  <EmbedRMS>  (132) 
0.29359866989900446

$$$$

     RDKit          3D

 43 44  0  0  0  0  0  0  0  0999 V2000
   14.0276    7.2301    1.0858 C   0  0  0  0  0  0  0  0  0  0  0  0
   13.6459    7.9626    2.3850 C   0  0  0  0  0  0  0  0  0  0  0  0
   14.6273    9.0243    2.6470 N   0  0  0  0  0  4  0  0  0  0  0  0
   12.1819    8.5085    2.2960 C   0  0  0  0  0  0  0  0  0  0  0  0
   11.1978    7.3499    2.5409 C   0  0  0  0  0  0  0  0  0  0  0  0
    9.7345    7.7437    2.3739 C   0  0  0  0  0  0  0  0  0  0  0  0
    9.4500    9.2139    2.6409 C   0  0  0  0  0  0  0  0  0  0  0  0
    7.9871    9.5385    2.7237 C   0  0  0  0  0  0  0  0  0  0  0  0
    7.4165    9.6879    1.6153 O   0  0  0  0  0  0  0  0  0  0  0  0
    7.2149    9.6895    3.9283 N   0  0  0  0  0  0  0  0  0  0  0  0
    5.8138   10.1222    3.8054 C   0  0  0  0  0  0  0  0  0  0  0  0
    5.1472   10.2607    5.1400 C   0  0  0  0  0  0  0  0  0  0  0  0
    4.4718    9.1754    5.7134 C   0  0  0  0  0  0  0  0  0  0  0  0
    3.8687    9.3139    6.9637 C   0  0  0  0  0  0  0  0  0  0  0  0
    3.9494   10.5386    7.6297 C   0  0  0  0  0  0  0  0  0  0  0  0
    4.6077   11.5829    7.0597 N   0  0  0  0  0  0  0  0  0  0  0  0
    5.2027   11.4727    5.8424 C   0  0  0  0  0  0  0  0  0  0  0  0
   10.4185   10.0737    3.4302 C   0  0  0  0  0  0  0  0  0  0  0  0
   11.8964    9.6377    3.3188 C   0  0  0  0  0  0  0  0  0  0  0  0
   13.3803    6.3499    0.9044 H   0  0  0  0  0  0  0  0  0  0  0  0
   13.9572    7.9169    0.2153 H   0  0  0  0  0  0  0  0  0  0  0  0
   15.0709    6.8548    1.1517 H   0  0  0  0  0  0  0  0  0  0  0  0
   13.7144    7.2277    3.2199 H   0  0  0  0  0  0  0  0  0  0  0  0
   15.5990    8.6418    2.5845 H   0  0  0  0  0  0  0  0  0  0  0  0
   14.5149    9.3994    3.6159 H   0  0  0  0  0  0  0  0  0  0  0  0
   14.5263    9.7976    1.9494 H   0  0  0  0  0  0  0  0  0  0  0  0
   12.0112    8.9222    1.2764 H   0  0  0  0  0  0  0  0  0  0  0  0
   11.3979    6.4997    1.8580 H   0  0  0  0  0  0  0  0  0  0  0  0
   11.3436    6.9702    3.5775 H   0  0  0  0  0  0  0  0  0  0  0  0
    9.3957    7.4730    1.3468 H   0  0  0  0  0  0  0  0  0  0  0  0
    9.1283    7.1284    3.0751 H   0  0  0  0  0  0  0  0  0  0  0  0
    9.7095    9.6218    1.6318 H   0  0  0  0  0  0  0  0  0  0  0  0
    7.6566    9.5244    4.8608 H   0  0  0  0  0  0  0  0  0  0  0  0
    5.2544    9.3860    3.1871 H   0  0  0  0  0  0  0  0  0  0  0  0
    5.7751   11.0969    3.2707 H   0  0  0  0  0  0  0  0  0  0  0  0
    4.4175    8.2247    5.1974 H   0  0  0  0  0  0  0  0  0  0  0  0
    3.3461    8.4800    7.4142 H   0  0  0  0  0  0  0  0  0  0  0  0
    3.4872   10.6595    8.6003 H   0  0  0  0  0  0  0  0  0  0  0  0
    5.7224   12.3263    5.4264 H   0  0  0  0  0  0  0  0  0  0  0  0
   10.1212   10.0281    4.5004 H   0  0  0  0  0  0  0  0  0  0  0  0
   10.3159   11.1407    3.1251 H   0  0  0  0  0  0  0  0  0  0  0  0
   12.2359    9.3018    4.3242 H   0  0  0  0  0  0  0  0  0  0  0  0
   12.4950   10.5353    3.0521 H   0  0  0  0  0  0  0  0  0  0  0  0
  1  2  1  0
  2  3  1  0
  2  4  1  0
  4  5  1  0
  5  6  1  0
  6  7  1  0
  7  8  1  0
  8  9  2  0
  8 10  1  0
 10 11  1  0
 11 12  1  0
 12 13  2  0
 13 14  1  0
 14 15  2  0
 15 16  1  0
 16 17  2  0
  7 18  1  0
 18 19  1  0
 19  4  1  0
 17 12  1  0
  1 20  1  0
  1 21  1  0
  1 22  1  0
  2 23  1  0
  3 24  1  0
  3 25  1  0
  3 26  1  0
  4 27  1  0
  5 28  1  0
  5 29  1  0
  6 30  1  0
  6 31  1  0
  7 32  1  0
 10 33  1  0
 11 34  1  0
 11 35  1  0
 13 36  1  0
 14 37  1  0
 15 38  1  0
 17 39  1  0
 18 40  1  0
 18 41  1  0
 19 42  1  0
 19 43  1  0
M  CHG  1   3   1
M  END
>  <EmbedRMS>  (133) 
0.17084101544492625

$$$$

     RDKit          3D

 43 43  0  0  0  0  0  0  0  0999 V2000
   13.9328    7.3327    1.0256 C   0  0  0  0  0  0  0  0  0  0  0  0
   13.7106    7.9150    2.4296 C   0  0  0  0  0  0  0  0  0  0  0  0
   14.6487    9.0167    2.6729 N   0  0  0  0  0  4  0  0  0  0  0  0
   12.2335    8.2987    2.7960 C   0  0  0  0  0  0  0  0  0  0  0  0
   11.1478    7.3148    2.3210 C   0  0  0  0  0  0  0  0  0  0  0  0
    9.7861    7.9355    2.0722 C   0  0  0  0  0  0  0  0  0  0  0  0
    9.4221    8.9837    3.1170 C   0  0  0  0  0  0  0  0  0  0  0  0
    8.0145    9.4662    2.8713 C   0  0  0  0  0  0  0  0  0  0  0  0
    7.6210    9.6843    1.6909 O   0  0  0  0  0  0  0  0  0  0  0  0
    7.1437    9.6979    3.9867 N   0  0  0  0  0  0  0  0  0  0  0  0
    5.7457   10.1462    3.8800 C   0  0  0  0  0  0  0  0  0  0  0  0
    4.9165    9.1275    3.0776 C   0  0  0  0  0  0  0  0  0  0  0  0
    5.1534   10.2537    5.2959 C   0  0  0  0  0  0  0  0  0  0  0  0
    5.6801   11.5317    3.2137 C   0  0  0  0  0  0  0  0  0  0  0  0
   10.3939   10.1678    3.0629 C   0  0  0  0  0  0  0  0  0  0  0  0
   11.8859    9.7890    2.9942 C   0  0  0  0  0  0  0  0  0  0  0  0
   13.4412    7.9749    0.2643 H   0  0  0  0  0  0  0  0  0  0  0  0
   13.5378    6.2975    0.9561 H   0  0  0  0  0  0  0  0  0  0  0  0
   15.0171    7.2758    0.7911 H   0  0  0  0  0  0  0  0  0  0  0  0
   14.0080    7.0851    3.1154 H   0  0  0  0  0  0  0  0  0  0  0  0
   14.5411    9.3807    3.6468 H   0  0  0  0  0  0  0  0  0  0  0  0
   14.5089    9.7867    1.9799 H   0  0  0  0  0  0  0  0  0  0  0  0
   15.6320    8.6704    2.5834 H   0  0  0  0  0  0  0  0  0  0  0  0
   12.2375    8.0299    3.8807 H   0  0  0  0  0  0  0  0  0  0  0  0
   11.4321    6.8306    1.3683 H   0  0  0  0  0  0  0  0  0  0  0  0
   11.0316    6.4819    3.0534 H   0  0  0  0  0  0  0  0  0  0  0  0
    9.7922    8.4045    1.0617 H   0  0  0  0  0  0  0  0  0  0  0  0
    9.0209    7.1271    2.0623 H   0  0  0  0  0  0  0  0  0  0  0  0
    9.4831    8.5112    4.1229 H   0  0  0  0  0  0  0  0  0  0  0  0
    7.5444    9.5331    4.9389 H   0  0  0  0  0  0  0  0  0  0  0  0
    3.8395    9.4025    3.0917 H   0  0  0  0  0  0  0  0  0  0  0  0
    5.0261    8.1122    3.5158 H   0  0  0  0  0  0  0  0  0  0  0  0
    5.2343    9.0851    2.0162 H   0  0  0  0  0  0  0  0  0  0  0  0
    5.1892    9.2679    5.8084 H   0  0  0  0  0  0  0  0  0  0  0  0
    4.0943   10.5901    5.2604 H   0  0  0  0  0  0  0  0  0  0  0  0
    5.7304   10.9832    5.9047 H   0  0  0  0  0  0  0  0  0  0  0  0
    5.9946   11.4920    2.1513 H   0  0  0  0  0  0  0  0  0  0  0  0
    6.3424   12.2468    3.7476 H   0  0  0  0  0  0  0  0  0  0  0  0
    4.6419   11.9283    3.2382 H   0  0  0  0  0  0  0  0  0  0  0  0
   10.2197   10.8123    3.9529 H   0  0  0  0  0  0  0  0  0  0  0  0
   10.1527   10.7919    2.1718 H   0  0  0  0  0  0  0  0  0  0  0  0
   12.3135   10.3458    2.1334 H   0  0  0  0  0  0  0  0  0  0  0  0
   12.3931   10.1935    3.8999 H   0  0  0  0  0  0  0  0  0  0  0  0
  1  2  1  0
  2  3  1  0
  2  4  1  0
  4  5  1  0
  5  6  1  0
  6  7  1  0
  7  8  1  0
  8  9  2  0
  8 10  1  0
 10 11  1  0
 11 12  1  0
 11 13  1  0
 11 14  1  0
  7 15  1  0
 15 16  1  0
 16  4  1  0
  1 17  1  0
  1 18  1  0
  1 19  1  0
  2 20  1  0
  3 21  1  0
  3 22  1  0
  3 23  1  0
  4 24  1  0
  5 25  1  0
  5 26  1  0
  6 27  1  0
  6 28  1  0
  7 29  1  0
 10 30  1  0
 12 31  1  0
 12 32  1  0
 12 33  1  0
 13 34  1  0
 13 35  1  0
 13 36  1  0
 14 37  1  0
 14 38  1  0
 14 39  1  0
 15 40  1  0
 15 41  1  0
 16 42  1  0
 16 43  1  0
M  CHG  1   3   1
M  END
>  <EmbedRMS>  (134) 
0.17423024192686873

$$$$

     RDKit          3D

 39 39  0  0  0  0  0  0  0  0999 V2000
   14.0292    7.0395    1.2341 C   0  0  0  0  0  0  0  0  0  0  0  0
   13.6705    8.3363    1.9394 C   0  0  0  0  0  0  0  0  0  0  0  0
   14.6141    8.7683    2.9625 N   0  0  0  0  0  4  0  0  0  0  0  0
   12.1593    8.5896    2.2112 C   0  0  0  0  0  0  0  0  0  0  0  0
   11.2420    7.3766    2.4505 C   0  0  0  0  0  0  0  0  0  0  0  0
    9.7906    7.8235    2.2077 C   0  0  0  0  0  0  0  0  0  0  0  0
    9.4138    8.9832    3.1469 C   0  0  0  0  0  0  0  0  0  0  0  0
    8.0167    9.4628    2.8713 C   0  0  0  0  0  0  0  0  0  0  0  0
    7.6224    9.6789    1.6912 O   0  0  0  0  0  0  0  0  0  0  0  0
    7.1450    9.6933    3.9719 N   0  0  0  0  0  0  0  0  0  0  0  0
    5.8319   10.1376    3.7760 N   0  0  0  0  0  0  0  0  0  0  0  0
    5.0510   10.2965    4.7921 C   0  0  0  0  0  0  0  0  0  0  0  0
    3.6759   10.7654    4.6014 C   0  0  0  0  0  0  0  0  0  0  0  0
    2.8533   10.9471    5.5905 N   0  0  0  0  0  0  0  0  0  0  0  0
    3.1947   10.7914    6.9450 N   0  0  0  0  0  0  0  0  0  0  0  0
   10.4077   10.1585    3.0846 C   0  0  0  0  0  0  0  0  0  0  0  0
   11.8567    9.6805    3.2533 C   0  0  0  0  0  0  0  0  0  0  0  0
   13.3786    6.8823    0.3468 H   0  0  0  0  0  0  0  0  0  0  0  0
   15.0845    7.0600    0.8859 H   0  0  0  0  0  0  0  0  0  0  0  0
   13.9086    6.1865    1.9343 H   0  0  0  0  0  0  0  0  0  0  0  0
   13.8849    9.0581    1.1113 H   0  0  0  0  0  0  0  0  0  0  0  0
   14.5973    9.8056    3.0881 H   0  0  0  0  0  0  0  0  0  0  0  0
   15.5904    8.5014    2.6982 H   0  0  0  0  0  0  0  0  0  0  0  0
   14.3778    8.3020    3.8678 H   0  0  0  0  0  0  0  0  0  0  0  0
   11.8047    9.0087    1.2363 H   0  0  0  0  0  0  0  0  0  0  0  0
   11.3697    6.9866    3.4841 H   0  0  0  0  0  0  0  0  0  0  0  0
   11.4656    6.5560    1.7386 H   0  0  0  0  0  0  0  0  0  0  0  0
    9.6620    8.1223    1.1432 H   0  0  0  0  0  0  0  0  0  0  0  0
    9.1148    6.9611    2.3981 H   0  0  0  0  0  0  0  0  0  0  0  0
    9.4496    8.5771    4.1831 H   0  0  0  0  0  0  0  0  0  0  0  0
    7.5021    9.5276    4.9415 H   0  0  0  0  0  0  0  0  0  0  0  0
    5.4203   10.0483    5.7760 H   0  0  0  0  0  0  0  0  0  0  0  0
    3.3184   10.9328    3.5934 H   0  0  0  0  0  0  0  0  0  0  0  0
    4.1754   10.8463    7.2932 H   0  0  0  0  0  0  0  0  0  0  0  0
    2.4349   10.8139    7.6596 H   0  0  0  0  0  0  0  0  0  0  0  0
   10.3060   10.6875    2.1103 H   0  0  0  0  0  0  0  0  0  0  0  0
   10.1719   10.8874    3.8906 H   0  0  0  0  0  0  0  0  0  0  0  0
   12.0204    9.2944    4.2833 H   0  0  0  0  0  0  0  0  0  0  0  0
   12.5100   10.5638    3.0947 H   0  0  0  0  0  0  0  0  0  0  0  0
  1  2  1  0
  2  3  1  0
  2  4  1  0
  4  5  1  0
  5  6  1  0
  6  7  1  0
  7  8  1  0
  8  9  2  0
  8 10  1  0
 10 11  1  0
 11 12  2  3
 12 13  1  0
 13 14  2  3
 14 15  1  0
  7 16  1  0
 16 17  1  0
 17  4  1  0
  1 18  1  0
  1 19  1  0
  1 20  1  0
  2 21  1  0
  3 22  1  0
  3 23  1  0
  3 24  1  0
  4 25  1  0
  5 26  1  0
  5 27  1  0
  6 28  1  0
  6 29  1  0
  7 30  1  0
 10 31  1  0
 12 32  1  0
 13 33  1  0
 15 34  1  0
 15 35  1  0
 16 36  1  0
 16 37  1  0
 17 38  1  0
 17 39  1  0
M  CHG  1   3   1
M  END
>  <EmbedRMS>  (135) 
0.1883840412854219

$$$$

     RDKit          3D

 42 42  0  0  0  0  0  0  0  0999 V2000
    8.6750    8.1658    7.0703 C   0  0  0  0  0  0  0  0  0  0  0  0
    8.3763    8.4580    5.8022 C   0  0  0  0  0  0  0  0  0  0  0  0
    7.3143    9.3915    5.3537 C   0  0  0  0  0  0  0  0  0  0  0  0
    6.4078    9.8578    6.2465 C   0  0  0  0  0  0  0  0  0  0  0  0
    5.2565   10.7471    5.8877 C   0  0  0  0  0  0  0  0  0  0  0  0
    7.1493    9.7152    3.9495 N   0  0  0  0  0  0  0  0  0  0  0  0
    7.9765    9.4983    2.7821 C   0  0  0  0  0  0  0  0  0  0  0  0
    7.4301    9.6608    1.6607 O   0  0  0  0  0  0  0  0  0  0  0  0
    9.4445    9.1811    2.6937 C   0  0  0  0  0  0  0  0  0  0  0  0
    9.7537    7.7156    2.4382 C   0  0  0  0  0  0  0  0  0  0  0  0
   11.2038    7.4507    2.0892 C   0  0  0  0  0  0  0  0  0  0  0  0
   12.2683    8.3270    2.7571 C   0  0  0  0  0  0  0  0  0  0  0  0
   13.6145    8.3244    1.9914 C   0  0  0  0  0  0  0  0  0  0  0  0
   14.0289    7.0506    1.2546 C   0  0  0  0  0  0  0  0  0  0  0  0
   14.7105    8.8911    2.7788 N   0  0  0  0  0  4  0  0  0  0  0  0
   11.8580    9.7797    3.1035 C   0  0  0  0  0  0  0  0  0  0  0  0
   10.4067   10.0105    3.5026 C   0  0  0  0  0  0  0  0  0  0  0  0
    9.4522    7.4407    7.2763 H   0  0  0  0  0  0  0  0  0  0  0  0
    8.2207    8.6429    7.9236 H   0  0  0  0  0  0  0  0  0  0  0  0
    8.9290    7.9270    5.0689 H   0  0  0  0  0  0  0  0  0  0  0  0
    6.4522    9.5905    7.2899 H   0  0  0  0  0  0  0  0  0  0  0  0
    5.6232   11.6730    5.3961 H   0  0  0  0  0  0  0  0  0  0  0  0
    4.7085   11.0385    6.8086 H   0  0  0  0  0  0  0  0  0  0  0  0
    4.5465   10.2109    5.2233 H   0  0  0  0  0  0  0  0  0  0  0  0
    6.2337   10.1339    3.6758 H   0  0  0  0  0  0  0  0  0  0  0  0
    9.6986    9.5966    1.6856 H   0  0  0  0  0  0  0  0  0  0  0  0
    9.1148    7.3426    1.6051 H   0  0  0  0  0  0  0  0  0  0  0  0
    9.4972    7.0769    3.2974 H   0  0  0  0  0  0  0  0  0  0  0  0
   11.2718    7.6249    0.9927 H   0  0  0  0  0  0  0  0  0  0  0  0
   11.4331    6.3748    2.2587 H   0  0  0  0  0  0  0  0  0  0  0  0
   12.4573    7.8339    3.7373 H   0  0  0  0  0  0  0  0  0  0  0  0
   13.4588    9.0294    1.1415 H   0  0  0  0  0  0  0  0  0  0  0  0
   14.1162    6.2135    1.9787 H   0  0  0  0  0  0  0  0  0  0  0  0
   13.3003    6.7723    0.4659 H   0  0  0  0  0  0  0  0  0  0  0  0
   15.0110    7.1880    0.7539 H   0  0  0  0  0  0  0  0  0  0  0  0
   14.5373    9.8979    2.9966 H   0  0  0  0  0  0  0  0  0  0  0  0
   15.6086    8.8475    2.2446 H   0  0  0  0  0  0  0  0  0  0  0  0
   14.8256    8.3542    3.6688 H   0  0  0  0  0  0  0  0  0  0  0  0
   12.4979   10.1655    3.9267 H   0  0  0  0  0  0  0  0  0  0  0  0
   12.0458   10.4293    2.2200 H   0  0  0  0  0  0  0  0  0  0  0  0
   10.1603   11.0919    3.4053 H   0  0  0  0  0  0  0  0  0  0  0  0
   10.3056    9.7529    4.5738 H   0  0  0  0  0  0  0  0  0  0  0  0
  1  2  2  3
  2  3  1  0
  3  4  2  3
  4  5  1  0
  3  6  1  0
  6  7  1  0
  7  8  2  0
  7  9  1  0
  9 10  1  0
 10 11  1  0
 11 12  1  0
 12 13  1  0
 13 14  1  0
 13 15  1  0
 12 16  1  0
 16 17  1  0
 17  9  1  0
  1 18  1  0
  1 19  1  0
  2 20  1  0
  4 21  1  0
  5 22  1  0
  5 23  1  0
  5 24  1  0
  6 25  1  0
  9 26  1  0
 10 27  1  0
 10 28  1  0
 11 29  1  0
 11 30  1  0
 12 31  1  0
 13 32  1  0
 14 33  1  0
 14 34  1  0
 14 35  1  0
 15 36  1  0
 15 37  1  0
 15 38  1  0
 16 39  1  0
 16 40  1  0
 17 41  1  0
 17 42  1  0
M  CHG  1  15   1
M  END
>  <EmbedRMS>  (136) 
0.29216731409503444

$$$$

     RDKit          3D

 43 43  0  0  0  0  0  0  0  0999 V2000
    5.0050   11.5098    7.1986 C   0  0  0  0  0  0  0  0  0  0  0  0
    5.6534   11.4114    5.8925 N   0  0  0  0  0  4  0  0  0  0  0  0
    5.0764   10.2943    5.1324 C   0  0  0  0  0  0  0  0  0  0  0  0
    5.7721   10.1344    3.7825 C   0  0  0  0  0  0  0  0  0  0  0  0
    7.1449    9.6763    3.9645 N   0  0  0  0  0  0  0  0  0  0  0  0
    8.0156    9.4656    2.8537 C   0  0  0  0  0  0  0  0  0  0  0  0
    7.6126    9.6911    1.6783 O   0  0  0  0  0  0  0  0  0  0  0  0
    9.4195    8.9872    3.0996 C   0  0  0  0  0  0  0  0  0  0  0  0
    9.8040    7.9211    2.0779 C   0  0  0  0  0  0  0  0  0  0  0  0
   11.1610    7.3109    2.3955 C   0  0  0  0  0  0  0  0  0  0  0  0
   12.2775    8.3210    2.7732 C   0  0  0  0  0  0  0  0  0  0  0  0
   13.5820    8.3572    1.9533 C   0  0  0  0  0  0  0  0  0  0  0  0
   13.9851    7.0989    1.1848 C   0  0  0  0  0  0  0  0  0  0  0  0
   14.7126    8.8837    2.7301 N   0  0  0  0  0  4  0  0  0  0  0  0
   11.8333    9.7186    3.3042 C   0  0  0  0  0  0  0  0  0  0  0  0
   10.3996   10.1507    3.0037 C   0  0  0  0  0  0  0  0  0  0  0  0
    5.4336   12.3647    7.7650 H   0  0  0  0  0  0  0  0  0  0  0  0
    3.9123   11.6848    7.0844 H   0  0  0  0  0  0  0  0  0  0  0  0
    5.1724   10.5840    7.7923 H   0  0  0  0  0  0  0  0  0  0  0  0
    6.6785   11.2701    6.0448 H   0  0  0  0  0  0  0  0  0  0  0  0
    5.5017   12.3081    5.3736 H   0  0  0  0  0  0  0  0  0  0  0  0
    3.9953   10.4845    4.9454 H   0  0  0  0  0  0  0  0  0  0  0  0
    5.1645    9.3419    5.7036 H   0  0  0  0  0  0  0  0  0  0  0  0
    5.7677   11.1042    3.2388 H   0  0  0  0  0  0  0  0  0  0  0  0
    5.2166    9.3875    3.1751 H   0  0  0  0  0  0  0  0  0  0  0  0
    7.4993    9.4473    4.9211 H   0  0  0  0  0  0  0  0  0  0  0  0
    9.4791    8.5430    4.1189 H   0  0  0  0  0  0  0  0  0  0  0  0
    9.0401    7.1115    2.0710 H   0  0  0  0  0  0  0  0  0  0  0  0
    9.8381    8.3604    1.0554 H   0  0  0  0  0  0  0  0  0  0  0  0
   11.0035    6.5987    3.2390 H   0  0  0  0  0  0  0  0  0  0  0  0
   11.4463    6.6777    1.5353 H   0  0  0  0  0  0  0  0  0  0  0  0
   12.6602    7.8393    3.7041 H   0  0  0  0  0  0  0  0  0  0  0  0
   13.3818    9.1014    1.1484 H   0  0  0  0  0  0  0  0  0  0  0  0
   15.0014    7.2122    0.7511 H   0  0  0  0  0  0  0  0  0  0  0  0
   13.9884    6.2217    1.8658 H   0  0  0  0  0  0  0  0  0  0  0  0
   13.2939    6.9116    0.3364 H   0  0  0  0  0  0  0  0  0  0  0  0
   14.9962    8.1893    3.4593 H   0  0  0  0  0  0  0  0  0  0  0  0
   14.4937    9.7895    3.1978 H   0  0  0  0  0  0  0  0  0  0  0  0
   15.5301    9.0536    2.0996 H   0  0  0  0  0  0  0  0  0  0  0  0
   12.4794   10.5257    2.9005 H   0  0  0  0  0  0  0  0  0  0  0  0
   11.9640    9.7479    4.4104 H   0  0  0  0  0  0  0  0  0  0  0  0
   10.1046   10.9516    3.7180 H   0  0  0  0  0  0  0  0  0  0  0  0
   10.3605   10.5876    1.9801 H   0  0  0  0  0  0  0  0  0  0  0  0
  1  2  1  0
  2  3  1  0
  3  4  1  0
  4  5  1  0
  5  6  1  0
  6  7  2  0
  6  8  1  0
  8  9  1  0
  9 10  1  0
 10 11  1  0
 11 12  1  0
 12 13  1  0
 12 14  1  0
 11 15  1  0
 15 16  1  0
 16  8  1  0
  1 17  1  0
  1 18  1  0
  1 19  1  0
  2 20  1  0
  2 21  1  0
  3 22  1  0
  3 23  1  0
  4 24  1  0
  4 25  1  0
  5 26  1  0
  8 27  1  0
  9 28  1  0
  9 29  1  0
 10 30  1  0
 10 31  1  0
 11 32  1  0
 12 33  1  0
 13 34  1  0
 13 35  1  0
 13 36  1  0
 14 37  1  0
 14 38  1  0
 14 39  1  0
 15 40  1  0
 15 41  1  0
 16 42  1  0
 16 43  1  0
M  CHG  2   2   1  14   1
M  END
>  <EmbedRMS>  (137) 
0.2153162907233524

$$$$

     RDKit          3D

 43 44  0  0  0  0  0  0  0  0999 V2000
   14.0134    7.0450    1.2246 C   0  0  0  0  0  0  0  0  0  0  0  0
   13.6542    8.3401    1.9333 C   0  0  0  0  0  0  0  0  0  0  0  0
   14.6173    8.7741    2.9397 N   0  0  0  0  0  4  0  0  0  0  0  0
   12.1431    8.5871    2.2329 C   0  0  0  0  0  0  0  0  0  0  0  0
   11.2641    7.3646    2.5408 C   0  0  0  0  0  0  0  0  0  0  0  0
    9.7655    7.7147    2.4337 C   0  0  0  0  0  0  0  0  0  0  0  0
    9.4437    9.1939    2.6629 C   0  0  0  0  0  0  0  0  0  0  0  0
    7.9804    9.5185    2.7350 C   0  0  0  0  0  0  0  0  0  0  0  0
    7.4133    9.6743    1.6246 O   0  0  0  0  0  0  0  0  0  0  0  0
    7.2101    9.6866    3.9373 N   0  0  0  0  0  0  0  0  0  0  0  0
    5.8079   10.1133    3.8144 C   0  0  0  0  0  0  0  0  0  0  0  0
    5.1538   10.2714    5.1492 C   0  0  0  0  0  0  0  0  0  0  0  0
    4.4718    9.2849    5.7620 N   0  0  0  0  0  0  0  0  0  0  0  0
    4.1072    9.8685    6.9253 C   0  0  0  0  0  0  0  0  0  0  0  0
    4.5417   11.1409    7.0242 N   0  0  0  0  0  0  0  0  0  0  0  0
    5.2010   11.3813    5.9065 N   0  0  0  0  0  0  0  0  0  0  0  0
    5.8353   12.6534    5.5829 C   0  0  0  0  0  0  0  0  0  0  0  0
   10.4056   10.0818    3.4356 C   0  0  0  0  0  0  0  0  0  0  0  0
   11.8902    9.6850    3.2864 C   0  0  0  0  0  0  0  0  0  0  0  0
   13.3401    6.8741    0.3570 H   0  0  0  0  0  0  0  0  0  0  0  0
   13.9241    6.1936    1.9315 H   0  0  0  0  0  0  0  0  0  0  0  0
   15.0583    7.0793    0.8476 H   0  0  0  0  0  0  0  0  0  0  0  0
   13.8439    9.0655    1.1032 H   0  0  0  0  0  0  0  0  0  0  0  0
   15.5926    8.5556    2.6309 H   0  0  0  0  0  0  0  0  0  0  0  0
   14.4335    8.2663    3.8347 H   0  0  0  0  0  0  0  0  0  0  0  0
   14.5658    9.8051    3.1022 H   0  0  0  0  0  0  0  0  0  0  0  0
   11.7496    8.9805    1.2663 H   0  0  0  0  0  0  0  0  0  0  0  0
   11.4737    6.5320    1.8378 H   0  0  0  0  0  0  0  0  0  0  0  0
   11.4949    7.0012    3.5664 H   0  0  0  0  0  0  0  0  0  0  0  0
    9.3848    7.3993    1.4350 H   0  0  0  0  0  0  0  0  0  0  0  0
    9.2148    7.1108    3.1875 H   0  0  0  0  0  0  0  0  0  0  0  0
    9.6829    9.5863    1.6449 H   0  0  0  0  0  0  0  0  0  0  0  0
    7.6558    9.5381    4.8707 H   0  0  0  0  0  0  0  0  0  0  0  0
    5.2436    9.3553    3.2291 H   0  0  0  0  0  0  0  0  0  0  0  0
    5.7572   11.0764    3.2627 H   0  0  0  0  0  0  0  0  0  0  0  0
    3.5302    9.3698    7.6922 H   0  0  0  0  0  0  0  0  0  0  0  0
    5.2848   13.1450    4.7538 H   0  0  0  0  0  0  0  0  0  0  0  0
    6.8894   12.4828    5.2779 H   0  0  0  0  0  0  0  0  0  0  0  0
    5.8248   13.3227    6.4692 H   0  0  0  0  0  0  0  0  0  0  0  0
   10.1348   10.0263    4.5122 H   0  0  0  0  0  0  0  0  0  0  0  0
   10.2664   11.1448    3.1315 H   0  0  0  0  0  0  0  0  0  0  0  0
   12.2734    9.3423    4.2727 H   0  0  0  0  0  0  0  0  0  0  0  0
   12.4548   10.6000    3.0047 H   0  0  0  0  0  0  0  0  0  0  0  0
  1  2  1  0
  2  3  1  0
  2  4  1  0
  4  5  1  0
  5  6  1  0
  6  7  1  0
  7  8  1  0
  8  9  2  0
  8 10  1  0
 10 11  1  0
 11 12  1  0
 12 13  2  0
 13 14  1  0
 14 15  2  0
 15 16  1  0
 16 17  1  0
  7 18  1  0
 18 19  1  0
 19  4  1  0
 16 12  1  0
  1 20  1  0
  1 21  1  0
  1 22  1  0
  2 23  1  0
  3 24  1  0
  3 25  1  0
  3 26  1  0
  4 27  1  0
  5 28  1  0
  5 29  1  0
  6 30  1  0
  6 31  1  0
  7 32  1  0
 10 33  1  0
 11 34  1  0
 11 35  1  0
 14 36  1  0
 17 37  1  0
 17 38  1  0
 17 39  1  0
 18 40  1  0
 18 41  1  0
 19 42  1  0
 19 43  1  0
M  CHG  1   3   1
M  END
>  <EmbedRMS>  (138) 
0.24309368491659913

$$$$

     RDKit          3D

 33 33  0  0  0  0  0  0  0  0999 V2000
   13.9226    7.3284    1.0386 C   0  0  0  0  0  0  0  0  0  0  0  0
   13.7073    7.9211    2.4414 C   0  0  0  0  0  0  0  0  0  0  0  0
   14.6422    9.0269    2.6701 N   0  0  0  0  0  4  0  0  0  0  0  0
   12.2292    8.2936    2.8217 C   0  0  0  0  0  0  0  0  0  0  0  0
   11.1737    7.4160    2.1505 C   0  0  0  0  0  0  0  0  0  0  0  0
    9.7351    7.7233    2.5384 C   0  0  0  0  0  0  0  0  0  0  0  0
    9.4491    9.2031    2.6331 C   0  0  0  0  0  0  0  0  0  0  0  0
    7.9866    9.5369    2.7246 C   0  0  0  0  0  0  0  0  0  0  0  0
    7.4177    9.6891    1.6158 O   0  0  0  0  0  0  0  0  0  0  0  0
    7.2156    9.6912    3.9309 N   0  0  0  0  0  0  0  0  0  0  0  0
    5.8387   10.1108    3.8329 C   0  0  0  0  0  0  0  0  0  0  0  0
    4.9088   10.3365    5.1562 S   0  0  0  0  0  0  0  0  0  0  0  0
   10.4241   10.0508    3.4188 C   0  0  0  0  0  0  0  0  0  0  0  0
   11.8785    9.7842    2.9978 C   0  0  0  0  0  0  0  0  0  0  0  0
   14.9996    7.1183    0.8657 H   0  0  0  0  0  0  0  0  0  0  0  0
   13.5730    8.0450    0.2655 H   0  0  0  0  0  0  0  0  0  0  0  0
   13.3779    6.3679    0.9249 H   0  0  0  0  0  0  0  0  0  0  0  0
   14.0111    7.0970    3.1300 H   0  0  0  0  0  0  0  0  0  0  0  0
   15.6230    8.7092    2.4919 H   0  0  0  0  0  0  0  0  0  0  0  0
   14.4327    9.8277    2.0311 H   0  0  0  0  0  0  0  0  0  0  0  0
   14.5984    9.3366    3.6676 H   0  0  0  0  0  0  0  0  0  0  0  0
   12.1628    7.9501    3.8814 H   0  0  0  0  0  0  0  0  0  0  0  0
   11.3806    6.3427    2.3582 H   0  0  0  0  0  0  0  0  0  0  0  0
   11.2456    7.5650    1.0515 H   0  0  0  0  0  0  0  0  0  0  0  0
    9.0499    7.2406    1.8056 H   0  0  0  0  0  0  0  0  0  0  0  0
    9.5318    7.2690    3.5327 H   0  0  0  0  0  0  0  0  0  0  0  0
    9.7020    9.5358    1.5954 H   0  0  0  0  0  0  0  0  0  0  0  0
    7.6600    9.5302    4.8623 H   0  0  0  0  0  0  0  0  0  0  0  0
    5.3847   10.2936    2.8676 H   0  0  0  0  0  0  0  0  0  0  0  0
   10.3104    9.8096    4.4980 H   0  0  0  0  0  0  0  0  0  0  0  0
   10.1919   11.1305    3.2845 H   0  0  0  0  0  0  0  0  0  0  0  0
   12.0557   10.2954    2.0267 H   0  0  0  0  0  0  0  0  0  0  0  0
   12.5386   10.2610    3.7529 H   0  0  0  0  0  0  0  0  0  0  0  0
  1  2  1  0
  2  3  1  0
  2  4  1  0
  4  5  1  0
  5  6  1  0
  6  7  1  0
  7  8  1  0
  8  9  2  0
  8 10  1  0
 10 11  1  0
 11 12  2  0
  7 13  1  0
 13 14  1  0
 14  4  1  0
  1 15  1  0
  1 16  1  0
  1 17  1  0
  2 18  1  0
  3 19  1  0
  3 20  1  0
  3 21  1  0
  4 22  1  0
  5 23  1  0
  5 24  1  0
  6 25  1  0
  6 26  1  0
  7 27  1  0
 10 28  1  0
 11 29  1  0
 13 30  1  0
 13 31  1  0
 14 32  1  0
 14 33  1  0
M  CHG  1   3   1
M  END
>  <EmbedRMS>  (139) 
0.2961184258862318

$$$$

     RDKit          3D

 44 44  0  0  0  0  0  0  0  0999 V2000
    5.8775   11.4490    5.8599 C   0  0  0  0  0  0  0  0  0  0  0  0
    5.1220   10.7187    4.7918 C   0  0  0  0  0  0  0  0  0  0  0  0
    5.7170    9.9083    3.8974 C   0  0  0  0  0  0  0  0  0  0  0  0
    7.1334    9.6721    3.9932 N   0  0  0  0  0  0  0  0  0  0  0  0
    8.0086    9.4604    2.8799 C   0  0  0  0  0  0  0  0  0  0  0  0
    7.6262    9.7033    1.7007 O   0  0  0  0  0  0  0  0  0  0  0  0
    9.4096    8.9836    3.1496 C   0  0  0  0  0  0  0  0  0  0  0  0
    9.7865    7.8249    2.2087 C   0  0  0  0  0  0  0  0  0  0  0  0
   11.2388    7.3775    2.4503 C   0  0  0  0  0  0  0  0  0  0  0  0
   12.1566    8.5902    2.2114 C   0  0  0  0  0  0  0  0  0  0  0  0
   13.6684    8.3368    1.9397 C   0  0  0  0  0  0  0  0  0  0  0  0
   14.0276    7.0400    1.2347 C   0  0  0  0  0  0  0  0  0  0  0  0
   14.6122    8.7694    2.9626 N   0  0  0  0  0  4  0  0  0  0  0  0
   11.8534    9.6815    3.2532 C   0  0  0  0  0  0  0  0  0  0  0  0
   10.4035   10.1590    3.0855 C   0  0  0  0  0  0  0  0  0  0  0  0
    4.8812    9.1732    2.9075 C   0  0  0  0  0  0  0  0  0  0  0  0
    5.3293    7.8586    2.3348 C   0  0  0  0  0  0  0  0  0  0  0  0
    3.7156    9.6375    2.5770 N   0  0  0  0  0  0  0  0  0  0  0  0
    5.1882   12.1266    6.4059 H   0  0  0  0  0  0  0  0  0  0  0  0
    6.6877   12.0602    5.4085 H   0  0  0  0  0  0  0  0  0  0  0  0
    6.3055   10.7294    6.5889 H   0  0  0  0  0  0  0  0  0  0  0  0
    4.0500   10.8746    4.7592 H   0  0  0  0  0  0  0  0  0  0  0  0
    7.5679    9.6582    4.9430 H   0  0  0  0  0  0  0  0  0  0  0  0
    9.4484    8.5759    4.1851 H   0  0  0  0  0  0  0  0  0  0  0  0
    9.1103    6.9626    2.3983 H   0  0  0  0  0  0  0  0  0  0  0  0
    9.6566    8.1253    1.1449 H   0  0  0  0  0  0  0  0  0  0  0  0
   11.3670    6.9867    3.4834 H   0  0  0  0  0  0  0  0  0  0  0  0
   11.4619    6.5574    1.7376 H   0  0  0  0  0  0  0  0  0  0  0  0
   11.8021    9.0093    1.2366 H   0  0  0  0  0  0  0  0  0  0  0  0
   13.8825    9.0584    1.1115 H   0  0  0  0  0  0  0  0  0  0  0  0
   15.0830    7.0605    0.8868 H   0  0  0  0  0  0  0  0  0  0  0  0
   13.3772    6.8826    0.3473 H   0  0  0  0  0  0  0  0  0  0  0  0
   13.9068    6.1870    1.9349 H   0  0  0  0  0  0  0  0  0  0  0  0
   14.3767    8.3025    3.8678 H   0  0  0  0  0  0  0  0  0  0  0  0
   15.5886    8.5036    2.6977 H   0  0  0  0  0  0  0  0  0  0  0  0
   14.5942    9.8066    3.0886 H   0  0  0  0  0  0  0  0  0  0  0  0
   12.5063   10.5650    3.0941 H   0  0  0  0  0  0  0  0  0  0  0  0
   12.0179    9.2958    4.2832 H   0  0  0  0  0  0  0  0  0  0  0  0
   10.1680   10.8883    3.8913 H   0  0  0  0  0  0  0  0  0  0  0  0
   10.3005   10.6872    2.1110 H   0  0  0  0  0  0  0  0  0  0  0  0
    6.1429    7.4090    2.9413 H   0  0  0  0  0  0  0  0  0  0  0  0
    4.4828    7.1396    2.3312 H   0  0  0  0  0  0  0  0  0  0  0  0
    5.6763    8.0000    1.2905 H   0  0  0  0  0  0  0  0  0  0  0  0
    3.0902    9.1404    1.9035 H   0  0  0  0  0  0  0  0  0  0  0  0
  1  2  1  0
  2  3  2  3
  3  4  1  0
  4  5  1  0
  5  6  2  0
  5  7  1  0
  7  8  1  0
  8  9  1  0
  9 10  1  0
 10 11  1  0
 11 12  1  0
 11 13  1  0
 10 14  1  0
 14 15  1  0
  3 16  1  0
 16 17  1  0
 16 18  2  3
 15  7  1  0
  1 19  1  0
  1 20  1  0
  1 21  1  0
  2 22  1  0
  4 23  1  0
  7 24  1  0
  8 25  1  0
  8 26  1  0
  9 27  1  0
  9 28  1  0
 10 29  1  0
 11 30  1  0
 12 31  1  0
 12 32  1  0
 12 33  1  0
 13 34  1  0
 13 35  1  0
 13 36  1  0
 14 37  1  0
 14 38  1  0
 15 39  1  0
 15 40  1  0
 17 41  1  0
 17 42  1  0
 17 43  1  0
 18 44  1  0
M  CHG  1  13   1
M  END
>  <EmbedRMS>  (140) 
0.18298173008130458

$$$$

     RDKit          3D

 44 45  0  0  0  0  0  0  0  0999 V2000
   14.0491    7.2192    1.1051 C   0  0  0  0  0  0  0  0  0  0  0  0
   13.6499    7.9554    2.3993 C   0  0  0  0  0  0  0  0  0  0  0  0
   14.6293    9.0155    2.6715 N   0  0  0  0  0  4  0  0  0  0  0  0
   12.2007    8.5120    2.2736 C   0  0  0  0  0  0  0  0  0  0  0  0
   11.1807    7.3658    2.4346 C   0  0  0  0  0  0  0  0  0  0  0  0
    9.7726    7.8720    2.1539 C   0  0  0  0  0  0  0  0  0  0  0  0
    9.4099    8.9946    3.1307 C   0  0  0  0  0  0  0  0  0  0  0  0
    8.0144    9.4819    2.8685 C   0  0  0  0  0  0  0  0  0  0  0  0
    7.6163    9.6899    1.6878 O   0  0  0  0  0  0  0  0  0  0  0  0
    7.1421    9.7123    3.9750 N   0  0  0  0  0  0  0  0  0  0  0  0
    5.7615   10.1355    3.7870 C   0  0  0  0  0  0  0  0  0  0  0  0
    5.0980   10.2938    5.1182 C   0  0  0  0  0  0  0  0  0  0  0  0
    4.3917    9.3155    5.7845 C   0  0  0  0  0  0  0  0  0  0  0  0
    4.0621    9.8968    6.9943 C   0  0  0  0  0  0  0  0  0  0  0  0
    4.5655   11.1466    7.0524 N   0  0  0  0  0  0  0  0  0  0  0  0
    5.2022   11.3746    5.9156 N   0  0  0  0  0  0  0  0  0  0  0  0
    5.8996   12.6191    5.6126 C   0  0  0  0  0  0  0  0  0  0  0  0
   10.4244   10.1488    3.0655 C   0  0  0  0  0  0  0  0  0  0  0  0
   11.8589    9.6374    3.2816 C   0  0  0  0  0  0  0  0  0  0  0  0
   15.0965    6.8576    1.1812 H   0  0  0  0  0  0  0  0  0  0  0  0
   13.4183    6.3265    0.9275 H   0  0  0  0  0  0  0  0  0  0  0  0
   13.9788    7.8972    0.2277 H   0  0  0  0  0  0  0  0  0  0  0  0
   13.6913    7.2248    3.2394 H   0  0  0  0  0  0  0  0  0  0  0  0
   14.5438    9.7862    1.9690 H   0  0  0  0  0  0  0  0  0  0  0  0
   15.6007    8.6296    2.6307 H   0  0  0  0  0  0  0  0  0  0  0  0
   14.4966    9.3930    3.6373 H   0  0  0  0  0  0  0  0  0  0  0  0
   12.0890    8.9476    1.2538 H   0  0  0  0  0  0  0  0  0  0  0  0
   11.2335    6.9397    3.4615 H   0  0  0  0  0  0  0  0  0  0  0  0
   11.3829    6.5448    1.7186 H   0  0  0  0  0  0  0  0  0  0  0  0
    9.7117    8.2308    1.1019 H   0  0  0  0  0  0  0  0  0  0  0  0
    9.0568    7.0288    2.2728 H   0  0  0  0  0  0  0  0  0  0  0  0
    9.4450    8.5671    4.1584 H   0  0  0  0  0  0  0  0  0  0  0  0
    7.5143    9.5749    4.9433 H   0  0  0  0  0  0  0  0  0  0  0  0
    5.2177    9.3738    3.1876 H   0  0  0  0  0  0  0  0  0  0  0  0
    5.7355   11.0991    3.2352 H   0  0  0  0  0  0  0  0  0  0  0  0
    4.1557    8.3159    5.4443 H   0  0  0  0  0  0  0  0  0  0  0  0
    3.4981    9.4307    7.7909 H   0  0  0  0  0  0  0  0  0  0  0  0
    5.8854   13.2918    6.4963 H   0  0  0  0  0  0  0  0  0  0  0  0
    6.9558   12.4043    5.3455 H   0  0  0  0  0  0  0  0  0  0  0  0
    5.3997   13.1315    4.7642 H   0  0  0  0  0  0  0  0  0  0  0  0
   10.1851   10.8999    3.8499 H   0  0  0  0  0  0  0  0  0  0  0  0
   10.3600   10.6536    2.0757 H   0  0  0  0  0  0  0  0  0  0  0  0
   12.5384   10.5044    3.1429 H   0  0  0  0  0  0  0  0  0  0  0  0
   11.9731    9.2648    4.3236 H   0  0  0  0  0  0  0  0  0  0  0  0
  1  2  1  0
  2  3  1  0
  2  4  1  0
  4  5  1  0
  5  6  1  0
  6  7  1  0
  7  8  1  0
  8  9  2  0
  8 10  1  0
 10 11  1  0
 11 12  1  0
 12 13  2  0
 13 14  1  0
 14 15  2  0
 15 16  1  0
 16 17  1  0
  7 18  1  0
 18 19  1  0
 19  4  1  0
 16 12  1  0
  1 20  1  0
  1 21  1  0
  1 22  1  0
  2 23  1  0
  3 24  1  0
  3 25  1  0
  3 26  1  0
  4 27  1  0
  5 28  1  0
  5 29  1  0
  6 30  1  0
  6 31  1  0
  7 32  1  0
 10 33  1  0
 11 34  1  0
 11 35  1  0
 13 36  1  0
 14 37  1  0
 17 38  1  0
 17 39  1  0
 17 40  1  0
 18 41  1  0
 18 42  1  0
 19 43  1  0
 19 44  1  0
M  CHG  1   3   1
M  END
>  <EmbedRMS>  (141) 
0.027804703519808214

$$$$

     RDKit          3D

 41 42  0  0  0  0  0  0  0  0999 V2000
   14.0155    7.0452    1.2243 C   0  0  0  0  0  0  0  0  0  0  0  0
   13.6577    8.3402    1.9340 C   0  0  0  0  0  0  0  0  0  0  0  0
   14.6213    8.7734    2.9399 N   0  0  0  0  0  4  0  0  0  0  0  0
   12.1479    8.5868    2.2358 C   0  0  0  0  0  0  0  0  0  0  0  0
   11.2708    7.3634    2.5450 C   0  0  0  0  0  0  0  0  0  0  0  0
    9.7738    7.7130    2.4384 C   0  0  0  0  0  0  0  0  0  0  0  0
    9.4545    9.1902    2.6817 C   0  0  0  0  0  0  0  0  0  0  0  0
    7.9930    9.5119    2.7236 C   0  0  0  0  0  0  0  0  0  0  0  0
    7.4746    9.6077    1.5899 O   0  0  0  0  0  0  0  0  0  0  0  0
    7.1920    9.7025    3.9130 N   0  0  0  0  0  0  0  0  0  0  0  0
    5.8002   10.1396    3.9098 C   0  0  0  0  0  0  0  0  0  0  0  0
    5.1136   10.2622    5.1332 C   0  0  0  0  0  0  0  0  0  0  0  0
    3.7791   10.6918    5.1678 C   0  0  0  0  0  0  0  0  0  0  0  0
    3.1050   10.9965    3.9846 C   0  0  0  0  0  0  0  0  0  0  0  0
    3.7620   10.8848    2.7663 C   0  0  0  0  0  0  0  0  0  0  0  0
    5.0915   10.4774    2.7238 C   0  0  0  0  0  0  0  0  0  0  0  0
   10.4123   10.0785    3.4530 C   0  0  0  0  0  0  0  0  0  0  0  0
   11.8967    9.6862    3.2904 C   0  0  0  0  0  0  0  0  0  0  0  0
   13.3412    6.8748    0.3575 H   0  0  0  0  0  0  0  0  0  0  0  0
   15.0600    7.0795    0.8460 H   0  0  0  0  0  0  0  0  0  0  0  0
   13.9272    6.1936    1.9310 H   0  0  0  0  0  0  0  0  0  0  0  0
   13.8472    9.0661    1.1041 H   0  0  0  0  0  0  0  0  0  0  0  0
   14.4394    8.2635    3.8342 H   0  0  0  0  0  0  0  0  0  0  0  0
   14.5690    9.8041    3.1044 H   0  0  0  0  0  0  0  0  0  0  0  0
   15.5964    8.5564    2.6293 H   0  0  0  0  0  0  0  0  0  0  0  0
   11.7549    8.9789    1.2687 H   0  0  0  0  0  0  0  0  0  0  0  0
   11.4801    6.5302    1.8427 H   0  0  0  0  0  0  0  0  0  0  0  0
   11.5022    7.0014    3.5710 H   0  0  0  0  0  0  0  0  0  0  0  0
    9.3960    7.4069    1.4357 H   0  0  0  0  0  0  0  0  0  0  0  0
    9.2216    7.1022    3.1855 H   0  0  0  0  0  0  0  0  0  0  0  0
    9.7131    9.5882    1.6698 H   0  0  0  0  0  0  0  0  0  0  0  0
    7.6559    9.5263    4.8324 H   0  0  0  0  0  0  0  0  0  0  0  0
    5.6153   10.0259    6.0630 H   0  0  0  0  0  0  0  0  0  0  0  0
    3.2672   10.7820    6.1172 H   0  0  0  0  0  0  0  0  0  0  0  0
    2.0739   11.3242    4.0170 H   0  0  0  0  0  0  0  0  0  0  0  0
    3.2415   11.1383    1.8510 H   0  0  0  0  0  0  0  0  0  0  0  0
    5.5040   10.4952    1.7386 H   0  0  0  0  0  0  0  0  0  0  0  0
   10.1475   10.0136    4.5305 H   0  0  0  0  0  0  0  0  0  0  0  0
   10.2671   11.1433    3.1573 H   0  0  0  0  0  0  0  0  0  0  0  0
   12.4562   10.6027    3.0029 H   0  0  0  0  0  0  0  0  0  0  0  0
   12.2889    9.3466    4.2742 H   0  0  0  0  0  0  0  0  0  0  0  0
  1  2  1  0
  2  3  1  0
  2  4  1  0
  4  5  1  0
  5  6  1  0
  6  7  1  0
  7  8  1  0
  8  9  2  0
  8 10  1  0
 10 11  1  0
 11 12  2  0
 12 13  1  0
 13 14  2  0
 14 15  1  0
 15 16  2  0
  7 17  1  0
 17 18  1  0
 18  4  1  0
 16 11  1  0
  1 19  1  0
  1 20  1  0
  1 21  1  0
  2 22  1  0
  3 23  1  0
  3 24  1  0
  3 25  1  0
  4 26  1  0
  5 27  1  0
  5 28  1  0
  6 29  1  0
  6 30  1  0
  7 31  1  0
 10 32  1  0
 12 33  1  0
 13 34  1  0
 14 35  1  0
 15 36  1  0
 16 37  1  0
 17 38  1  0
 17 39  1  0
 18 40  1  0
 18 41  1  0
M  CHG  1   3   1
M  END
>  <EmbedRMS>  (142) 
0.24964892458419108

$$$$

     RDKit          3D

 41 42  0  0  0  0  0  0  0  0999 V2000
   14.0155    7.0452    1.2243 C   0  0  0  0  0  0  0  0  0  0  0  0
   13.6577    8.3402    1.9340 C   0  0  0  0  0  0  0  0  0  0  0  0
   14.6213    8.7734    2.9399 N   0  0  0  0  0  4  0  0  0  0  0  0
   12.1479    8.5868    2.2358 C   0  0  0  0  0  0  0  0  0  0  0  0
   11.2708    7.3634    2.5450 C   0  0  0  0  0  0  0  0  0  0  0  0
    9.7738    7.7130    2.4384 C   0  0  0  0  0  0  0  0  0  0  0  0
    9.4545    9.1902    2.6817 C   0  0  0  0  0  0  0  0  0  0  0  0
    7.9930    9.5119    2.7236 C   0  0  0  0  0  0  0  0  0  0  0  0
    7.4746    9.6077    1.5899 O   0  0  0  0  0  0  0  0  0  0  0  0
    7.1920    9.7025    3.9130 N   0  0  0  0  0  0  0  0  0  0  0  0
    5.8002   10.1396    3.9098 C   0  0  0  0  0  0  0  0  0  0  0  0
    5.1136   10.2622    5.1332 C   0  0  0  0  0  0  0  0  0  0  0  0
    3.7791   10.6918    5.1678 C   0  0  0  0  0  0  0  0  0  0  0  0
    3.1050   10.9965    3.9846 C   0  0  0  0  0  0  0  0  0  0  0  0
    3.7620   10.8848    2.7663 C   0  0  0  0  0  0  0  0  0  0  0  0
    5.0915   10.4774    2.7238 C   0  0  0  0  0  0  0  0  0  0  0  0
   10.4123   10.0785    3.4530 C   0  0  0  0  0  0  0  0  0  0  0  0
   11.8967    9.6862    3.2904 C   0  0  0  0  0  0  0  0  0  0  0  0
   13.3412    6.8748    0.3575 H   0  0  0  0  0  0  0  0  0  0  0  0
   15.0600    7.0795    0.8460 H   0  0  0  0  0  0  0  0  0  0  0  0
   13.9272    6.1936    1.9310 H   0  0  0  0  0  0  0  0  0  0  0  0
   13.8472    9.0661    1.1041 H   0  0  0  0  0  0  0  0  0  0  0  0
   14.4394    8.2635    3.8342 H   0  0  0  0  0  0  0  0  0  0  0  0
   14.5690    9.8041    3.1044 H   0  0  0  0  0  0  0  0  0  0  0  0
   15.5964    8.5564    2.6293 H   0  0  0  0  0  0  0  0  0  0  0  0
   11.7549    8.9789    1.2687 H   0  0  0  0  0  0  0  0  0  0  0  0
   11.4801    6.5302    1.8427 H   0  0  0  0  0  0  0  0  0  0  0  0
   11.5022    7.0014    3.5710 H   0  0  0  0  0  0  0  0  0  0  0  0
    9.3960    7.4069    1.4357 H   0  0  0  0  0  0  0  0  0  0  0  0
    9.2216    7.1022    3.1855 H   0  0  0  0  0  0  0  0  0  0  0  0
    9.7131    9.5882    1.6698 H   0  0  0  0  0  0  0  0  0  0  0  0
    7.6559    9.5263    4.8324 H   0  0  0  0  0  0  0  0  0  0  0  0
    5.6153   10.0259    6.0630 H   0  0  0  0  0  0  0  0  0  0  0  0
    3.2672   10.7820    6.1172 H   0  0  0  0  0  0  0  0  0  0  0  0
    2.0739   11.3242    4.0170 H   0  0  0  0  0  0  0  0  0  0  0  0
    3.2415   11.1383    1.8510 H   0  0  0  0  0  0  0  0  0  0  0  0
    5.5040   10.4952    1.7386 H   0  0  0  0  0  0  0  0  0  0  0  0
   10.1475   10.0136    4.5305 H   0  0  0  0  0  0  0  0  0  0  0  0
   10.2671   11.1433    3.1573 H   0  0  0  0  0  0  0  0  0  0  0  0
   12.4562   10.6027    3.0029 H   0  0  0  0  0  0  0  0  0  0  0  0
   12.2889    9.3466    4.2742 H   0  0  0  0  0  0  0  0  0  0  0  0
  1  2  1  0
  2  3  1  0
  2  4  1  0
  4  5  1  0
  5  6  1  0
  6  7  1  0
  7  8  1  0
  8  9  2  0
  8 10  1  0
 10 11  1  0
 11 12  2  0
 12 13  1  0
 13 14  2  0
 14 15  1  0
 15 16  2  0
  7 17  1  0
 17 18  1  0
 18  4  1  0
 16 11  1  0
  1 19  1  0
  1 20  1  0
  1 21  1  0
  2 22  1  0
  3 23  1  0
  3 24  1  0
  3 25  1  0
  4 26  1  0
  5 27  1  0
  5 28  1  0
  6 29  1  0
  6 30  1  0
  7 31  1  0
 10 32  1  0
 12 33  1  0
 13 34  1  0
 14 35  1  0
 15 36  1  0
 16 37  1  0
 17 38  1  0
 17 39  1  0
 18 40  1  0
 18 41  1  0
M  CHG  1   3   1
M  END
>  <EmbedRMS>  (143) 
0.24964892458419108

$$$$

     RDKit          3D

 43 44  0  0  0  0  0  0  0  0999 V2000
   14.0276    7.2301    1.0858 C   0  0  0  0  0  0  0  0  0  0  0  0
   13.6459    7.9626    2.3850 C   0  0  0  0  0  0  0  0  0  0  0  0
   14.6273    9.0243    2.6470 N   0  0  0  0  0  4  0  0  0  0  0  0
   12.1819    8.5085    2.2960 C   0  0  0  0  0  0  0  0  0  0  0  0
   11.1978    7.3499    2.5409 C   0  0  0  0  0  0  0  0  0  0  0  0
    9.7345    7.7437    2.3739 C   0  0  0  0  0  0  0  0  0  0  0  0
    9.4500    9.2139    2.6409 C   0  0  0  0  0  0  0  0  0  0  0  0
    7.9871    9.5385    2.7237 C   0  0  0  0  0  0  0  0  0  0  0  0
    7.4165    9.6879    1.6153 O   0  0  0  0  0  0  0  0  0  0  0  0
    7.2149    9.6895    3.9283 N   0  0  0  0  0  0  0  0  0  0  0  0
    5.8138   10.1222    3.8054 C   0  0  0  0  0  0  0  0  0  0  0  0
    5.1472   10.2607    5.1400 C   0  0  0  0  0  0  0  0  0  0  0  0
    4.4718    9.1754    5.7134 C   0  0  0  0  0  0  0  0  0  0  0  0
    3.8687    9.3139    6.9637 C   0  0  0  0  0  0  0  0  0  0  0  0
    3.9494   10.5386    7.6297 C   0  0  0  0  0  0  0  0  0  0  0  0
    4.6077   11.5829    7.0597 N   0  0  0  0  0  0  0  0  0  0  0  0
    5.2027   11.4727    5.8424 C   0  0  0  0  0  0  0  0  0  0  0  0
   10.4185   10.0737    3.4302 C   0  0  0  0  0  0  0  0  0  0  0  0
   11.8964    9.6377    3.3188 C   0  0  0  0  0  0  0  0  0  0  0  0
   13.3803    6.3499    0.9044 H   0  0  0  0  0  0  0  0  0  0  0  0
   13.9572    7.9169    0.2153 H   0  0  0  0  0  0  0  0  0  0  0  0
   15.0709    6.8548    1.1517 H   0  0  0  0  0  0  0  0  0  0  0  0
   13.7144    7.2277    3.2199 H   0  0  0  0  0  0  0  0  0  0  0  0
   15.5990    8.6418    2.5845 H   0  0  0  0  0  0  0  0  0  0  0  0
   14.5149    9.3994    3.6159 H   0  0  0  0  0  0  0  0  0  0  0  0
   14.5263    9.7976    1.9494 H   0  0  0  0  0  0  0  0  0  0  0  0
   12.0112    8.9222    1.2764 H   0  0  0  0  0  0  0  0  0  0  0  0
   11.3979    6.4997    1.8580 H   0  0  0  0  0  0  0  0  0  0  0  0
   11.3436    6.9702    3.5775 H   0  0  0  0  0  0  0  0  0  0  0  0
    9.3957    7.4730    1.3468 H   0  0  0  0  0  0  0  0  0  0  0  0
    9.1283    7.1284    3.0751 H   0  0  0  0  0  0  0  0  0  0  0  0
    9.7095    9.6218    1.6318 H   0  0  0  0  0  0  0  0  0  0  0  0
    7.6566    9.5244    4.8608 H   0  0  0  0  0  0  0  0  0  0  0  0
    5.2544    9.3860    3.1871 H   0  0  0  0  0  0  0  0  0  0  0  0
    5.7751   11.0969    3.2707 H   0  0  0  0  0  0  0  0  0  0  0  0
    4.4175    8.2247    5.1974 H   0  0  0  0  0  0  0  0  0  0  0  0
    3.3461    8.4800    7.4142 H   0  0  0  0  0  0  0  0  0  0  0  0
    3.4872   10.6595    8.6003 H   0  0  0  0  0  0  0  0  0  0  0  0
    5.7224   12.3263    5.4264 H   0  0  0  0  0  0  0  0  0  0  0  0
   10.1212   10.0281    4.5004 H   0  0  0  0  0  0  0  0  0  0  0  0
   10.3159   11.1407    3.1251 H   0  0  0  0  0  0  0  0  0  0  0  0
   12.2359    9.3018    4.3242 H   0  0  0  0  0  0  0  0  0  0  0  0
   12.4950   10.5353    3.0521 H   0  0  0  0  0  0  0  0  0  0  0  0
  1  2  1  0
  2  3  1  0
  2  4  1  0
  4  5  1  0
  5  6  1  0
  6  7  1  0
  7  8  1  0
  8  9  2  0
  8 10  1  0
 10 11  1  0
 11 12  1  0
 12 13  2  0
 13 14  1  0
 14 15  2  0
 15 16  1  0
 16 17  2  0
  7 18  1  0
 18 19  1  0
 19  4  1  0
 17 12  1  0
  1 20  1  0
  1 21  1  0
  1 22  1  0
  2 23  1  0
  3 24  1  0
  3 25  1  0
  3 26  1  0
  4 27  1  0
  5 28  1  0
  5 29  1  0
  6 30  1  0
  6 31  1  0
  7 32  1  0
 10 33  1  0
 11 34  1  0
 11 35  1  0
 13 36  1  0
 14 37  1  0
 15 38  1  0
 17 39  1  0
 18 40  1  0
 18 41  1  0
 19 42  1  0
 19 43  1  0
M  CHG  1   3   1
M  END
>  <EmbedRMS>  (144) 
0.17084101544492625

$$$$

     RDKit          3D

 42 42  0  0  0  0  0  0  0  0999 V2000
    8.6750    8.1658    7.0703 C   0  0  0  0  0  0  0  0  0  0  0  0
    8.3763    8.4580    5.8022 C   0  0  0  0  0  0  0  0  0  0  0  0
    7.3143    9.3915    5.3537 C   0  0  0  0  0  0  0  0  0  0  0  0
    6.4078    9.8578    6.2465 C   0  0  0  0  0  0  0  0  0  0  0  0
    5.2565   10.7471    5.8877 C   0  0  0  0  0  0  0  0  0  0  0  0
    7.1493    9.7152    3.9495 N   0  0  0  0  0  0  0  0  0  0  0  0
    7.9765    9.4983    2.7821 C   0  0  0  0  0  0  0  0  0  0  0  0
    7.4301    9.6608    1.6607 O   0  0  0  0  0  0  0  0  0  0  0  0
    9.4445    9.1811    2.6937 C   0  0  0  0  0  0  0  0  0  0  0  0
    9.7537    7.7156    2.4382 C   0  0  0  0  0  0  0  0  0  0  0  0
   11.2038    7.4507    2.0892 C   0  0  0  0  0  0  0  0  0  0  0  0
   12.2683    8.3270    2.7571 C   0  0  0  0  0  0  0  0  0  0  0  0
   13.6145    8.3244    1.9914 C   0  0  0  0  0  0  0  0  0  0  0  0
   14.0289    7.0506    1.2546 C   0  0  0  0  0  0  0  0  0  0  0  0
   14.7105    8.8911    2.7788 N   0  0  0  0  0  4  0  0  0  0  0  0
   11.8580    9.7797    3.1035 C   0  0  0  0  0  0  0  0  0  0  0  0
   10.4067   10.0105    3.5026 C   0  0  0  0  0  0  0  0  0  0  0  0
    9.4522    7.4407    7.2763 H   0  0  0  0  0  0  0  0  0  0  0  0
    8.2207    8.6429    7.9236 H   0  0  0  0  0  0  0  0  0  0  0  0
    8.9290    7.9270    5.0689 H   0  0  0  0  0  0  0  0  0  0  0  0
    6.4522    9.5905    7.2899 H   0  0  0  0  0  0  0  0  0  0  0  0
    5.6232   11.6730    5.3961 H   0  0  0  0  0  0  0  0  0  0  0  0
    4.7085   11.0385    6.8086 H   0  0  0  0  0  0  0  0  0  0  0  0
    4.5465   10.2109    5.2233 H   0  0  0  0  0  0  0  0  0  0  0  0
    6.2337   10.1339    3.6758 H   0  0  0  0  0  0  0  0  0  0  0  0
    9.6986    9.5966    1.6856 H   0  0  0  0  0  0  0  0  0  0  0  0
    9.1148    7.3426    1.6051 H   0  0  0  0  0  0  0  0  0  0  0  0
    9.4972    7.0769    3.2974 H   0  0  0  0  0  0  0  0  0  0  0  0
   11.2718    7.6249    0.9927 H   0  0  0  0  0  0  0  0  0  0  0  0
   11.4331    6.3748    2.2587 H   0  0  0  0  0  0  0  0  0  0  0  0
   12.4573    7.8339    3.7373 H   0  0  0  0  0  0  0  0  0  0  0  0
   13.4588    9.0294    1.1415 H   0  0  0  0  0  0  0  0  0  0  0  0
   14.1162    6.2135    1.9787 H   0  0  0  0  0  0  0  0  0  0  0  0
   13.3003    6.7723    0.4659 H   0  0  0  0  0  0  0  0  0  0  0  0
   15.0110    7.1880    0.7539 H   0  0  0  0  0  0  0  0  0  0  0  0
   14.5373    9.8979    2.9966 H   0  0  0  0  0  0  0  0  0  0  0  0
   15.6086    8.8475    2.2446 H   0  0  0  0  0  0  0  0  0  0  0  0
   14.8256    8.3542    3.6688 H   0  0  0  0  0  0  0  0  0  0  0  0
   12.4979   10.1655    3.9267 H   0  0  0  0  0  0  0  0  0  0  0  0
   12.0458   10.4293    2.2200 H   0  0  0  0  0  0  0  0  0  0  0  0
   10.1603   11.0919    3.4053 H   0  0  0  0  0  0  0  0  0  0  0  0
   10.3056    9.7529    4.5738 H   0  0  0  0  0  0  0  0  0  0  0  0
  1  2  2  3
  2  3  1  0
  3  4  2  3
  4  5  1  0
  3  6  1  0
  6  7  1  0
  7  8  2  0
  7  9  1  0
  9 10  1  0
 10 11  1  0
 11 12  1  0
 12 13  1  0
 13 14  1  0
 13 15  1  0
 12 16  1  0
 16 17  1  0
 17  9  1  0
  1 18  1  0
  1 19  1  0
  2 20  1  0
  4 21  1  0
  5 22  1  0
  5 23  1  0
  5 24  1  0
  6 25  1  0
  9 26  1  0
 10 27  1  0
 10 28  1  0
 11 29  1  0
 11 30  1  0
 12 31  1  0
 13 32  1  0
 14 33  1  0
 14 34  1  0
 14 35  1  0
 15 36  1  0
 15 37  1  0
 15 38  1  0
 16 39  1  0
 16 40  1  0
 17 41  1  0
 17 42  1  0
M  CHG  1  15   1
M  END
>  <EmbedRMS>  (145) 
0.29216731409503444

$$$$

     RDKit          3D

 43 44  0  0  0  0  0  0  0  0999 V2000
   14.0274    7.2302    1.0860 C   0  0  0  0  0  0  0  0  0  0  0  0
   13.6456    7.9627    2.3851 C   0  0  0  0  0  0  0  0  0  0  0  0
   14.6270    9.0245    2.6471 N   0  0  0  0  0  4  0  0  0  0  0  0
   12.1816    8.5087    2.2960 C   0  0  0  0  0  0  0  0  0  0  0  0
   11.1974    7.3502    2.5406 C   0  0  0  0  0  0  0  0  0  0  0  0
    9.7340    7.7442    2.3733 C   0  0  0  0  0  0  0  0  0  0  0  0
    9.4495    9.2146    2.6391 C   0  0  0  0  0  0  0  0  0  0  0  0
    7.9864    9.5394    2.7229 C   0  0  0  0  0  0  0  0  0  0  0  0
    7.4139    9.6888    1.6157 O   0  0  0  0  0  0  0  0  0  0  0  0
    7.2172    9.6900    3.9288 N   0  0  0  0  0  0  0  0  0  0  0  0
    5.8107   10.1121    3.8147 C   0  0  0  0  0  0  0  0  0  0  0  0
    5.1387   10.2967    5.1721 C   0  0  0  0  0  0  0  0  0  0  0  0
    5.7077   11.4401    5.8728 N   0  0  0  0  0  0  0  0  0  0  0  0
    5.4081   12.7405    5.7163 C   0  0  0  0  0  0  0  0  0  0  0  0
    6.1845   13.5047    6.5072 N   0  0  0  0  0  0  0  0  0  0  0  0
    6.9934   12.6873    7.1688 N   0  0  0  0  0  0  0  0  0  0  0  0
    6.7014   11.4346    6.7748 C   0  0  0  0  0  0  0  0  0  0  0  0
   10.4178   10.0739    3.4296 C   0  0  0  0  0  0  0  0  0  0  0  0
   11.8958    9.6378    3.3188 C   0  0  0  0  0  0  0  0  0  0  0  0
   13.9569    7.9169    0.2154 H   0  0  0  0  0  0  0  0  0  0  0  0
   13.3802    6.3499    0.9047 H   0  0  0  0  0  0  0  0  0  0  0  0
   15.0708    6.8551    1.1519 H   0  0  0  0  0  0  0  0  0  0  0  0
   13.7140    7.2279    3.2201 H   0  0  0  0  0  0  0  0  0  0  0  0
   14.5145    9.3995    3.6160 H   0  0  0  0  0  0  0  0  0  0  0  0
   14.5261    9.7977    1.9496 H   0  0  0  0  0  0  0  0  0  0  0  0
   15.5987    8.6419    2.5848 H   0  0  0  0  0  0  0  0  0  0  0  0
   12.0111    8.9225    1.2764 H   0  0  0  0  0  0  0  0  0  0  0  0
   11.3429    6.9704    3.5772 H   0  0  0  0  0  0  0  0  0  0  0  0
   11.3976    6.5001    1.8577 H   0  0  0  0  0  0  0  0  0  0  0  0
    9.3952    7.4728    1.3463 H   0  0  0  0  0  0  0  0  0  0  0  0
    9.1277    7.1294    3.0748 H   0  0  0  0  0  0  0  0  0  0  0  0
    9.7086    9.6225    1.6300 H   0  0  0  0  0  0  0  0  0  0  0  0
    7.6632    9.5103    4.8558 H   0  0  0  0  0  0  0  0  0  0  0  0
    5.7520   11.0673    3.2479 H   0  0  0  0  0  0  0  0  0  0  0  0
    5.2475    9.3395    3.2474 H   0  0  0  0  0  0  0  0  0  0  0  0
    5.2584    9.3748    5.7825 H   0  0  0  0  0  0  0  0  0  0  0  0
    4.0500   10.4636    5.0213 H   0  0  0  0  0  0  0  0  0  0  0  0
    4.6523   13.1246    5.0437 H   0  0  0  0  0  0  0  0  0  0  0  0
    7.2035   10.5473    7.1380 H   0  0  0  0  0  0  0  0  0  0  0  0
   10.3154   11.1410    3.1248 H   0  0  0  0  0  0  0  0  0  0  0  0
   10.1198   10.0281    4.4996 H   0  0  0  0  0  0  0  0  0  0  0  0
   12.2349    9.3019    4.3242 H   0  0  0  0  0  0  0  0  0  0  0  0
   12.4946   10.5354    3.0524 H   0  0  0  0  0  0  0  0  0  0  0  0
  1  2  1  0
  2  3  1  0
  2  4  1  0
  4  5  1  0
  5  6  1  0
  6  7  1  0
  7  8  1  0
  8  9  2  0
  8 10  1  0
 10 11  1  0
 11 12  1  0
 12 13  1  0
 13 14  1  0
 14 15  2  0
 15 16  1  0
 16 17  2  0
  7 18  1  0
 18 19  1  0
 19  4  1  0
 17 13  1  0
  1 20  1  0
  1 21  1  0
  1 22  1  0
  2 23  1  0
  3 24  1  0
  3 25  1  0
  3 26  1  0
  4 27  1  0
  5 28  1  0
  5 29  1  0
  6 30  1  0
  6 31  1  0
  7 32  1  0
 10 33  1  0
 11 34  1  0
 11 35  1  0
 12 36  1  0
 12 37  1  0
 14 38  1  0
 17 39  1  0
 18 40  1  0
 18 41  1  0
 19 42  1  0
 19 43  1  0
M  CHG  1   3   1
M  END
>  <EmbedRMS>  (146) 
0.17151622795060717

$$$$

     RDKit          3D

 40 40  0  0  0  0  0  0  0  0999 V2000
    5.5407   11.6180    3.6554 C   0  0  0  0  0  0  0  0  0  0  0  0
    5.8058   10.1638    3.3935 C   0  0  0  0  0  0  0  0  0  0  0  0
    4.7538    9.0949    3.4999 C   0  0  0  0  0  0  0  0  0  0  0  0
    7.1646    9.7213    3.7622 N   0  0  0  0  0  0  0  0  0  0  0  0
    8.0477    9.5200    2.6445 C   0  0  0  0  0  0  0  0  0  0  0  0
    7.5830    9.6174    1.4822 O   0  0  0  0  0  0  0  0  0  0  0  0
    9.4927    9.1844    2.6542 C   0  0  0  0  0  0  0  0  0  0  0  0
    9.7616    7.7064    2.5582 C   0  0  0  0  0  0  0  0  0  0  0  0
   11.1938    7.4035    2.1625 C   0  0  0  0  0  0  0  0  0  0  0  0
   12.2467    8.2884    2.8294 C   0  0  0  0  0  0  0  0  0  0  0  0
   13.7211    7.9200    2.4417 C   0  0  0  0  0  0  0  0  0  0  0  0
   13.9297    7.3296    1.0369 C   0  0  0  0  0  0  0  0  0  0  0  0
   14.6532    9.0282    2.6670 N   0  0  0  0  0  4  0  0  0  0  0  0
   11.8971    9.7807    3.0224 C   0  0  0  0  0  0  0  0  0  0  0  0
   10.4425   10.0439    3.4437 C   0  0  0  0  0  0  0  0  0  0  0  0
    5.5188   11.7897    4.7518 H   0  0  0  0  0  0  0  0  0  0  0  0
    4.5582   11.9308    3.2364 H   0  0  0  0  0  0  0  0  0  0  0  0
    6.3437   12.2510    3.2170 H   0  0  0  0  0  0  0  0  0  0  0  0
    5.7140   10.2669    2.2952 H   0  0  0  0  0  0  0  0  0  0  0  0
    5.0730    8.1743    2.9631 H   0  0  0  0  0  0  0  0  0  0  0  0
    4.6011    8.8424    4.5699 H   0  0  0  0  0  0  0  0  0  0  0  0
    3.7828    9.4433    3.0829 H   0  0  0  0  0  0  0  0  0  0  0  0
    7.4775    9.6222    4.7533 H   0  0  0  0  0  0  0  0  0  0  0  0
    9.8037    9.5074    1.6267 H   0  0  0  0  0  0  0  0  0  0  0  0
    9.0743    7.2236    1.8269 H   0  0  0  0  0  0  0  0  0  0  0  0
    9.5619    7.2532    3.5538 H   0  0  0  0  0  0  0  0  0  0  0  0
   11.2595    7.5502    1.0627 H   0  0  0  0  0  0  0  0  0  0  0  0
   11.4058    6.3313    2.3716 H   0  0  0  0  0  0  0  0  0  0  0  0
   12.1870    7.9396    3.8879 H   0  0  0  0  0  0  0  0  0  0  0  0
   14.0315    7.0958    3.1273 H   0  0  0  0  0  0  0  0  0  0  0  0
   13.5712    8.0448    0.2667 H   0  0  0  0  0  0  0  0  0  0  0  0
   15.0067    7.1259    0.8564 H   0  0  0  0  0  0  0  0  0  0  0  0
   13.3906    6.3656    0.9259 H   0  0  0  0  0  0  0  0  0  0  0  0
   15.6338    8.7137    2.4825 H   0  0  0  0  0  0  0  0  0  0  0  0
   14.6153    9.3357    3.6654 H   0  0  0  0  0  0  0  0  0  0  0  0
   14.4385    9.8295    2.0304 H   0  0  0  0  0  0  0  0  0  0  0  0
   12.5558   10.2477    3.7848 H   0  0  0  0  0  0  0  0  0  0  0  0
   12.0785   10.3039    2.0584 H   0  0  0  0  0  0  0  0  0  0  0  0
   10.2028   11.1216    3.3039 H   0  0  0  0  0  0  0  0  0  0  0  0
   10.3242    9.8024    4.5222 H   0  0  0  0  0  0  0  0  0  0  0  0
  1  2  1  0
  2  3  1  0
  2  4  1  0
  4  5  1  0
  5  6  2  0
  5  7  1  0
  7  8  1  0
  8  9  1  0
  9 10  1  0
 10 11  1  0
 11 12  1  0
 11 13  1  0
 10 14  1  0
 14 15  1  0
 15  7  1  0
  1 16  1  0
  1 17  1  0
  1 18  1  0
  2 19  1  0
  3 20  1  0
  3 21  1  0
  3 22  1  0
  4 23  1  0
  7 24  1  0
  8 25  1  0
  8 26  1  0
  9 27  1  0
  9 28  1  0
 10 29  1  0
 11 30  1  0
 12 31  1  0
 12 32  1  0
 12 33  1  0
 13 34  1  0
 13 35  1  0
 13 36  1  0
 14 37  1  0
 14 38  1  0
 15 39  1  0
 15 40  1  0
M  CHG  1  13   1
M  END
>  <EmbedRMS>  (147) 
0.35838126622633487

$$$$

     RDKit          3D

 41 42  0  0  0  0  0  0  0  0999 V2000
   14.0155    7.0452    1.2243 C   0  0  0  0  0  0  0  0  0  0  0  0
   13.6577    8.3402    1.9340 C   0  0  0  0  0  0  0  0  0  0  0  0
   14.6213    8.7734    2.9399 N   0  0  0  0  0  4  0  0  0  0  0  0
   12.1479    8.5868    2.2358 C   0  0  0  0  0  0  0  0  0  0  0  0
   11.2708    7.3634    2.5450 C   0  0  0  0  0  0  0  0  0  0  0  0
    9.7738    7.7130    2.4384 C   0  0  0  0  0  0  0  0  0  0  0  0
    9.4545    9.1902    2.6817 C   0  0  0  0  0  0  0  0  0  0  0  0
    7.9930    9.5119    2.7236 C   0  0  0  0  0  0  0  0  0  0  0  0
    7.4746    9.6077    1.5899 O   0  0  0  0  0  0  0  0  0  0  0  0
    7.1920    9.7025    3.9130 N   0  0  0  0  0  0  0  0  0  0  0  0
    5.8002   10.1396    3.9098 C   0  0  0  0  0  0  0  0  0  0  0  0
    5.1136   10.2622    5.1332 C   0  0  0  0  0  0  0  0  0  0  0  0
    3.7791   10.6918    5.1678 C   0  0  0  0  0  0  0  0  0  0  0  0
    3.1050   10.9965    3.9846 C   0  0  0  0  0  0  0  0  0  0  0  0
    3.7620   10.8848    2.7663 C   0  0  0  0  0  0  0  0  0  0  0  0
    5.0915   10.4774    2.7238 C   0  0  0  0  0  0  0  0  0  0  0  0
   10.4123   10.0785    3.4530 C   0  0  0  0  0  0  0  0  0  0  0  0
   11.8967    9.6862    3.2904 C   0  0  0  0  0  0  0  0  0  0  0  0
   13.3412    6.8748    0.3575 H   0  0  0  0  0  0  0  0  0  0  0  0
   15.0600    7.0795    0.8460 H   0  0  0  0  0  0  0  0  0  0  0  0
   13.9272    6.1936    1.9310 H   0  0  0  0  0  0  0  0  0  0  0  0
   13.8472    9.0661    1.1041 H   0  0  0  0  0  0  0  0  0  0  0  0
   14.4394    8.2635    3.8342 H   0  0  0  0  0  0  0  0  0  0  0  0
   14.5690    9.8041    3.1044 H   0  0  0  0  0  0  0  0  0  0  0  0
   15.5964    8.5564    2.6293 H   0  0  0  0  0  0  0  0  0  0  0  0
   11.7549    8.9789    1.2687 H   0  0  0  0  0  0  0  0  0  0  0  0
   11.4801    6.5302    1.8427 H   0  0  0  0  0  0  0  0  0  0  0  0
   11.5022    7.0014    3.5710 H   0  0  0  0  0  0  0  0  0  0  0  0
    9.3960    7.4069    1.4357 H   0  0  0  0  0  0  0  0  0  0  0  0
    9.2216    7.1022    3.1855 H   0  0  0  0  0  0  0  0  0  0  0  0
    9.7131    9.5882    1.6698 H   0  0  0  0  0  0  0  0  0  0  0  0
    7.6559    9.5263    4.8324 H   0  0  0  0  0  0  0  0  0  0  0  0
    5.6153   10.0259    6.0630 H   0  0  0  0  0  0  0  0  0  0  0  0
    3.2672   10.7820    6.1172 H   0  0  0  0  0  0  0  0  0  0  0  0
    2.0739   11.3242    4.0170 H   0  0  0  0  0  0  0  0  0  0  0  0
    3.2415   11.1383    1.8510 H   0  0  0  0  0  0  0  0  0  0  0  0
    5.5040   10.4952    1.7386 H   0  0  0  0  0  0  0  0  0  0  0  0
   10.1475   10.0136    4.5305 H   0  0  0  0  0  0  0  0  0  0  0  0
   10.2671   11.1433    3.1573 H   0  0  0  0  0  0  0  0  0  0  0  0
   12.4562   10.6027    3.0029 H   0  0  0  0  0  0  0  0  0  0  0  0
   12.2889    9.3466    4.2742 H   0  0  0  0  0  0  0  0  0  0  0  0
  1  2  1  0
  2  3  1  0
  2  4  1  0
  4  5  1  0
  5  6  1  0
  6  7  1  0
  7  8  1  0
  8  9  2  0
  8 10  1  0
 10 11  1  0
 11 12  2  0
 12 13  1  0
 13 14  2  0
 14 15  1  0
 15 16  2  0
  7 17  1  0
 17 18  1  0
 18  4  1  0
 16 11  1  0
  1 19  1  0
  1 20  1  0
  1 21  1  0
  2 22  1  0
  3 23  1  0
  3 24  1  0
  3 25  1  0
  4 26  1  0
  5 27  1  0
  5 28  1  0
  6 29  1  0
  6 30  1  0
  7 31  1  0
 10 32  1  0
 12 33  1  0
 13 34  1  0
 14 35  1  0
 15 36  1  0
 16 37  1  0
 17 38  1  0
 17 39  1  0
 18 40  1  0
 18 41  1  0
M  CHG  1   3   1
M  END
>  <EmbedRMS>  (148) 
0.24964892458419108

$$$$

     RDKit          3D

 43 44  0  0  0  0  0  0  0  0999 V2000
   14.0276    7.2301    1.0858 C   0  0  0  0  0  0  0  0  0  0  0  0
   13.6459    7.9626    2.3850 C   0  0  0  0  0  0  0  0  0  0  0  0
   14.6273    9.0243    2.6470 N   0  0  0  0  0  4  0  0  0  0  0  0
   12.1819    8.5085    2.2960 C   0  0  0  0  0  0  0  0  0  0  0  0
   11.1978    7.3499    2.5409 C   0  0  0  0  0  0  0  0  0  0  0  0
    9.7345    7.7437    2.3739 C   0  0  0  0  0  0  0  0  0  0  0  0
    9.4500    9.2139    2.6409 C   0  0  0  0  0  0  0  0  0  0  0  0
    7.9871    9.5385    2.7237 C   0  0  0  0  0  0  0  0  0  0  0  0
    7.4165    9.6879    1.6153 O   0  0  0  0  0  0  0  0  0  0  0  0
    7.2149    9.6895    3.9283 N   0  0  0  0  0  0  0  0  0  0  0  0
    5.8138   10.1222    3.8054 C   0  0  0  0  0  0  0  0  0  0  0  0
    5.1472   10.2607    5.1400 C   0  0  0  0  0  0  0  0  0  0  0  0
    4.4718    9.1754    5.7134 C   0  0  0  0  0  0  0  0  0  0  0  0
    3.8687    9.3139    6.9637 C   0  0  0  0  0  0  0  0  0  0  0  0
    3.9494   10.5386    7.6297 C   0  0  0  0  0  0  0  0  0  0  0  0
    4.6077   11.5829    7.0597 N   0  0  0  0  0  0  0  0  0  0  0  0
    5.2027   11.4727    5.8424 C   0  0  0  0  0  0  0  0  0  0  0  0
   10.4185   10.0737    3.4302 C   0  0  0  0  0  0  0  0  0  0  0  0
   11.8964    9.6377    3.3188 C   0  0  0  0  0  0  0  0  0  0  0  0
   13.3803    6.3499    0.9044 H   0  0  0  0  0  0  0  0  0  0  0  0
   13.9572    7.9169    0.2153 H   0  0  0  0  0  0  0  0  0  0  0  0
   15.0709    6.8548    1.1517 H   0  0  0  0  0  0  0  0  0  0  0  0
   13.7144    7.2277    3.2199 H   0  0  0  0  0  0  0  0  0  0  0  0
   15.5990    8.6418    2.5845 H   0  0  0  0  0  0  0  0  0  0  0  0
   14.5149    9.3994    3.6159 H   0  0  0  0  0  0  0  0  0  0  0  0
   14.5263    9.7976    1.9494 H   0  0  0  0  0  0  0  0  0  0  0  0
   12.0112    8.9222    1.2764 H   0  0  0  0  0  0  0  0  0  0  0  0
   11.3979    6.4997    1.8580 H   0  0  0  0  0  0  0  0  0  0  0  0
   11.3436    6.9702    3.5775 H   0  0  0  0  0  0  0  0  0  0  0  0
    9.3957    7.4730    1.3468 H   0  0  0  0  0  0  0  0  0  0  0  0
    9.1283    7.1284    3.0751 H   0  0  0  0  0  0  0  0  0  0  0  0
    9.7095    9.6218    1.6318 H   0  0  0  0  0  0  0  0  0  0  0  0
    7.6566    9.5244    4.8608 H   0  0  0  0  0  0  0  0  0  0  0  0
    5.2544    9.3860    3.1871 H   0  0  0  0  0  0  0  0  0  0  0  0
    5.7751   11.0969    3.2707 H   0  0  0  0  0  0  0  0  0  0  0  0
    4.4175    8.2247    5.1974 H   0  0  0  0  0  0  0  0  0  0  0  0
    3.3461    8.4800    7.4142 H   0  0  0  0  0  0  0  0  0  0  0  0
    3.4872   10.6595    8.6003 H   0  0  0  0  0  0  0  0  0  0  0  0
    5.7224   12.3263    5.4264 H   0  0  0  0  0  0  0  0  0  0  0  0
   10.1212   10.0281    4.5004 H   0  0  0  0  0  0  0  0  0  0  0  0
   10.3159   11.1407    3.1251 H   0  0  0  0  0  0  0  0  0  0  0  0
   12.2359    9.3018    4.3242 H   0  0  0  0  0  0  0  0  0  0  0  0
   12.4950   10.5353    3.0521 H   0  0  0  0  0  0  0  0  0  0  0  0
  1  2  1  0
  2  3  1  0
  2  4  1  0
  4  5  1  0
  5  6  1  0
  6  7  1  0
  7  8  1  0
  8  9  2  0
  8 10  1  0
 10 11  1  0
 11 12  1  0
 12 13  2  0
 13 14  1  0
 14 15  2  0
 15 16  1  0
 16 17  2  0
  7 18  1  0
 18 19  1  0
 19  4  1  0
 17 12  1  0
  1 20  1  0
  1 21  1  0
  1 22  1  0
  2 23  1  0
  3 24  1  0
  3 25  1  0
  3 26  1  0
  4 27  1  0
  5 28  1  0
  5 29  1  0
  6 30  1  0
  6 31  1  0
  7 32  1  0
 10 33  1  0
 11 34  1  0
 11 35  1  0
 13 36  1  0
 14 37  1  0
 15 38  1  0
 17 39  1  0
 18 40  1  0
 18 41  1  0
 19 42  1  0
 19 43  1  0
M  CHG  1   3   1
M  END
>  <EmbedRMS>  (149) 
0.17084101544492625

$$$$

     RDKit          3D

 39 40  0  0  0  0  0  0  0  0999 V2000
   14.0110    7.0511    1.2526 C   0  0  0  0  0  0  0  0  0  0  0  0
   13.6007    8.3248    1.9901 C   0  0  0  0  0  0  0  0  0  0  0  0
   14.7033    8.8921    2.7690 N   0  0  0  0  0  4  0  0  0  0  0  0
   12.2625    8.3270    2.7691 C   0  0  0  0  0  0  0  0  0  0  0  0
   11.1802    7.4398    2.1370 C   0  0  0  0  0  0  0  0  0  0  0  0
    9.7464    7.7250    2.5506 C   0  0  0  0  0  0  0  0  0  0  0  0
    9.4528    9.2006    2.6508 C   0  0  0  0  0  0  0  0  0  0  0  0
    7.9907    9.5272    2.7197 C   0  0  0  0  0  0  0  0  0  0  0  0
    7.4511    9.6605    1.5982 O   0  0  0  0  0  0  0  0  0  0  0  0
    7.2032    9.6917    3.9188 N   0  0  0  0  0  0  0  0  0  0  0  0
    5.8190   10.1244    3.8864 C   0  0  0  0  0  0  0  0  0  0  0  0
    5.0492   10.4501    2.7707 C   0  0  0  0  0  0  0  0  0  0  0  0
    3.8118   10.8137    3.2504 C   0  0  0  0  0  0  0  0  0  0  0  0
    3.7917   10.7296    4.5924 N   0  0  0  0  0  0  0  0  0  0  0  0
    5.0092   10.3116    4.9903 C   0  0  0  0  0  0  0  0  0  0  0  0
   10.3879   10.0193    3.4937 C   0  0  0  0  0  0  0  0  0  0  0  0
   11.8511    9.7804    3.1265 C   0  0  0  0  0  0  0  0  0  0  0  0
   13.2659    6.7648    0.4822 H   0  0  0  0  0  0  0  0  0  0  0  0
   14.9817    7.1940    0.7316 H   0  0  0  0  0  0  0  0  0  0  0  0
   14.1182    6.2183    1.9789 H   0  0  0  0  0  0  0  0  0  0  0  0
   13.4353    9.0292    1.1418 H   0  0  0  0  0  0  0  0  0  0  0  0
   14.5218    9.8930    3.0061 H   0  0  0  0  0  0  0  0  0  0  0  0
   15.5925    8.8665    2.2188 H   0  0  0  0  0  0  0  0  0  0  0  0
   14.8389    8.3426    3.6484 H   0  0  0  0  0  0  0  0  0  0  0  0
   12.4711    7.8390    3.7480 H   0  0  0  0  0  0  0  0  0  0  0  0
   11.2117    7.5939    1.0361 H   0  0  0  0  0  0  0  0  0  0  0  0
   11.4077    6.3669    2.3236 H   0  0  0  0  0  0  0  0  0  0  0  0
    9.0547    7.2379    1.8268 H   0  0  0  0  0  0  0  0  0  0  0  0
    9.5649    7.2656    3.5467 H   0  0  0  0  0  0  0  0  0  0  0  0
    9.7356    9.5600    1.6294 H   0  0  0  0  0  0  0  0  0  0  0  0
    7.6552    9.5149    4.8435 H   0  0  0  0  0  0  0  0  0  0  0  0
    5.3065   10.4537    1.7245 H   0  0  0  0  0  0  0  0  0  0  0  0
    2.9693   11.1301    2.6494 H   0  0  0  0  0  0  0  0  0  0  0  0
    2.9817   10.9503    5.2127 H   0  0  0  0  0  0  0  0  0  0  0  0
    5.2923   10.1545    6.0229 H   0  0  0  0  0  0  0  0  0  0  0  0
   10.1492   11.1022    3.3982 H   0  0  0  0  0  0  0  0  0  0  0  0
   10.2369    9.7340    4.5575 H   0  0  0  0  0  0  0  0  0  0  0  0
   12.4748   10.1510    3.9689 H   0  0  0  0  0  0  0  0  0  0  0  0
   12.0642   10.4412    2.2573 H   0  0  0  0  0  0  0  0  0  0  0  0
  1  2  1  0
  2  3  1  0
  2  4  1  0
  4  5  1  0
  5  6  1  0
  6  7  1  0
  7  8  1  0
  8  9  2  0
  8 10  1  0
 10 11  1  0
 11 12  1  0
 12 13  2  0
 13 14  1  0
 14 15  1  0
  7 16  1  0
 16 17  1  0
 17  4  1  0
 15 11  2  0
  1 18  1  0
  1 19  1  0
  1 20  1  0
  2 21  1  0
  3 22  1  0
  3 23  1  0
  3 24  1  0
  4 25  1  0
  5 26  1  0
  5 27  1  0
  6 28  1  0
  6 29  1  0
  7 30  1  0
 10 31  1  0
 12 32  1  0
 13 33  1  0
 14 34  1  0
 15 35  1  0
 16 36  1  0
 16 37  1  0
 17 38  1  0
 17 39  1  0
M  CHG  1   3   1
M  END
>  <EmbedRMS>  (150) 
0.3005329260886256

$$$$

     RDKit          3D

 40 41  0  0  0  0  0  0  0  0999 V2000
   13.9332    7.3332    1.0251 C   0  0  0  0  0  0  0  0  0  0  0  0
   13.7125    7.9146    2.4297 C   0  0  0  0  0  0  0  0  0  0  0  0
   14.6504    9.0165    2.6726 N   0  0  0  0  0  4  0  0  0  0  0  0
   12.2364    8.2979    2.7979 C   0  0  0  0  0  0  0  0  0  0  0  0
   11.1515    7.3120    2.3262 C   0  0  0  0  0  0  0  0  0  0  0  0
    9.7912    7.9324    2.0765 C   0  0  0  0  0  0  0  0  0  0  0  0
    9.4261    8.9806    3.1220 C   0  0  0  0  0  0  0  0  0  0  0  0
    8.0225    9.4639    2.8667 C   0  0  0  0  0  0  0  0  0  0  0  0
    7.6546    9.6768    1.6802 O   0  0  0  0  0  0  0  0  0  0  0  0
    7.1435    9.7011    3.9767 N   0  0  0  0  0  0  0  0  0  0  0  0
    5.7719   10.1423    3.9218 C   0  0  0  0  0  0  0  0  0  0  0  0
    5.0682   10.2866    5.1272 C   0  0  0  0  0  0  0  0  0  0  0  0
    3.7425   10.7162    5.1245 C   0  0  0  0  0  0  0  0  0  0  0  0
    3.1199   11.0021    3.9115 C   0  0  0  0  0  0  0  0  0  0  0  0
    3.8030   10.8612    2.7487 N   0  0  0  0  0  0  0  0  0  0  0  0
    5.0935   10.4449    2.7201 C   0  0  0  0  0  0  0  0  0  0  0  0
   10.3969   10.1658    3.0679 C   0  0  0  0  0  0  0  0  0  0  0  0
   11.8884    9.7884    2.9926 C   0  0  0  0  0  0  0  0  0  0  0  0
   13.4390    7.9746    0.2649 H   0  0  0  0  0  0  0  0  0  0  0  0
   13.5402    6.2972    0.9560 H   0  0  0  0  0  0  0  0  0  0  0  0
   15.0172    7.2785    0.7884 H   0  0  0  0  0  0  0  0  0  0  0  0
   14.0108    7.0845    3.1148 H   0  0  0  0  0  0  0  0  0  0  0  0
   14.5446    9.3791    3.6472 H   0  0  0  0  0  0  0  0  0  0  0  0
   14.5091    9.7874    1.9809 H   0  0  0  0  0  0  0  0  0  0  0  0
   15.6338    8.6709    2.5809 H   0  0  0  0  0  0  0  0  0  0  0  0
   12.2424    8.0318    3.8833 H   0  0  0  0  0  0  0  0  0  0  0  0
   11.4353    6.8245    1.3751 H   0  0  0  0  0  0  0  0  0  0  0  0
   11.0353    6.4818    3.0616 H   0  0  0  0  0  0  0  0  0  0  0  0
    9.8005    8.4008    1.0657 H   0  0  0  0  0  0  0  0  0  0  0  0
    9.0262    7.1237    2.0652 H   0  0  0  0  0  0  0  0  0  0  0  0
    9.4833    8.5087    4.1284 H   0  0  0  0  0  0  0  0  0  0  0  0
    7.5457    9.5319    4.9268 H   0  0  0  0  0  0  0  0  0  0  0  0
    5.5478   10.0665    6.0729 H   0  0  0  0  0  0  0  0  0  0  0  0
    3.2017   10.8271    6.0555 H   0  0  0  0  0  0  0  0  0  0  0  0
    2.0913   11.3366    3.8945 H   0  0  0  0  0  0  0  0  0  0  0  0
    5.5409   10.3704    1.7502 H   0  0  0  0  0  0  0  0  0  0  0  0
   10.1534   10.7936    2.1801 H   0  0  0  0  0  0  0  0  0  0  0  0
   10.2256   10.8070    3.9610 H   0  0  0  0  0  0  0  0  0  0  0  0
   12.3112   10.3420    2.1274 H   0  0  0  0  0  0  0  0  0  0  0  0
   12.4001   10.1967    3.8942 H   0  0  0  0  0  0  0  0  0  0  0  0
  1  2  1  0
  2  3  1  0
  2  4  1  0
  4  5  1  0
  5  6  1  0
  6  7  1  0
  7  8  1  0
  8  9  2  0
  8 10  1  0
 10 11  1  0
 11 12  2  0
 12 13  1  0
 13 14  2  0
 14 15  1  0
 15 16  2  0
  7 17  1  0
 17 18  1  0
 18  4  1  0
 16 11  1  0
  1 19  1  0
  1 20  1  0
  1 21  1  0
  2 22  1  0
  3 23  1  0
  3 24  1  0
  3 25  1  0
  4 26  1  0
  5 27  1  0
  5 28  1  0
  6 29  1  0
  6 30  1  0
  7 31  1  0
 10 32  1  0
 12 33  1  0
 13 34  1  0
 14 35  1  0
 16 36  1  0
 17 37  1  0
 17 38  1  0
 18 39  1  0
 18 40  1  0
M  CHG  1   3   1
M  END
>  <EmbedRMS>  (151) 
0.16496192233382964

$$$$

     RDKit          3D

 41 42  0  0  0  0  0  0  0  0999 V2000
   13.9848    7.0986    1.1851 C   0  0  0  0  0  0  0  0  0  0  0  0
   13.5818    8.3571    1.9535 C   0  0  0  0  0  0  0  0  0  0  0  0
   14.7125    8.8837    2.7300 N   0  0  0  0  0  4  0  0  0  0  0  0
   12.2774    8.3210    2.7736 C   0  0  0  0  0  0  0  0  0  0  0  0
   11.1608    7.3109    2.3965 C   0  0  0  0  0  0  0  0  0  0  0  0
    9.8027    7.9207    2.0828 C   0  0  0  0  0  0  0  0  0  0  0  0
    9.4191    8.9871    3.1060 C   0  0  0  0  0  0  0  0  0  0  0  0
    8.0160    9.4679    2.8600 C   0  0  0  0  0  0  0  0  0  0  0  0
    7.6248    9.6823    1.6801 O   0  0  0  0  0  0  0  0  0  0  0  0
    7.1498    9.7002    3.9783 N   0  0  0  0  0  0  0  0  0  0  0  0
    5.7892   10.1357    3.8873 C   0  0  0  0  0  0  0  0  0  0  0  0
    5.0500   10.4463    2.7574 C   0  0  0  0  0  0  0  0  0  0  0  0
    3.8154   10.8163    3.1459 N   0  0  0  0  0  0  0  0  0  0  0  0
    3.7653   10.7356    4.4672 N   0  0  0  0  0  0  0  0  0  0  0  0
    2.5952   11.0848    5.2570 C   0  0  0  0  0  0  0  0  0  0  0  0
    4.9506   10.3352    4.9580 C   0  0  0  0  0  0  0  0  0  0  0  0
   10.3996   10.1503    3.0069 C   0  0  0  0  0  0  0  0  0  0  0  0
   11.8338    9.7186    3.3047 C   0  0  0  0  0  0  0  0  0  0  0  0
   13.9881    6.2215    1.8662 H   0  0  0  0  0  0  0  0  0  0  0  0
   15.0011    7.2119    0.7512 H   0  0  0  0  0  0  0  0  0  0  0  0
   13.2935    6.9112    0.3369 H   0  0  0  0  0  0  0  0  0  0  0  0
   13.3814    9.1011    1.1484 H   0  0  0  0  0  0  0  0  0  0  0  0
   15.5300    9.0533    2.0994 H   0  0  0  0  0  0  0  0  0  0  0  0
   14.9961    8.1897    3.4594 H   0  0  0  0  0  0  0  0  0  0  0  0
   14.4937    9.7898    3.1972 H   0  0  0  0  0  0  0  0  0  0  0  0
   12.6603    7.8393    3.7045 H   0  0  0  0  0  0  0  0  0  0  0  0
   11.0055    6.5970    3.2390 H   0  0  0  0  0  0  0  0  0  0  0  0
   11.4449    6.6797    1.5345 H   0  0  0  0  0  0  0  0  0  0  0  0
    9.0392    7.1109    2.0771 H   0  0  0  0  0  0  0  0  0  0  0  0
    9.8350    8.3599    1.0601 H   0  0  0  0  0  0  0  0  0  0  0  0
    9.4783    8.5432    4.1255 H   0  0  0  0  0  0  0  0  0  0  0  0
    7.5318    9.5376    4.9374 H   0  0  0  0  0  0  0  0  0  0  0  0
    5.3608   10.4205    1.7246 H   0  0  0  0  0  0  0  0  0  0  0  0
    1.6866   11.0770    4.6182 H   0  0  0  0  0  0  0  0  0  0  0  0
    2.7274   12.0990    5.6885 H   0  0  0  0  0  0  0  0  0  0  0  0
    2.4588   10.3506    6.0792 H   0  0  0  0  0  0  0  0  0  0  0  0
    5.1820   10.2005    6.0071 H   0  0  0  0  0  0  0  0  0  0  0  0
   10.3586   10.5864    1.9829 H   0  0  0  0  0  0  0  0  0  0  0  0
   10.1064   10.9521    3.7209 H   0  0  0  0  0  0  0  0  0  0  0  0
   11.9668    9.7488    4.4106 H   0  0  0  0  0  0  0  0  0  0  0  0
   12.4789   10.5257    2.8991 H   0  0  0  0  0  0  0  0  0  0  0  0
  1  2  1  0
  2  3  1  0
  2  4  1  0
  4  5  1  0
  5  6  1  0
  6  7  1  0
  7  8  1  0
  8  9  2  0
  8 10  1  0
 10 11  1  0
 11 12  1  0
 12 13  2  0
 13 14  1  0
 14 15  1  0
 14 16  1  0
  7 17  1  0
 17 18  1  0
 18  4  1  0
 16 11  2  0
  1 19  1  0
  1 20  1  0
  1 21  1  0
  2 22  1  0
  3 23  1  0
  3 24  1  0
  3 25  1  0
  4 26  1  0
  5 27  1  0
  5 28  1  0
  6 29  1  0
  6 30  1  0
  7 31  1  0
 10 32  1  0
 12 33  1  0
 15 34  1  0
 15 35  1  0
 15 36  1  0
 16 37  1  0
 17 38  1  0
 17 39  1  0
 18 40  1  0
 18 41  1  0
M  CHG  1   3   1
M  END
>  <EmbedRMS>  (152) 
0.202216898800577

$$$$

     RDKit          3D

 44 45  0  0  0  0  0  0  0  0999 V2000
   14.0491    7.2192    1.1051 C   0  0  0  0  0  0  0  0  0  0  0  0
   13.6499    7.9554    2.3993 C   0  0  0  0  0  0  0  0  0  0  0  0
   14.6293    9.0155    2.6715 N   0  0  0  0  0  4  0  0  0  0  0  0
   12.2007    8.5120    2.2736 C   0  0  0  0  0  0  0  0  0  0  0  0
   11.1807    7.3658    2.4346 C   0  0  0  0  0  0  0  0  0  0  0  0
    9.7726    7.8720    2.1539 C   0  0  0  0  0  0  0  0  0  0  0  0
    9.4099    8.9946    3.1307 C   0  0  0  0  0  0  0  0  0  0  0  0
    8.0144    9.4819    2.8685 C   0  0  0  0  0  0  0  0  0  0  0  0
    7.6163    9.6899    1.6878 O   0  0  0  0  0  0  0  0  0  0  0  0
    7.1421    9.7123    3.9750 N   0  0  0  0  0  0  0  0  0  0  0  0
    5.7615   10.1355    3.7870 C   0  0  0  0  0  0  0  0  0  0  0  0
    5.0980   10.2938    5.1182 C   0  0  0  0  0  0  0  0  0  0  0  0
    4.3917    9.3155    5.7845 C   0  0  0  0  0  0  0  0  0  0  0  0
    4.0621    9.8968    6.9943 C   0  0  0  0  0  0  0  0  0  0  0  0
    4.5655   11.1466    7.0524 N   0  0  0  0  0  0  0  0  0  0  0  0
    5.2022   11.3746    5.9156 N   0  0  0  0  0  0  0  0  0  0  0  0
    5.8996   12.6191    5.6126 C   0  0  0  0  0  0  0  0  0  0  0  0
   10.4244   10.1488    3.0655 C   0  0  0  0  0  0  0  0  0  0  0  0
   11.8589    9.6374    3.2816 C   0  0  0  0  0  0  0  0  0  0  0  0
   15.0965    6.8576    1.1812 H   0  0  0  0  0  0  0  0  0  0  0  0
   13.4183    6.3265    0.9275 H   0  0  0  0  0  0  0  0  0  0  0  0
   13.9788    7.8972    0.2277 H   0  0  0  0  0  0  0  0  0  0  0  0
   13.6913    7.2248    3.2394 H   0  0  0  0  0  0  0  0  0  0  0  0
   14.5438    9.7862    1.9690 H   0  0  0  0  0  0  0  0  0  0  0  0
   15.6007    8.6296    2.6307 H   0  0  0  0  0  0  0  0  0  0  0  0
   14.4966    9.3930    3.6373 H   0  0  0  0  0  0  0  0  0  0  0  0
   12.0890    8.9476    1.2538 H   0  0  0  0  0  0  0  0  0  0  0  0
   11.2335    6.9397    3.4615 H   0  0  0  0  0  0  0  0  0  0  0  0
   11.3829    6.5448    1.7186 H   0  0  0  0  0  0  0  0  0  0  0  0
    9.7117    8.2308    1.1019 H   0  0  0  0  0  0  0  0  0  0  0  0
    9.0568    7.0288    2.2728 H   0  0  0  0  0  0  0  0  0  0  0  0
    9.4450    8.5671    4.1584 H   0  0  0  0  0  0  0  0  0  0  0  0
    7.5143    9.5749    4.9433 H   0  0  0  0  0  0  0  0  0  0  0  0
    5.2177    9.3738    3.1876 H   0  0  0  0  0  0  0  0  0  0  0  0
    5.7355   11.0991    3.2352 H   0  0  0  0  0  0  0  0  0  0  0  0
    4.1557    8.3159    5.4443 H   0  0  0  0  0  0  0  0  0  0  0  0
    3.4981    9.4307    7.7909 H   0  0  0  0  0  0  0  0  0  0  0  0
    5.8854   13.2918    6.4963 H   0  0  0  0  0  0  0  0  0  0  0  0
    6.9558   12.4043    5.3455 H   0  0  0  0  0  0  0  0  0  0  0  0
    5.3997   13.1315    4.7642 H   0  0  0  0  0  0  0  0  0  0  0  0
   10.1851   10.8999    3.8499 H   0  0  0  0  0  0  0  0  0  0  0  0
   10.3600   10.6536    2.0757 H   0  0  0  0  0  0  0  0  0  0  0  0
   12.5384   10.5044    3.1429 H   0  0  0  0  0  0  0  0  0  0  0  0
   11.9731    9.2648    4.3236 H   0  0  0  0  0  0  0  0  0  0  0  0
  1  2  1  0
  2  3  1  0
  2  4  1  0
  4  5  1  0
  5  6  1  0
  6  7  1  0
  7  8  1  0
  8  9  2  0
  8 10  1  0
 10 11  1  0
 11 12  1  0
 12 13  2  0
 13 14  1  0
 14 15  2  0
 15 16  1  0
 16 17  1  0
  7 18  1  0
 18 19  1  0
 19  4  1  0
 16 12  1  0
  1 20  1  0
  1 21  1  0
  1 22  1  0
  2 23  1  0
  3 24  1  0
  3 25  1  0
  3 26  1  0
  4 27  1  0
  5 28  1  0
  5 29  1  0
  6 30  1  0
  6 31  1  0
  7 32  1  0
 10 33  1  0
 11 34  1  0
 11 35  1  0
 13 36  1  0
 14 37  1  0
 17 38  1  0
 17 39  1  0
 17 40  1  0
 18 41  1  0
 18 42  1  0
 19 43  1  0
 19 44  1  0
M  CHG  1   3   1
M  END
>  <EmbedRMS>  (153) 
0.027804703519808214

$$$$

     RDKit          3D

 44 44  0  0  0  0  0  0  0  0999 V2000
    5.8775   11.4490    5.8599 C   0  0  0  0  0  0  0  0  0  0  0  0
    5.1220   10.7187    4.7918 C   0  0  0  0  0  0  0  0  0  0  0  0
    5.7170    9.9083    3.8974 C   0  0  0  0  0  0  0  0  0  0  0  0
    7.1334    9.6721    3.9932 N   0  0  0  0  0  0  0  0  0  0  0  0
    8.0086    9.4604    2.8799 C   0  0  0  0  0  0  0  0  0  0  0  0
    7.6262    9.7033    1.7007 O   0  0  0  0  0  0  0  0  0  0  0  0
    9.4096    8.9836    3.1496 C   0  0  0  0  0  0  0  0  0  0  0  0
    9.7865    7.8249    2.2087 C   0  0  0  0  0  0  0  0  0  0  0  0
   11.2388    7.3775    2.4503 C   0  0  0  0  0  0  0  0  0  0  0  0
   12.1566    8.5902    2.2114 C   0  0  0  0  0  0  0  0  0  0  0  0
   13.6684    8.3368    1.9397 C   0  0  0  0  0  0  0  0  0  0  0  0
   14.0276    7.0400    1.2347 C   0  0  0  0  0  0  0  0  0  0  0  0
   14.6122    8.7694    2.9626 N   0  0  0  0  0  4  0  0  0  0  0  0
   11.8534    9.6815    3.2532 C   0  0  0  0  0  0  0  0  0  0  0  0
   10.4035   10.1590    3.0855 C   0  0  0  0  0  0  0  0  0  0  0  0
    4.8812    9.1732    2.9075 C   0  0  0  0  0  0  0  0  0  0  0  0
    5.3293    7.8586    2.3348 C   0  0  0  0  0  0  0  0  0  0  0  0
    3.7156    9.6375    2.5770 N   0  0  0  0  0  0  0  0  0  0  0  0
    5.1882   12.1266    6.4059 H   0  0  0  0  0  0  0  0  0  0  0  0
    6.6877   12.0602    5.4085 H   0  0  0  0  0  0  0  0  0  0  0  0
    6.3055   10.7294    6.5889 H   0  0  0  0  0  0  0  0  0  0  0  0
    4.0500   10.8746    4.7592 H   0  0  0  0  0  0  0  0  0  0  0  0
    7.5679    9.6582    4.9430 H   0  0  0  0  0  0  0  0  0  0  0  0
    9.4484    8.5759    4.1851 H   0  0  0  0  0  0  0  0  0  0  0  0
    9.1103    6.9626    2.3983 H   0  0  0  0  0  0  0  0  0  0  0  0
    9.6566    8.1253    1.1449 H   0  0  0  0  0  0  0  0  0  0  0  0
   11.3670    6.9867    3.4834 H   0  0  0  0  0  0  0  0  0  0  0  0
   11.4619    6.5574    1.7376 H   0  0  0  0  0  0  0  0  0  0  0  0
   11.8021    9.0093    1.2366 H   0  0  0  0  0  0  0  0  0  0  0  0
   13.8825    9.0584    1.1115 H   0  0  0  0  0  0  0  0  0  0  0  0
   15.0830    7.0605    0.8868 H   0  0  0  0  0  0  0  0  0  0  0  0
   13.3772    6.8826    0.3473 H   0  0  0  0  0  0  0  0  0  0  0  0
   13.9068    6.1870    1.9349 H   0  0  0  0  0  0  0  0  0  0  0  0
   14.3767    8.3025    3.8678 H   0  0  0  0  0  0  0  0  0  0  0  0
   15.5886    8.5036    2.6977 H   0  0  0  0  0  0  0  0  0  0  0  0
   14.5942    9.8066    3.0886 H   0  0  0  0  0  0  0  0  0  0  0  0
   12.5063   10.5650    3.0941 H   0  0  0  0  0  0  0  0  0  0  0  0
   12.0179    9.2958    4.2832 H   0  0  0  0  0  0  0  0  0  0  0  0
   10.1680   10.8883    3.8913 H   0  0  0  0  0  0  0  0  0  0  0  0
   10.3005   10.6872    2.1110 H   0  0  0  0  0  0  0  0  0  0  0  0
    6.1429    7.4090    2.9413 H   0  0  0  0  0  0  0  0  0  0  0  0
    4.4828    7.1396    2.3312 H   0  0  0  0  0  0  0  0  0  0  0  0
    5.6763    8.0000    1.2905 H   0  0  0  0  0  0  0  0  0  0  0  0
    3.0902    9.1404    1.9035 H   0  0  0  0  0  0  0  0  0  0  0  0
  1  2  1  0
  2  3  2  3
  3  4  1  0
  4  5  1  0
  5  6  2  0
  5  7  1  0
  7  8  1  0
  8  9  1  0
  9 10  1  0
 10 11  1  0
 11 12  1  0
 11 13  1  0
 10 14  1  0
 14 15  1  0
  3 16  1  0
 16 17  1  0
 16 18  2  3
 15  7  1  0
  1 19  1  0
  1 20  1  0
  1 21  1  0
  2 22  1  0
  4 23  1  0
  7 24  1  0
  8 25  1  0
  8 26  1  0
  9 27  1  0
  9 28  1  0
 10 29  1  0
 11 30  1  0
 12 31  1  0
 12 32  1  0
 12 33  1  0
 13 34  1  0
 13 35  1  0
 13 36  1  0
 14 37  1  0
 14 38  1  0
 15 39  1  0
 15 40  1  0
 17 41  1  0
 17 42  1  0
 17 43  1  0
 18 44  1  0
M  CHG  1  13   1
M  END
>  <EmbedRMS>  (154) 
0.18298173008130458

$$$$

     RDKit          3D

 42 42  0  0  0  0  0  0  0  0999 V2000
    6.4152   12.5245    4.4772 C   0  0  0  0  0  0  0  0  0  0  0  0
    5.3909   11.5428    3.9460 C   0  0  0  0  0  0  0  0  0  0  0  0
    4.5918   12.0479    2.8347 N   0  0  0  0  0  0  0  0  0  0  0  0
    5.7932   10.0513    3.8181 C   0  0  0  0  0  0  0  0  0  0  0  0
    7.2355    9.7759    3.9059 N   0  0  0  0  0  0  0  0  0  0  0  0
    7.9957    9.5534    2.7078 C   0  0  0  0  0  0  0  0  0  0  0  0
    7.4282    9.6780    1.5963 O   0  0  0  0  0  0  0  0  0  0  0  0
    9.4546    9.2142    2.6349 C   0  0  0  0  0  0  0  0  0  0  0  0
    9.7414    7.7356    2.5428 C   0  0  0  0  0  0  0  0  0  0  0  0
   11.1768    7.4417    2.1366 C   0  0  0  0  0  0  0  0  0  0  0  0
   12.2614    8.3276    2.7679 C   0  0  0  0  0  0  0  0  0  0  0  0
   13.6002    8.3237    1.9896 C   0  0  0  0  0  0  0  0  0  0  0  0
   14.0102    7.0496    1.2531 C   0  0  0  0  0  0  0  0  0  0  0  0
   14.7029    8.8911    2.7686 N   0  0  0  0  0  4  0  0  0  0  0  0
   11.8529    9.7818    3.1243 C   0  0  0  0  0  0  0  0  0  0  0  0
   10.3899   10.0247    3.4857 C   0  0  0  0  0  0  0  0  0  0  0  0
    7.2196   12.6657    3.7249 H   0  0  0  0  0  0  0  0  0  0  0  0
    6.8668   12.1435    5.4183 H   0  0  0  0  0  0  0  0  0  0  0  0
    5.9453   13.5096    4.6863 H   0  0  0  0  0  0  0  0  0  0  0  0
    4.6716   11.5202    4.8008 H   0  0  0  0  0  0  0  0  0  0  0  0
    4.2030   12.9851    3.0908 H   0  0  0  0  0  0  0  0  0  0  0  0
    3.7669   11.4181    2.6992 H   0  0  0  0  0  0  0  0  0  0  0  0
    5.3687    9.6214    2.8851 H   0  0  0  0  0  0  0  0  0  0  0  0
    5.3010    9.4705    4.6303 H   0  0  0  0  0  0  0  0  0  0  0  0
    7.7075    9.7568    4.8372 H   0  0  0  0  0  0  0  0  0  0  0  0
    9.7356    9.5718    1.6130 H   0  0  0  0  0  0  0  0  0  0  0  0
    9.5531    7.2811    3.5399 H   0  0  0  0  0  0  0  0  0  0  0  0
    9.0503    7.2496    1.8178 H   0  0  0  0  0  0  0  0  0  0  0  0
   11.3991    6.3687    2.3290 H   0  0  0  0  0  0  0  0  0  0  0  0
   11.2127    7.5901    1.0352 H   0  0  0  0  0  0  0  0  0  0  0  0
   12.4691    7.8399    3.7471 H   0  0  0  0  0  0  0  0  0  0  0  0
   13.4358    9.0275    1.1405 H   0  0  0  0  0  0  0  0  0  0  0  0
   13.2653    6.7629    0.4827 H   0  0  0  0  0  0  0  0  0  0  0  0
   14.9812    7.1917    0.7324 H   0  0  0  0  0  0  0  0  0  0  0  0
   14.1168    6.2173    1.9801 H   0  0  0  0  0  0  0  0  0  0  0  0
   15.5922    8.8650    2.2186 H   0  0  0  0  0  0  0  0  0  0  0  0
   14.8380    8.3420    3.6482 H   0  0  0  0  0  0  0  0  0  0  0  0
   14.5218    9.8922    3.0052 H   0  0  0  0  0  0  0  0  0  0  0  0
   12.0710   10.4427    2.2564 H   0  0  0  0  0  0  0  0  0  0  0  0
   12.4746   10.1501    3.9693 H   0  0  0  0  0  0  0  0  0  0  0  0
   10.1563   11.1092    3.3942 H   0  0  0  0  0  0  0  0  0  0  0  0
   10.2344    9.7355    4.5478 H   0  0  0  0  0  0  0  0  0  0  0  0
  1  2  1  0
  2  3  1  0
  2  4  1  0
  4  5  1  0
  5  6  1  0
  6  7  2  0
  6  8  1  0
  8  9  1  0
  9 10  1  0
 10 11  1  0
 11 12  1  0
 12 13  1  0
 12 14  1  0
 11 15  1  0
 15 16  1  0
 16  8  1  0
  1 17  1  0
  1 18  1  0
  1 19  1  0
  2 20  1  0
  3 21  1  0
  3 22  1  0
  4 23  1  0
  4 24  1  0
  5 25  1  0
  8 26  1  0
  9 27  1  0
  9 28  1  0
 10 29  1  0
 10 30  1  0
 11 31  1  0
 12 32  1  0
 13 33  1  0
 13 34  1  0
 13 35  1  0
 14 36  1  0
 14 37  1  0
 14 38  1  0
 15 39  1  0
 15 40  1  0
 16 41  1  0
 16 42  1  0
M  CHG  1  14   1
M  END
>  <EmbedRMS>  (155) 
0.36426695918498336

$$$$

     RDKit          3D

 39 41  0  0  0  0  0  0  0  0999 V2000
   14.0276    7.0399    1.2343 C   0  0  0  0  0  0  0  0  0  0  0  0
   13.6687    8.3366    1.9397 C   0  0  0  0  0  0  0  0  0  0  0  0
   14.6131    8.7689    2.9622 N   0  0  0  0  0  4  0  0  0  0  0  0
   12.1573    8.5898    2.2126 C   0  0  0  0  0  0  0  0  0  0  0  0
   11.2406    7.3770    2.4538 C   0  0  0  0  0  0  0  0  0  0  0  0
    9.7882    7.8236    2.2151 C   0  0  0  0  0  0  0  0  0  0  0  0
    9.4106    8.9834    3.1562 C   0  0  0  0  0  0  0  0  0  0  0  0
    8.0136    9.4643    2.8775 C   0  0  0  0  0  0  0  0  0  0  0  0
    7.6372    9.6744    1.6910 O   0  0  0  0  0  0  0  0  0  0  0  0
    7.1331    9.7031    3.9806 N   0  0  0  0  0  0  0  0  0  0  0  0
    5.7791   10.1383    3.8528 C   0  0  0  0  0  0  0  0  0  0  0  0
    4.9688   10.4703    2.6846 C   0  0  0  0  0  0  0  0  0  0  0  0
    3.6046   10.8885    3.0079 C   0  0  0  0  0  0  0  0  0  0  0  0
    3.6788   10.7825    4.3494 C   0  0  0  0  0  0  0  0  0  0  0  0
    3.8735   10.6372    5.6986 C   0  0  0  0  0  0  0  0  0  0  0  0
    4.8896   10.3649    4.8196 C   0  0  0  0  0  0  0  0  0  0  0  0
   10.4056   10.1582    3.0890 C   0  0  0  0  0  0  0  0  0  0  0  0
   11.8554    9.6809    3.2548 C   0  0  0  0  0  0  0  0  0  0  0  0
   13.9078    6.1869    1.9346 H   0  0  0  0  0  0  0  0  0  0  0  0
   15.0825    7.0608    0.8852 H   0  0  0  0  0  0  0  0  0  0  0  0
   13.3762    6.8823    0.3476 H   0  0  0  0  0  0  0  0  0  0  0  0
   13.8821    9.0584    1.1115 H   0  0  0  0  0  0  0  0  0  0  0  0
   14.5956    9.8062    3.0881 H   0  0  0  0  0  0  0  0  0  0  0  0
   15.5893    8.5029    2.6968 H   0  0  0  0  0  0  0  0  0  0  0  0
   14.3780    8.3021    3.8675 H   0  0  0  0  0  0  0  0  0  0  0  0
   11.8014    9.0084    1.2380 H   0  0  0  0  0  0  0  0  0  0  0  0
   11.3708    6.9868    3.4869 H   0  0  0  0  0  0  0  0  0  0  0  0
   11.4628    6.5566    1.7411 H   0  0  0  0  0  0  0  0  0  0  0  0
    9.6579    8.1218    1.1507 H   0  0  0  0  0  0  0  0  0  0  0  0
    9.1134    6.9606    2.4063 H   0  0  0  0  0  0  0  0  0  0  0  0
    9.4448    8.5792    4.1930 H   0  0  0  0  0  0  0  0  0  0  0  0
    7.4922    9.5494    4.9498 H   0  0  0  0  0  0  0  0  0  0  0  0
    5.3206   10.4219    1.6649 H   0  0  0  0  0  0  0  0  0  0  0  0
    2.7874   11.1909    2.3675 H   0  0  0  0  0  0  0  0  0  0  0  0
    3.5003   10.6952    6.7116 H   0  0  0  0  0  0  0  0  0  0  0  0
   10.3017   10.6858    2.1143 H   0  0  0  0  0  0  0  0  0  0  0  0
   10.1719   10.8887    3.8944 H   0  0  0  0  0  0  0  0  0  0  0  0
   12.0213    9.2953    4.2846 H   0  0  0  0  0  0  0  0  0  0  0  0
   12.5079   10.5645    3.0947 H   0  0  0  0  0  0  0  0  0  0  0  0
  1  2  1  0
  2  3  1  0
  2  4  1  0
  4  5  1  0
  5  6  1  0
  6  7  1  0
  7  8  1  0
  8  9  2  0
  8 10  1  0
 10 11  1  0
 11 12  2  0
 12 13  1  0
 13 14  2  0
 14 15  1  0
 15 16  2  0
  7 17  1  0
 17 18  1  0
 18  4  1  0
 16 11  1  0
 16 14  1  0
  1 19  1  0
  1 20  1  0
  1 21  1  0
  2 22  1  0
  3 23  1  0
  3 24  1  0
  3 25  1  0
  4 26  1  0
  5 27  1  0
  5 28  1  0
  6 29  1  0
  6 30  1  0
  7 31  1  0
 10 32  1  0
 12 33  1  0
 13 34  1  0
 15 35  1  0
 17 36  1  0
 17 37  1  0
 18 38  1  0
 18 39  1  0
M  CHG  1   3   1
M  END
>  <EmbedRMS>  (156) 
0.18242760821357734

$$$$

     RDKit          3D

 42 42  0  0  0  0  0  0  0  0999 V2000
    5.0257   11.5044    7.1900 C   0  0  0  0  0  0  0  0  0  0  0  0
    5.6807   11.3994    5.8873 N   0  0  0  0  0  0  0  0  0  0  0  0
    5.1265   10.2565    5.1587 C   0  0  0  0  0  0  0  0  0  0  0  0
    5.8116   10.1025    3.8067 C   0  0  0  0  0  0  0  0  0  0  0  0
    7.2196    9.6920    3.9301 N   0  0  0  0  0  0  0  0  0  0  0  0
    7.9881    9.5294    2.7253 C   0  0  0  0  0  0  0  0  0  0  0  0
    7.4189    9.6827    1.6169 O   0  0  0  0  0  0  0  0  0  0  0  0
    9.4497    9.2030    2.6410 C   0  0  0  0  0  0  0  0  0  0  0  0
    9.7440    7.7272    2.5458 C   0  0  0  0  0  0  0  0  0  0  0  0
   11.1788    7.4404    2.1350 C   0  0  0  0  0  0  0  0  0  0  0  0
   12.2612    8.3272    2.7675 C   0  0  0  0  0  0  0  0  0  0  0  0
   13.6004    8.3243    1.9898 C   0  0  0  0  0  0  0  0  0  0  0  0
   14.0109    7.0505    1.2528 C   0  0  0  0  0  0  0  0  0  0  0  0
   14.7026    8.8916    2.7694 N   0  0  0  0  0  4  0  0  0  0  0  0
   11.8497    9.7808    3.1224 C   0  0  0  0  0  0  0  0  0  0  0  0
   10.3862   10.0203    3.4860 C   0  0  0  0  0  0  0  0  0  0  0  0
    5.2285   10.5981    7.8010 H   0  0  0  0  0  0  0  0  0  0  0  0
    5.4350   12.3806    7.7358 H   0  0  0  0  0  0  0  0  0  0  0  0
    3.9276   11.6445    7.0765 H   0  0  0  0  0  0  0  0  0  0  0  0
    5.4511   12.2713    5.3543 H   0  0  0  0  0  0  0  0  0  0  0  0
    5.2689    9.3183    5.7408 H   0  0  0  0  0  0  0  0  0  0  0  0
    4.0354   10.4024    4.9866 H   0  0  0  0  0  0  0  0  0  0  0  0
    5.7486   11.0627    3.2487 H   0  0  0  0  0  0  0  0  0  0  0  0
    5.2618    9.3309    3.2247 H   0  0  0  0  0  0  0  0  0  0  0  0
    7.6677    9.5444    4.8624 H   0  0  0  0  0  0  0  0  0  0  0  0
    9.7224    9.5622    1.6175 H   0  0  0  0  0  0  0  0  0  0  0  0
    9.0531    7.2385    1.8225 H   0  0  0  0  0  0  0  0  0  0  0  0
    9.5612    7.2703    3.5430 H   0  0  0  0  0  0  0  0  0  0  0  0
   11.2120    7.5933    1.0341 H   0  0  0  0  0  0  0  0  0  0  0  0
   11.4052    6.3675    2.3230 H   0  0  0  0  0  0  0  0  0  0  0  0
   12.4686    7.8402    3.7471 H   0  0  0  0  0  0  0  0  0  0  0  0
   13.4361    9.0284    1.1410 H   0  0  0  0  0  0  0  0  0  0  0  0
   14.1174    6.2178    1.9795 H   0  0  0  0  0  0  0  0  0  0  0  0
   13.2663    6.7641    0.4820 H   0  0  0  0  0  0  0  0  0  0  0  0
   14.9821    7.1930    0.7325 H   0  0  0  0  0  0  0  0  0  0  0  0
   14.5209    9.8925    3.0065 H   0  0  0  0  0  0  0  0  0  0  0  0
   14.8376    8.3421    3.6488 H   0  0  0  0  0  0  0  0  0  0  0  0
   15.5921    8.8661    2.2197 H   0  0  0  0  0  0  0  0  0  0  0  0
   12.4719   10.1522    3.9657 H   0  0  0  0  0  0  0  0  0  0  0  0
   12.0645   10.4406    2.2528 H   0  0  0  0  0  0  0  0  0  0  0  0
   10.1489   11.1035    3.3905 H   0  0  0  0  0  0  0  0  0  0  0  0
   10.2335    9.7353    4.5497 H   0  0  0  0  0  0  0  0  0  0  0  0
  1  2  1  0
  2  3  1  0
  3  4  1  0
  4  5  1  0
  5  6  1  0
  6  7  2  0
  6  8  1  0
  8  9  1  0
  9 10  1  0
 10 11  1  0
 11 12  1  0
 12 13  1  0
 12 14  1  0
 11 15  1  0
 15 16  1  0
 16  8  1  0
  1 17  1  0
  1 18  1  0
  1 19  1  0
  2 20  1  0
  3 21  1  0
  3 22  1  0
  4 23  1  0
  4 24  1  0
  5 25  1  0
  8 26  1  0
  9 27  1  0
  9 28  1  0
 10 29  1  0
 10 30  1  0
 11 31  1  0
 12 32  1  0
 13 33  1  0
 13 34  1  0
 13 35  1  0
 14 36  1  0
 14 37  1  0
 14 38  1  0
 15 39  1  0
 15 40  1  0
 16 41  1  0
 16 42  1  0
M  CHG  1  14   1
M  END
>  <EmbedRMS>  (157) 
0.31072278256227437

$$$$

     RDKit          3D

 34 34  0  0  0  0  0  0  0  0999 V2000
    5.8329   10.1084    3.8848 C   0  0  0  0  0  0  0  0  0  0  0  0
    7.2300    9.6721    3.9456 N   0  0  0  0  0  0  0  0  0  0  0  0
    7.9825    9.5176    2.7336 C   0  0  0  0  0  0  0  0  0  0  0  0
    7.4038    9.6808    1.6309 O   0  0  0  0  0  0  0  0  0  0  0  0
    9.4450    9.1949    2.6523 C   0  0  0  0  0  0  0  0  0  0  0  0
    9.7659    7.7145    2.4310 C   0  0  0  0  0  0  0  0  0  0  0  0
   11.2645    7.3643    2.5394 C   0  0  0  0  0  0  0  0  0  0  0  0
   12.1440    8.5865    2.2316 C   0  0  0  0  0  0  0  0  0  0  0  0
   13.6550    8.3396    1.9330 C   0  0  0  0  0  0  0  0  0  0  0  0
   14.0142    7.0445    1.2245 C   0  0  0  0  0  0  0  0  0  0  0  0
   14.6175    8.7737    2.9400 N   0  0  0  0  0  4  0  0  0  0  0  0
   11.8902    9.6847    3.2842 C   0  0  0  0  0  0  0  0  0  0  0  0
   10.4057   10.0818    3.4290 C   0  0  0  0  0  0  0  0  0  0  0  0
    5.7674   11.1015    3.3922 H   0  0  0  0  0  0  0  0  0  0  0  0
    5.4215   10.1915    4.9127 H   0  0  0  0  0  0  0  0  0  0  0  0
    5.2299    9.3684    3.3173 H   0  0  0  0  0  0  0  0  0  0  0  0
    7.6848    9.4991    4.8697 H   0  0  0  0  0  0  0  0  0  0  0  0
    9.6804    9.5858    1.6329 H   0  0  0  0  0  0  0  0  0  0  0  0
    9.2153    7.1145    3.1879 H   0  0  0  0  0  0  0  0  0  0  0  0
    9.3849    7.3947    1.4340 H   0  0  0  0  0  0  0  0  0  0  0  0
   11.4945    7.0012    3.5653 H   0  0  0  0  0  0  0  0  0  0  0  0
   11.4746    6.5314    1.8369 H   0  0  0  0  0  0  0  0  0  0  0  0
   11.7511    8.9795    1.2646 H   0  0  0  0  0  0  0  0  0  0  0  0
   13.8453    9.0650    1.1029 H   0  0  0  0  0  0  0  0  0  0  0  0
   15.0594    7.0787    0.8480 H   0  0  0  0  0  0  0  0  0  0  0  0
   13.3413    6.8737    0.3566 H   0  0  0  0  0  0  0  0  0  0  0  0
   13.9245    6.1932    1.9314 H   0  0  0  0  0  0  0  0  0  0  0  0
   15.5929    8.5546    2.6319 H   0  0  0  0  0  0  0  0  0  0  0  0
   14.5663    9.8048    3.1021 H   0  0  0  0  0  0  0  0  0  0  0  0
   14.4328    8.2662    3.8350 H   0  0  0  0  0  0  0  0  0  0  0  0
   12.2711    9.3420    4.2714 H   0  0  0  0  0  0  0  0  0  0  0  0
   12.4559   10.5993    3.0033 H   0  0  0  0  0  0  0  0  0  0  0  0
   10.1327   10.0263    4.5050 H   0  0  0  0  0  0  0  0  0  0  0  0
   10.2681   11.1447    3.1242 H   0  0  0  0  0  0  0  0  0  0  0  0
  1  2  1  0
  2  3  1  0
  3  4  2  0
  3  5  1  0
  5  6  1  0
  6  7  1  0
  7  8  1  0
  8  9  1  0
  9 10  1  0
  9 11  1  0
  8 12  1  0
 12 13  1  0
 13  5  1  0
  1 14  1  0
  1 15  1  0
  1 16  1  0
  2 17  1  0
  5 18  1  0
  6 19  1  0
  6 20  1  0
  7 21  1  0
  7 22  1  0
  8 23  1  0
  9 24  1  0
 10 25  1  0
 10 26  1  0
 10 27  1  0
 11 28  1  0
 11 29  1  0
 11 30  1  0
 12 31  1  0
 12 32  1  0
 13 33  1  0
 13 34  1  0
M  CHG  1  11   1
M  END
>  <EmbedRMS>  (158) 
0.29639754771625826

$$$$

     RDKit          3D

 39 40  0  0  0  0  0  0  0  0999 V2000
   14.0110    7.0511    1.2526 C   0  0  0  0  0  0  0  0  0  0  0  0
   13.6007    8.3248    1.9901 C   0  0  0  0  0  0  0  0  0  0  0  0
   14.7033    8.8921    2.7690 N   0  0  0  0  0  4  0  0  0  0  0  0
   12.2625    8.3270    2.7691 C   0  0  0  0  0  0  0  0  0  0  0  0
   11.1802    7.4398    2.1370 C   0  0  0  0  0  0  0  0  0  0  0  0
    9.7464    7.7250    2.5506 C   0  0  0  0  0  0  0  0  0  0  0  0
    9.4528    9.2006    2.6508 C   0  0  0  0  0  0  0  0  0  0  0  0
    7.9907    9.5272    2.7197 C   0  0  0  0  0  0  0  0  0  0  0  0
    7.4511    9.6605    1.5982 O   0  0  0  0  0  0  0  0  0  0  0  0
    7.2032    9.6917    3.9188 N   0  0  0  0  0  0  0  0  0  0  0  0
    5.8190   10.1244    3.8864 C   0  0  0  0  0  0  0  0  0  0  0  0
    5.0492   10.4501    2.7707 C   0  0  0  0  0  0  0  0  0  0  0  0
    3.8118   10.8137    3.2504 C   0  0  0  0  0  0  0  0  0  0  0  0
    3.7917   10.7296    4.5924 N   0  0  0  0  0  0  0  0  0  0  0  0
    5.0092   10.3116    4.9903 C   0  0  0  0  0  0  0  0  0  0  0  0
   10.3879   10.0193    3.4937 C   0  0  0  0  0  0  0  0  0  0  0  0
   11.8511    9.7804    3.1265 C   0  0  0  0  0  0  0  0  0  0  0  0
   13.2659    6.7648    0.4822 H   0  0  0  0  0  0  0  0  0  0  0  0
   14.9817    7.1940    0.7316 H   0  0  0  0  0  0  0  0  0  0  0  0
   14.1182    6.2183    1.9789 H   0  0  0  0  0  0  0  0  0  0  0  0
   13.4353    9.0292    1.1418 H   0  0  0  0  0  0  0  0  0  0  0  0
   14.5218    9.8930    3.0061 H   0  0  0  0  0  0  0  0  0  0  0  0
   15.5925    8.8665    2.2188 H   0  0  0  0  0  0  0  0  0  0  0  0
   14.8389    8.3426    3.6484 H   0  0  0  0  0  0  0  0  0  0  0  0
   12.4711    7.8390    3.7480 H   0  0  0  0  0  0  0  0  0  0  0  0
   11.2117    7.5939    1.0361 H   0  0  0  0  0  0  0  0  0  0  0  0
   11.4077    6.3669    2.3236 H   0  0  0  0  0  0  0  0  0  0  0  0
    9.0547    7.2379    1.8268 H   0  0  0  0  0  0  0  0  0  0  0  0
    9.5649    7.2656    3.5467 H   0  0  0  0  0  0  0  0  0  0  0  0
    9.7356    9.5600    1.6294 H   0  0  0  0  0  0  0  0  0  0  0  0
    7.6552    9.5149    4.8435 H   0  0  0  0  0  0  0  0  0  0  0  0
    5.3065   10.4537    1.7245 H   0  0  0  0  0  0  0  0  0  0  0  0
    2.9693   11.1301    2.6494 H   0  0  0  0  0  0  0  0  0  0  0  0
    2.9817   10.9503    5.2127 H   0  0  0  0  0  0  0  0  0  0  0  0
    5.2923   10.1545    6.0229 H   0  0  0  0  0  0  0  0  0  0  0  0
   10.1492   11.1022    3.3982 H   0  0  0  0  0  0  0  0  0  0  0  0
   10.2369    9.7340    4.5575 H   0  0  0  0  0  0  0  0  0  0  0  0
   12.4748   10.1510    3.9689 H   0  0  0  0  0  0  0  0  0  0  0  0
   12.0642   10.4412    2.2573 H   0  0  0  0  0  0  0  0  0  0  0  0
  1  2  1  0
  2  3  1  0
  2  4  1  0
  4  5  1  0
  5  6  1  0
  6  7  1  0
  7  8  1  0
  8  9  2  0
  8 10  1  0
 10 11  1  0
 11 12  1  0
 12 13  2  0
 13 14  1  0
 14 15  1  0
  7 16  1  0
 16 17  1  0
 17  4  1  0
 15 11  2  0
  1 18  1  0
  1 19  1  0
  1 20  1  0
  2 21  1  0
  3 22  1  0
  3 23  1  0
  3 24  1  0
  4 25  1  0
  5 26  1  0
  5 27  1  0
  6 28  1  0
  6 29  1  0
  7 30  1  0
 10 31  1  0
 12 32  1  0
 13 33  1  0
 14 34  1  0
 15 35  1  0
 16 36  1  0
 16 37  1  0
 17 38  1  0
 17 39  1  0
M  CHG  1   3   1
M  END
>  <EmbedRMS>  (159) 
0.3005329260886256

$$$$

     RDKit          3D

 41 42  0  0  0  0  0  0  0  0999 V2000
   14.0109    7.0504    1.2530 C   0  0  0  0  0  0  0  0  0  0  0  0
   13.6001    8.3242    1.9897 C   0  0  0  0  0  0  0  0  0  0  0  0
   14.7019    8.8917    2.7696 N   0  0  0  0  0  4  0  0  0  0  0  0
   12.2605    8.3272    2.7670 C   0  0  0  0  0  0  0  0  0  0  0  0
   11.1785    7.4395    2.1347 C   0  0  0  0  0  0  0  0  0  0  0  0
    9.7431    7.7265    2.5438 C   0  0  0  0  0  0  0  0  0  0  0  0
    9.4480    9.2022    2.6348 C   0  0  0  0  0  0  0  0  0  0  0  0
    7.9855    9.5269    2.7212 C   0  0  0  0  0  0  0  0  0  0  0  0
    7.4160    9.6964    1.6166 O   0  0  0  0  0  0  0  0  0  0  0  0
    7.2200    9.6619    3.9307 N   0  0  0  0  0  0  0  0  0  0  0  0
    5.8087   10.0702    3.8756 C   0  0  0  0  0  0  0  0  0  0  0  0
    4.9486    8.9371    3.3964 C   0  0  0  0  0  0  0  0  0  0  0  0
    4.4548    8.7452    2.1230 C   0  0  0  0  0  0  0  0  0  0  0  0
    3.7772    7.5798    2.0873 N   0  0  0  0  0  0  0  0  0  0  0  0
    3.8798    7.0921    3.3428 C   0  0  0  0  0  0  0  0  0  0  0  0
    4.5889    7.8937    4.1582 N   0  0  0  0  0  0  0  0  0  0  0  0
   10.3837   10.0201    3.4813 C   0  0  0  0  0  0  0  0  0  0  0  0
   11.8482    9.7807    3.1209 C   0  0  0  0  0  0  0  0  0  0  0  0
   13.2670    6.7643    0.4814 H   0  0  0  0  0  0  0  0  0  0  0  0
   14.9826    7.1928    0.7336 H   0  0  0  0  0  0  0  0  0  0  0  0
   14.1165    6.2176    1.9796 H   0  0  0  0  0  0  0  0  0  0  0  0
   13.4361    9.0283    1.1408 H   0  0  0  0  0  0  0  0  0  0  0  0
   15.5914    8.8672    2.2198 H   0  0  0  0  0  0  0  0  0  0  0  0
   14.5195    9.8922    3.0077 H   0  0  0  0  0  0  0  0  0  0  0  0
   14.8374    8.3415    3.6486 H   0  0  0  0  0  0  0  0  0  0  0  0
   12.4676    7.8407    3.7469 H   0  0  0  0  0  0  0  0  0  0  0  0
   11.4048    6.3669    2.3242 H   0  0  0  0  0  0  0  0  0  0  0  0
   11.2125    7.5910    1.0336 H   0  0  0  0  0  0  0  0  0  0  0  0
    9.0527    7.2359    1.8211 H   0  0  0  0  0  0  0  0  0  0  0  0
    9.5596    7.2719    3.5418 H   0  0  0  0  0  0  0  0  0  0  0  0
    9.7204    9.5601    1.6109 H   0  0  0  0  0  0  0  0  0  0  0  0
    7.6822    9.5153    4.8558 H   0  0  0  0  0  0  0  0  0  0  0  0
    5.6911   10.9573    3.2159 H   0  0  0  0  0  0  0  0  0  0  0  0
    5.4737   10.3634    4.8934 H   0  0  0  0  0  0  0  0  0  0  0  0
    4.5840    9.4038    1.2744 H   0  0  0  0  0  0  0  0  0  0  0  0
    3.4435    6.1529    3.6564 H   0  0  0  0  0  0  0  0  0  0  0  0
    4.8181    7.7294    5.1636 H   0  0  0  0  0  0  0  0  0  0  0  0
   10.2295    9.7357    4.5450 H   0  0  0  0  0  0  0  0  0  0  0  0
   10.1466   11.1032    3.3848 H   0  0  0  0  0  0  0  0  0  0  0  0
   12.4688   10.1523    3.9652 H   0  0  0  0  0  0  0  0  0  0  0  0
   12.0645   10.4404    2.2517 H   0  0  0  0  0  0  0  0  0  0  0  0
  1  2  1  0
  2  3  1  0
  2  4  1  0
  4  5  1  0
  5  6  1  0
  6  7  1  0
  7  8  1  0
  8  9  2  0
  8 10  1  0
 10 11  1  0
 11 12  1  0
 12 13  2  0
 13 14  1  0
 14 15  2  0
 15 16  1  0
  7 17  1  0
 17 18  1  0
 18  4  1  0
 16 12  1  0
  1 19  1  0
  1 20  1  0
  1 21  1  0
  2 22  1  0
  3 23  1  0
  3 24  1  0
  3 25  1  0
  4 26  1  0
  5 27  1  0
  5 28  1  0
  6 29  1  0
  6 30  1  0
  7 31  1  0
 10 32  1  0
 11 33  1  0
 11 34  1  0
 13 35  1  0
 15 36  1  0
 16 37  1  0
 17 38  1  0
 17 39  1  0
 18 40  1  0
 18 41  1  0
M  CHG  1   3   1
M  END
>  <EmbedRMS>  (160) 
0.29359866989900446

$$$$

     RDKit          3D

 41 42  0  0  0  0  0  0  0  0999 V2000
   14.0155    7.0452    1.2243 C   0  0  0  0  0  0  0  0  0  0  0  0
   13.6577    8.3402    1.9340 C   0  0  0  0  0  0  0  0  0  0  0  0
   14.6213    8.7734    2.9399 N   0  0  0  0  0  4  0  0  0  0  0  0
   12.1479    8.5868    2.2358 C   0  0  0  0  0  0  0  0  0  0  0  0
   11.2708    7.3634    2.5450 C   0  0  0  0  0  0  0  0  0  0  0  0
    9.7738    7.7130    2.4384 C   0  0  0  0  0  0  0  0  0  0  0  0
    9.4545    9.1902    2.6817 C   0  0  0  0  0  0  0  0  0  0  0  0
    7.9930    9.5119    2.7236 C   0  0  0  0  0  0  0  0  0  0  0  0
    7.4746    9.6077    1.5899 O   0  0  0  0  0  0  0  0  0  0  0  0
    7.1920    9.7025    3.9130 N   0  0  0  0  0  0  0  0  0  0  0  0
    5.8002   10.1396    3.9098 C   0  0  0  0  0  0  0  0  0  0  0  0
    5.1136   10.2622    5.1332 C   0  0  0  0  0  0  0  0  0  0  0  0
    3.7791   10.6918    5.1678 C   0  0  0  0  0  0  0  0  0  0  0  0
    3.1050   10.9965    3.9846 C   0  0  0  0  0  0  0  0  0  0  0  0
    3.7620   10.8848    2.7663 C   0  0  0  0  0  0  0  0  0  0  0  0
    5.0915   10.4774    2.7238 C   0  0  0  0  0  0  0  0  0  0  0  0
   10.4123   10.0785    3.4530 C   0  0  0  0  0  0  0  0  0  0  0  0
   11.8967    9.6862    3.2904 C   0  0  0  0  0  0  0  0  0  0  0  0
   13.3412    6.8748    0.3575 H   0  0  0  0  0  0  0  0  0  0  0  0
   15.0600    7.0795    0.8460 H   0  0  0  0  0  0  0  0  0  0  0  0
   13.9272    6.1936    1.9310 H   0  0  0  0  0  0  0  0  0  0  0  0
   13.8472    9.0661    1.1041 H   0  0  0  0  0  0  0  0  0  0  0  0
   14.4394    8.2635    3.8342 H   0  0  0  0  0  0  0  0  0  0  0  0
   14.5690    9.8041    3.1044 H   0  0  0  0  0  0  0  0  0  0  0  0
   15.5964    8.5564    2.6293 H   0  0  0  0  0  0  0  0  0  0  0  0
   11.7549    8.9789    1.2687 H   0  0  0  0  0  0  0  0  0  0  0  0
   11.4801    6.5302    1.8427 H   0  0  0  0  0  0  0  0  0  0  0  0
   11.5022    7.0014    3.5710 H   0  0  0  0  0  0  0  0  0  0  0  0
    9.3960    7.4069    1.4357 H   0  0  0  0  0  0  0  0  0  0  0  0
    9.2216    7.1022    3.1855 H   0  0  0  0  0  0  0  0  0  0  0  0
    9.7131    9.5882    1.6698 H   0  0  0  0  0  0  0  0  0  0  0  0
    7.6559    9.5263    4.8324 H   0  0  0  0  0  0  0  0  0  0  0  0
    5.6153   10.0259    6.0630 H   0  0  0  0  0  0  0  0  0  0  0  0
    3.2672   10.7820    6.1172 H   0  0  0  0  0  0  0  0  0  0  0  0
    2.0739   11.3242    4.0170 H   0  0  0  0  0  0  0  0  0  0  0  0
    3.2415   11.1383    1.8510 H   0  0  0  0  0  0  0  0  0  0  0  0
    5.5040   10.4952    1.7386 H   0  0  0  0  0  0  0  0  0  0  0  0
   10.1475   10.0136    4.5305 H   0  0  0  0  0  0  0  0  0  0  0  0
   10.2671   11.1433    3.1573 H   0  0  0  0  0  0  0  0  0  0  0  0
   12.4562   10.6027    3.0029 H   0  0  0  0  0  0  0  0  0  0  0  0
   12.2889    9.3466    4.2742 H   0  0  0  0  0  0  0  0  0  0  0  0
  1  2  1  0
  2  3  1  0
  2  4  1  0
  4  5  1  0
  5  6  1  0
  6  7  1  0
  7  8  1  0
  8  9  2  0
  8 10  1  0
 10 11  1  0
 11 12  2  0
 12 13  1  0
 13 14  2  0
 14 15  1  0
 15 16  2  0
  7 17  1  0
 17 18  1  0
 18  4  1  0
 16 11  1  0
  1 19  1  0
  1 20  1  0
  1 21  1  0
  2 22  1  0
  3 23  1  0
  3 24  1  0
  3 25  1  0
  4 26  1  0
  5 27  1  0
  5 28  1  0
  6 29  1  0
  6 30  1  0
  7 31  1  0
 10 32  1  0
 12 33  1  0
 13 34  1  0
 14 35  1  0
 15 36  1  0
 16 37  1  0
 17 38  1  0
 17 39  1  0
 18 40  1  0
 18 41  1  0
M  CHG  1   3   1
M  END
>  <EmbedRMS>  (161) 
0.24964892458419108

$$$$

     RDKit          3D

 39 40  0  0  0  0  0  0  0  0999 V2000
   14.0110    7.0511    1.2526 C   0  0  0  0  0  0  0  0  0  0  0  0
   13.6007    8.3248    1.9901 C   0  0  0  0  0  0  0  0  0  0  0  0
   14.7033    8.8921    2.7690 N   0  0  0  0  0  4  0  0  0  0  0  0
   12.2625    8.3270    2.7691 C   0  0  0  0  0  0  0  0  0  0  0  0
   11.1802    7.4398    2.1370 C   0  0  0  0  0  0  0  0  0  0  0  0
    9.7464    7.7250    2.5506 C   0  0  0  0  0  0  0  0  0  0  0  0
    9.4528    9.2006    2.6508 C   0  0  0  0  0  0  0  0  0  0  0  0
    7.9907    9.5272    2.7197 C   0  0  0  0  0  0  0  0  0  0  0  0
    7.4511    9.6605    1.5982 O   0  0  0  0  0  0  0  0  0  0  0  0
    7.2032    9.6917    3.9188 N   0  0  0  0  0  0  0  0  0  0  0  0
    5.8190   10.1244    3.8864 C   0  0  0  0  0  0  0  0  0  0  0  0
    5.0492   10.4501    2.7707 C   0  0  0  0  0  0  0  0  0  0  0  0
    3.8118   10.8137    3.2504 C   0  0  0  0  0  0  0  0  0  0  0  0
    3.7917   10.7296    4.5924 N   0  0  0  0  0  0  0  0  0  0  0  0
    5.0092   10.3116    4.9903 C   0  0  0  0  0  0  0  0  0  0  0  0
   10.3879   10.0193    3.4937 C   0  0  0  0  0  0  0  0  0  0  0  0
   11.8511    9.7804    3.1265 C   0  0  0  0  0  0  0  0  0  0  0  0
   13.2659    6.7648    0.4822 H   0  0  0  0  0  0  0  0  0  0  0  0
   14.9817    7.1940    0.7316 H   0  0  0  0  0  0  0  0  0  0  0  0
   14.1182    6.2183    1.9789 H   0  0  0  0  0  0  0  0  0  0  0  0
   13.4353    9.0292    1.1418 H   0  0  0  0  0  0  0  0  0  0  0  0
   14.5218    9.8930    3.0061 H   0  0  0  0  0  0  0  0  0  0  0  0
   15.5925    8.8665    2.2188 H   0  0  0  0  0  0  0  0  0  0  0  0
   14.8389    8.3426    3.6484 H   0  0  0  0  0  0  0  0  0  0  0  0
   12.4711    7.8390    3.7480 H   0  0  0  0  0  0  0  0  0  0  0  0
   11.2117    7.5939    1.0361 H   0  0  0  0  0  0  0  0  0  0  0  0
   11.4077    6.3669    2.3236 H   0  0  0  0  0  0  0  0  0  0  0  0
    9.0547    7.2379    1.8268 H   0  0  0  0  0  0  0  0  0  0  0  0
    9.5649    7.2656    3.5467 H   0  0  0  0  0  0  0  0  0  0  0  0
    9.7356    9.5600    1.6294 H   0  0  0  0  0  0  0  0  0  0  0  0
    7.6552    9.5149    4.8435 H   0  0  0  0  0  0  0  0  0  0  0  0
    5.3065   10.4537    1.7245 H   0  0  0  0  0  0  0  0  0  0  0  0
    2.9693   11.1301    2.6494 H   0  0  0  0  0  0  0  0  0  0  0  0
    2.9817   10.9503    5.2127 H   0  0  0  0  0  0  0  0  0  0  0  0
    5.2923   10.1545    6.0229 H   0  0  0  0  0  0  0  0  0  0  0  0
   10.1492   11.1022    3.3982 H   0  0  0  0  0  0  0  0  0  0  0  0
   10.2369    9.7340    4.5575 H   0  0  0  0  0  0  0  0  0  0  0  0
   12.4748   10.1510    3.9689 H   0  0  0  0  0  0  0  0  0  0  0  0
   12.0642   10.4412    2.2573 H   0  0  0  0  0  0  0  0  0  0  0  0
  1  2  1  0
  2  3  1  0
  2  4  1  0
  4  5  1  0
  5  6  1  0
  6  7  1  0
  7  8  1  0
  8  9  2  0
  8 10  1  0
 10 11  1  0
 11 12  1  0
 12 13  2  0
 13 14  1  0
 14 15  1  0
  7 16  1  0
 16 17  1  0
 17  4  1  0
 15 11  2  0
  1 18  1  0
  1 19  1  0
  1 20  1  0
  2 21  1  0
  3 22  1  0
  3 23  1  0
  3 24  1  0
  4 25  1  0
  5 26  1  0
  5 27  1  0
  6 28  1  0
  6 29  1  0
  7 30  1  0
 10 31  1  0
 12 32  1  0
 13 33  1  0
 14 34  1  0
 15 35  1  0
 16 36  1  0
 16 37  1  0
 17 38  1  0
 17 39  1  0
M  CHG  1   3   1
M  END
>  <EmbedRMS>  (162) 
0.3005329260886256

$$$$

     RDKit          3D

 41 42  0  0  0  0  0  0  0  0999 V2000
   14.0109    7.0504    1.2530 C   0  0  0  0  0  0  0  0  0  0  0  0
   13.6001    8.3242    1.9897 C   0  0  0  0  0  0  0  0  0  0  0  0
   14.7019    8.8917    2.7696 N   0  0  0  0  0  4  0  0  0  0  0  0
   12.2605    8.3272    2.7670 C   0  0  0  0  0  0  0  0  0  0  0  0
   11.1785    7.4395    2.1347 C   0  0  0  0  0  0  0  0  0  0  0  0
    9.7431    7.7265    2.5438 C   0  0  0  0  0  0  0  0  0  0  0  0
    9.4480    9.2022    2.6348 C   0  0  0  0  0  0  0  0  0  0  0  0
    7.9855    9.5269    2.7212 C   0  0  0  0  0  0  0  0  0  0  0  0
    7.4160    9.6964    1.6166 O   0  0  0  0  0  0  0  0  0  0  0  0
    7.2200    9.6619    3.9307 N   0  0  0  0  0  0  0  0  0  0  0  0
    5.8087   10.0702    3.8756 C   0  0  0  0  0  0  0  0  0  0  0  0
    4.9486    8.9371    3.3964 C   0  0  0  0  0  0  0  0  0  0  0  0
    4.4548    8.7452    2.1230 C   0  0  0  0  0  0  0  0  0  0  0  0
    3.7772    7.5798    2.0873 N   0  0  0  0  0  0  0  0  0  0  0  0
    3.8798    7.0921    3.3428 C   0  0  0  0  0  0  0  0  0  0  0  0
    4.5889    7.8937    4.1582 N   0  0  0  0  0  0  0  0  0  0  0  0
   10.3837   10.0201    3.4813 C   0  0  0  0  0  0  0  0  0  0  0  0
   11.8482    9.7807    3.1209 C   0  0  0  0  0  0  0  0  0  0  0  0
   13.2670    6.7643    0.4814 H   0  0  0  0  0  0  0  0  0  0  0  0
   14.9826    7.1928    0.7336 H   0  0  0  0  0  0  0  0  0  0  0  0
   14.1165    6.2176    1.9796 H   0  0  0  0  0  0  0  0  0  0  0  0
   13.4361    9.0283    1.1408 H   0  0  0  0  0  0  0  0  0  0  0  0
   15.5914    8.8672    2.2198 H   0  0  0  0  0  0  0  0  0  0  0  0
   14.5195    9.8922    3.0077 H   0  0  0  0  0  0  0  0  0  0  0  0
   14.8374    8.3415    3.6486 H   0  0  0  0  0  0  0  0  0  0  0  0
   12.4676    7.8407    3.7469 H   0  0  0  0  0  0  0  0  0  0  0  0
   11.4048    6.3669    2.3242 H   0  0  0  0  0  0  0  0  0  0  0  0
   11.2125    7.5910    1.0336 H   0  0  0  0  0  0  0  0  0  0  0  0
    9.0527    7.2359    1.8211 H   0  0  0  0  0  0  0  0  0  0  0  0
    9.5596    7.2719    3.5418 H   0  0  0  0  0  0  0  0  0  0  0  0
    9.7204    9.5601    1.6109 H   0  0  0  0  0  0  0  0  0  0  0  0
    7.6822    9.5153    4.8558 H   0  0  0  0  0  0  0  0  0  0  0  0
    5.6911   10.9573    3.2159 H   0  0  0  0  0  0  0  0  0  0  0  0
    5.4737   10.3634    4.8934 H   0  0  0  0  0  0  0  0  0  0  0  0
    4.5840    9.4038    1.2744 H   0  0  0  0  0  0  0  0  0  0  0  0
    3.4435    6.1529    3.6564 H   0  0  0  0  0  0  0  0  0  0  0  0
    4.8181    7.7294    5.1636 H   0  0  0  0  0  0  0  0  0  0  0  0
   10.2295    9.7357    4.5450 H   0  0  0  0  0  0  0  0  0  0  0  0
   10.1466   11.1032    3.3848 H   0  0  0  0  0  0  0  0  0  0  0  0
   12.4688   10.1523    3.9652 H   0  0  0  0  0  0  0  0  0  0  0  0
   12.0645   10.4404    2.2517 H   0  0  0  0  0  0  0  0  0  0  0  0
  1  2  1  0
  2  3  1  0
  2  4  1  0
  4  5  1  0
  5  6  1  0
  6  7  1  0
  7  8  1  0
  8  9  2  0
  8 10  1  0
 10 11  1  0
 11 12  1  0
 12 13  2  0
 13 14  1  0
 14 15  2  0
 15 16  1  0
  7 17  1  0
 17 18  1  0
 18  4  1  0
 16 12  1  0
  1 19  1  0
  1 20  1  0
  1 21  1  0
  2 22  1  0
  3 23  1  0
  3 24  1  0
  3 25  1  0
  4 26  1  0
  5 27  1  0
  5 28  1  0
  6 29  1  0
  6 30  1  0
  7 31  1  0
 10 32  1  0
 11 33  1  0
 11 34  1  0
 13 35  1  0
 15 36  1  0
 16 37  1  0
 17 38  1  0
 17 39  1  0
 18 40  1  0
 18 41  1  0
M  CHG  1   3   1
M  END
>  <EmbedRMS>  (163) 
0.29359866989900446

$$$$

     RDKit          3D

 44 45  0  0  0  0  0  0  0  0999 V2000
   13.9839    7.0986    1.1859 C   0  0  0  0  0  0  0  0  0  0  0  0
   13.5805    8.3573    1.9538 C   0  0  0  0  0  0  0  0  0  0  0  0
   14.7109    8.8841    2.7307 N   0  0  0  0  0  4  0  0  0  0  0  0
   12.2751    8.3221    2.7731 C   0  0  0  0  0  0  0  0  0  0  0  0
   11.1580    7.3128    2.3949 C   0  0  0  0  0  0  0  0  0  0  0  0
    9.7984    7.9226    2.0841 C   0  0  0  0  0  0  0  0  0  0  0  0
    9.4144    8.9888    3.1081 C   0  0  0  0  0  0  0  0  0  0  0  0
    8.0087    9.4688    2.8654 C   0  0  0  0  0  0  0  0  0  0  0  0
    7.6068    9.6884    1.6882 O   0  0  0  0  0  0  0  0  0  0  0  0
    7.1357    9.6903    3.9796 N   0  0  0  0  0  0  0  0  0  0  0  0
    5.7735   10.1841    3.8210 C   0  0  0  0  0  0  0  0  0  0  0  0
    5.7940   11.6487    3.5371 C   0  0  0  0  0  0  0  0  0  0  0  0
    5.6451   12.2639    2.3095 C   0  0  0  0  0  0  0  0  0  0  0  0
    5.7724   13.5950    2.4709 N   0  0  0  0  0  0  0  0  0  0  0  0
    6.0119   13.8216    3.7540 N   0  0  0  0  0  0  0  0  0  0  0  0
    6.1879   15.1475    4.3266 C   0  0  0  0  0  0  0  0  0  0  0  0
    6.0316   12.6636    4.4370 C   0  0  0  0  0  0  0  0  0  0  0  0
   10.3958   10.1516    3.0079 C   0  0  0  0  0  0  0  0  0  0  0  0
   11.8313    9.7200    3.3035 C   0  0  0  0  0  0  0  0  0  0  0  0
   15.0005    7.2114    0.7529 H   0  0  0  0  0  0  0  0  0  0  0  0
   13.9863    6.2216    1.8671 H   0  0  0  0  0  0  0  0  0  0  0  0
   13.2932    6.9111    0.3372 H   0  0  0  0  0  0  0  0  0  0  0  0
   13.3809    9.1010    1.1484 H   0  0  0  0  0  0  0  0  0  0  0  0
   14.9939    8.1902    3.4607 H   0  0  0  0  0  0  0  0  0  0  0  0
   15.5287    9.0534    2.1006 H   0  0  0  0  0  0  0  0  0  0  0  0
   14.4915    9.7903    3.1975 H   0  0  0  0  0  0  0  0  0  0  0  0
   12.6568    7.8404    3.7044 H   0  0  0  0  0  0  0  0  0  0  0  0
   11.4413    6.6843    1.5308 H   0  0  0  0  0  0  0  0  0  0  0  0
   11.0041    6.5965    3.2356 H   0  0  0  0  0  0  0  0  0  0  0  0
    9.0353    7.1124    2.0792 H   0  0  0  0  0  0  0  0  0  0  0  0
    9.8279    8.3625    1.0617 H   0  0  0  0  0  0  0  0  0  0  0  0
    9.4744    8.5458    4.1279 H   0  0  0  0  0  0  0  0  0  0  0  0
    7.4794    9.4927    4.9466 H   0  0  0  0  0  0  0  0  0  0  0  0
    5.2059   10.0091    4.7602 H   0  0  0  0  0  0  0  0  0  0  0  0
    5.2575    9.6320    3.0058 H   0  0  0  0  0  0  0  0  0  0  0  0
    5.4567   11.7772    1.3618 H   0  0  0  0  0  0  0  0  0  0  0  0
    7.0448   15.1443    5.0332 H   0  0  0  0  0  0  0  0  0  0  0  0
    5.2656   15.4435    4.8689 H   0  0  0  0  0  0  0  0  0  0  0  0
    6.3905   15.8875    3.5235 H   0  0  0  0  0  0  0  0  0  0  0  0
    6.2088   12.5665    5.5007 H   0  0  0  0  0  0  0  0  0  0  0  0
   10.1033   10.9533    3.7223 H   0  0  0  0  0  0  0  0  0  0  0  0
   10.3528   10.5881    1.9842 H   0  0  0  0  0  0  0  0  0  0  0  0
   11.9665    9.7515    4.4091 H   0  0  0  0  0  0  0  0  0  0  0  0
   12.4756   10.5267    2.8958 H   0  0  0  0  0  0  0  0  0  0  0  0
  1  2  1  0
  2  3  1  0
  2  4  1  0
  4  5  1  0
  5  6  1  0
  6  7  1  0
  7  8  1  0
  8  9  2  0
  8 10  1  0
 10 11  1  0
 11 12  1  0
 12 13  1  0
 13 14  2  0
 14 15  1  0
 15 16  1  0
 15 17  1  0
  7 18  1  0
 18 19  1  0
 19  4  1  0
 17 12  2  0
  1 20  1  0
  1 21  1  0
  1 22  1  0
  2 23  1  0
  3 24  1  0
  3 25  1  0
  3 26  1  0
  4 27  1  0
  5 28  1  0
  5 29  1  0
  6 30  1  0
  6 31  1  0
  7 32  1  0
 10 33  1  0
 11 34  1  0
 11 35  1  0
 13 36  1  0
 16 37  1  0
 16 38  1  0
 16 39  1  0
 17 40  1  0
 18 41  1  0
 18 42  1  0
 19 43  1  0
 19 44  1  0
M  CHG  1   3   1
M  END
>  <EmbedRMS>  (164) 
0.19659211194601114

$$$$

     RDKit          3D

 43 43  0  0  0  0  0  0  0  0999 V2000
    5.7455   11.3191    6.0203 C   0  0  0  0  0  0  0  0  0  0  0  0
    5.0047   10.7821    4.8077 C   0  0  0  0  0  0  0  0  0  0  0  0
    3.5728   10.3507    5.0822 C   0  0  0  0  0  0  0  0  0  0  0  0
    5.7224    9.8551    3.8187 C   0  0  0  0  0  0  0  0  0  0  0  0
    7.1673    9.7742    3.9858 N   0  0  0  0  0  0  0  0  0  0  0  0
    8.0197    9.4860    2.8700 C   0  0  0  0  0  0  0  0  0  0  0  0
    7.6120    9.6782    1.6893 O   0  0  0  0  0  0  0  0  0  0  0  0
    9.4200    8.9947    3.1117 C   0  0  0  0  0  0  0  0  0  0  0  0
    9.7988    7.9256    2.0876 C   0  0  0  0  0  0  0  0  0  0  0  0
   11.1582    7.3137    2.3954 C   0  0  0  0  0  0  0  0  0  0  0  0
   12.2771    8.3213    2.7736 C   0  0  0  0  0  0  0  0  0  0  0  0
   13.5816    8.3566    1.9535 C   0  0  0  0  0  0  0  0  0  0  0  0
   13.9838    7.0979    1.1851 C   0  0  0  0  0  0  0  0  0  0  0  0
   14.7128    8.8826    2.7299 N   0  0  0  0  0  4  0  0  0  0  0  0
   11.8363    9.7189    3.3063 C   0  0  0  0  0  0  0  0  0  0  0  0
   10.4036   10.1539    3.0090 C   0  0  0  0  0  0  0  0  0  0  0  0
    6.6922   11.8134    5.7137 H   0  0  0  0  0  0  0  0  0  0  0  0
    5.9786   10.4860    6.7163 H   0  0  0  0  0  0  0  0  0  0  0  0
    5.1250   12.0678    6.5586 H   0  0  0  0  0  0  0  0  0  0  0  0
    4.8657   11.7152    4.2129 H   0  0  0  0  0  0  0  0  0  0  0  0
    3.0203   11.1491    5.6229 H   0  0  0  0  0  0  0  0  0  0  0  0
    3.0383   10.1417    4.1302 H   0  0  0  0  0  0  0  0  0  0  0  0
    3.5694    9.4316    5.7057 H   0  0  0  0  0  0  0  0  0  0  0  0
    5.4637   10.1654    2.7814 H   0  0  0  0  0  0  0  0  0  0  0  0
    5.3247    8.8235    3.9382 H   0  0  0  0  0  0  0  0  0  0  0  0
    7.5474    9.6168    4.9461 H   0  0  0  0  0  0  0  0  0  0  0  0
    9.4774    8.5519    4.1318 H   0  0  0  0  0  0  0  0  0  0  0  0
    9.0337    7.1173    2.0860 H   0  0  0  0  0  0  0  0  0  0  0  0
    9.8270    8.3640    1.0645 H   0  0  0  0  0  0  0  0  0  0  0  0
   11.4397    6.6861    1.5299 H   0  0  0  0  0  0  0  0  0  0  0  0
   11.0047    6.5964    3.2353 H   0  0  0  0  0  0  0  0  0  0  0  0
   12.6593    7.8378    3.7038 H   0  0  0  0  0  0  0  0  0  0  0  0
   13.3817    9.1007    1.1484 H   0  0  0  0  0  0  0  0  0  0  0  0
   15.0002    7.2104    0.7513 H   0  0  0  0  0  0  0  0  0  0  0  0
   13.9864    6.2209    1.8663 H   0  0  0  0  0  0  0  0  0  0  0  0
   13.2924    6.9108    0.3370 H   0  0  0  0  0  0  0  0  0  0  0  0
   14.4954    9.7894    3.1965 H   0  0  0  0  0  0  0  0  0  0  0  0
   15.5306    9.0506    2.0995 H   0  0  0  0  0  0  0  0  0  0  0  0
   14.9953    8.1887    3.4600 H   0  0  0  0  0  0  0  0  0  0  0  0
   12.4825   10.5253    2.9014 H   0  0  0  0  0  0  0  0  0  0  0  0
   11.9695    9.7477    4.4122 H   0  0  0  0  0  0  0  0  0  0  0  0
   10.1142   10.9583    3.7217 H   0  0  0  0  0  0  0  0  0  0  0  0
   10.3629   10.5881    1.9841 H   0  0  0  0  0  0  0  0  0  0  0  0
  1  2  1  0
  2  3  1  0
  2  4  1  0
  4  5  1  0
  5  6  1  0
  6  7  2  0
  6  8  1  0
  8  9  1  0
  9 10  1  0
 10 11  1  0
 11 12  1  0
 12 13  1  0
 12 14  1  0
 11 15  1  0
 15 16  1  0
 16  8  1  0
  1 17  1  0
  1 18  1  0
  1 19  1  0
  2 20  1  0
  3 21  1  0
  3 22  1  0
  3 23  1  0
  4 24  1  0
  4 25  1  0
  5 26  1  0
  8 27  1  0
  9 28  1  0
  9 29  1  0
 10 30  1  0
 10 31  1  0
 11 32  1  0
 12 33  1  0
 13 34  1  0
 13 35  1  0
 13 36  1  0
 14 37  1  0
 14 38  1  0
 14 39  1  0
 15 40  1  0
 15 41  1  0
 16 42  1  0
 16 43  1  0
M  CHG  1  14   1
M  END
>  <EmbedRMS>  (165) 
0.28373172213554615

$$$$

     RDKit          3D

 43 44  0  0  0  0  0  0  0  0999 V2000
   13.9839    7.0986    1.1858 C   0  0  0  0  0  0  0  0  0  0  0  0
   13.5806    8.3573    1.9538 C   0  0  0  0  0  0  0  0  0  0  0  0
   14.7109    8.8840    2.7307 N   0  0  0  0  0  4  0  0  0  0  0  0
   12.2751    8.3221    2.7730 C   0  0  0  0  0  0  0  0  0  0  0  0
   11.1580    7.3128    2.3948 C   0  0  0  0  0  0  0  0  0  0  0  0
    9.7984    7.9226    2.0839 C   0  0  0  0  0  0  0  0  0  0  0  0
    9.4145    8.9888    3.1079 C   0  0  0  0  0  0  0  0  0  0  0  0
    8.0087    9.4688    2.8658 C   0  0  0  0  0  0  0  0  0  0  0  0
    7.6062    9.6887    1.6888 O   0  0  0  0  0  0  0  0  0  0  0  0
    7.1366    9.6905    3.9806 N   0  0  0  0  0  0  0  0  0  0  0  0
    5.7737   10.1817    3.8230 C   0  0  0  0  0  0  0  0  0  0  0  0
    5.7929   11.6433    3.5214 C   0  0  0  0  0  0  0  0  0  0  0  0
    5.5564   12.2274    2.2963 C   0  0  0  0  0  0  0  0  0  0  0  0
    5.6968   13.5627    2.4112 N   0  0  0  0  0  0  0  0  0  0  0  0
    6.0230   13.7427    3.7090 C   0  0  0  0  0  0  0  0  0  0  0  0
    6.2684   15.0262    4.2768 N   0  0  0  0  0  0  0  0  0  0  0  0
    6.0967   12.5988    4.4132 N   0  0  0  0  0  0  0  0  0  0  0  0
   10.3959   10.1516    3.0078 C   0  0  0  0  0  0  0  0  0  0  0  0
   11.8313    9.7200    3.3035 C   0  0  0  0  0  0  0  0  0  0  0  0
   15.0006    7.2114    0.7530 H   0  0  0  0  0  0  0  0  0  0  0  0
   13.9862    6.2216    1.8671 H   0  0  0  0  0  0  0  0  0  0  0  0
   13.2933    6.9112    0.3371 H   0  0  0  0  0  0  0  0  0  0  0  0
   13.3809    9.1010    1.1484 H   0  0  0  0  0  0  0  0  0  0  0  0
   14.9940    8.1901    3.4605 H   0  0  0  0  0  0  0  0  0  0  0  0
   15.5287    9.0536    2.1006 H   0  0  0  0  0  0  0  0  0  0  0  0
   14.4914    9.7902    3.1977 H   0  0  0  0  0  0  0  0  0  0  0  0
   12.6568    7.8404    3.7044 H   0  0  0  0  0  0  0  0  0  0  0  0
   11.4413    6.6843    1.5306 H   0  0  0  0  0  0  0  0  0  0  0  0
   11.0041    6.5965    3.2354 H   0  0  0  0  0  0  0  0  0  0  0  0
    9.0353    7.1124    2.0790 H   0  0  0  0  0  0  0  0  0  0  0  0
    9.8279    8.3626    1.0615 H   0  0  0  0  0  0  0  0  0  0  0  0
    9.4748    8.5456    4.1277 H   0  0  0  0  0  0  0  0  0  0  0  0
    7.4813    9.4934    4.9473 H   0  0  0  0  0  0  0  0  0  0  0  0
    5.2120   10.0214    4.7681 H   0  0  0  0  0  0  0  0  0  0  0  0
    5.2533    9.6171    3.0191 H   0  0  0  0  0  0  0  0  0  0  0  0
    5.3008   11.7167    1.3774 H   0  0  0  0  0  0  0  0  0  0  0  0
    6.5193   15.1179    5.2860 H   0  0  0  0  0  0  0  0  0  0  0  0
    6.1993   15.8847    3.6868 H   0  0  0  0  0  0  0  0  0  0  0  0
    6.3375   12.4810    5.4226 H   0  0  0  0  0  0  0  0  0  0  0  0
   10.1034   10.9533    3.7222 H   0  0  0  0  0  0  0  0  0  0  0  0
   10.3529   10.5881    1.9841 H   0  0  0  0  0  0  0  0  0  0  0  0
   12.4757   10.5266    2.8958 H   0  0  0  0  0  0  0  0  0  0  0  0
   11.9665    9.7515    4.4090 H   0  0  0  0  0  0  0  0  0  0  0  0
  1  2  1  0
  2  3  1  0
  2  4  1  0
  4  5  1  0
  5  6  1  0
  6  7  1  0
  7  8  1  0
  8  9  2  0
  8 10  1  0
 10 11  1  0
 11 12  1  0
 12 13  2  0
 13 14  1  0
 14 15  2  0
 15 16  1  0
 15 17  1  0
  7 18  1  0
 18 19  1  0
 19  4  1  0
 17 12  1  0
  1 20  1  0
  1 21  1  0
  1 22  1  0
  2 23  1  0
  3 24  1  0
  3 25  1  0
  3 26  1  0
  4 27  1  0
  5 28  1  0
  5 29  1  0
  6 30  1  0
  6 31  1  0
  7 32  1  0
 10 33  1  0
 11 34  1  0
 11 35  1  0
 13 36  1  0
 16 37  1  0
 16 38  1  0
 17 39  1  0
 18 40  1  0
 18 41  1  0
 19 42  1  0
 19 43  1  0
M  CHG  1   3   1
M  END
>  <EmbedRMS>  (166) 
0.19656450682361806

$$$$

     RDKit          3D

 43 44  0  0  0  0  0  0  0  0999 V2000
   14.0276    7.2301    1.0858 C   0  0  0  0  0  0  0  0  0  0  0  0
   13.6459    7.9626    2.3850 C   0  0  0  0  0  0  0  0  0  0  0  0
   14.6273    9.0243    2.6470 N   0  0  0  0  0  4  0  0  0  0  0  0
   12.1819    8.5085    2.2960 C   0  0  0  0  0  0  0  0  0  0  0  0
   11.1978    7.3499    2.5409 C   0  0  0  0  0  0  0  0  0  0  0  0
    9.7345    7.7437    2.3739 C   0  0  0  0  0  0  0  0  0  0  0  0
    9.4500    9.2139    2.6409 C   0  0  0  0  0  0  0  0  0  0  0  0
    7.9871    9.5385    2.7237 C   0  0  0  0  0  0  0  0  0  0  0  0
    7.4165    9.6879    1.6153 O   0  0  0  0  0  0  0  0  0  0  0  0
    7.2149    9.6895    3.9283 N   0  0  0  0  0  0  0  0  0  0  0  0
    5.8138   10.1222    3.8054 C   0  0  0  0  0  0  0  0  0  0  0  0
    5.1472   10.2607    5.1400 C   0  0  0  0  0  0  0  0  0  0  0  0
    4.4718    9.1754    5.7134 C   0  0  0  0  0  0  0  0  0  0  0  0
    3.8687    9.3139    6.9637 C   0  0  0  0  0  0  0  0  0  0  0  0
    3.9494   10.5386    7.6297 C   0  0  0  0  0  0  0  0  0  0  0  0
    4.6077   11.5829    7.0597 N   0  0  0  0  0  0  0  0  0  0  0  0
    5.2027   11.4727    5.8424 C   0  0  0  0  0  0  0  0  0  0  0  0
   10.4185   10.0737    3.4302 C   0  0  0  0  0  0  0  0  0  0  0  0
   11.8964    9.6377    3.3188 C   0  0  0  0  0  0  0  0  0  0  0  0
   13.3803    6.3499    0.9044 H   0  0  0  0  0  0  0  0  0  0  0  0
   13.9572    7.9169    0.2153 H   0  0  0  0  0  0  0  0  0  0  0  0
   15.0709    6.8548    1.1517 H   0  0  0  0  0  0  0  0  0  0  0  0
   13.7144    7.2277    3.2199 H   0  0  0  0  0  0  0  0  0  0  0  0
   15.5990    8.6418    2.5845 H   0  0  0  0  0  0  0  0  0  0  0  0
   14.5149    9.3994    3.6159 H   0  0  0  0  0  0  0  0  0  0  0  0
   14.5263    9.7976    1.9494 H   0  0  0  0  0  0  0  0  0  0  0  0
   12.0112    8.9222    1.2764 H   0  0  0  0  0  0  0  0  0  0  0  0
   11.3979    6.4997    1.8580 H   0  0  0  0  0  0  0  0  0  0  0  0
   11.3436    6.9702    3.5775 H   0  0  0  0  0  0  0  0  0  0  0  0
    9.3957    7.4730    1.3468 H   0  0  0  0  0  0  0  0  0  0  0  0
    9.1283    7.1284    3.0751 H   0  0  0  0  0  0  0  0  0  0  0  0
    9.7095    9.6218    1.6318 H   0  0  0  0  0  0  0  0  0  0  0  0
    7.6566    9.5244    4.8608 H   0  0  0  0  0  0  0  0  0  0  0  0
    5.2544    9.3860    3.1871 H   0  0  0  0  0  0  0  0  0  0  0  0
    5.7751   11.0969    3.2707 H   0  0  0  0  0  0  0  0  0  0  0  0
    4.4175    8.2247    5.1974 H   0  0  0  0  0  0  0  0  0  0  0  0
    3.3461    8.4800    7.4142 H   0  0  0  0  0  0  0  0  0  0  0  0
    3.4872   10.6595    8.6003 H   0  0  0  0  0  0  0  0  0  0  0  0
    5.7224   12.3263    5.4264 H   0  0  0  0  0  0  0  0  0  0  0  0
   10.1212   10.0281    4.5004 H   0  0  0  0  0  0  0  0  0  0  0  0
   10.3159   11.1407    3.1251 H   0  0  0  0  0  0  0  0  0  0  0  0
   12.2359    9.3018    4.3242 H   0  0  0  0  0  0  0  0  0  0  0  0
   12.4950   10.5353    3.0521 H   0  0  0  0  0  0  0  0  0  0  0  0
  1  2  1  0
  2  3  1  0
  2  4  1  0
  4  5  1  0
  5  6  1  0
  6  7  1  0
  7  8  1  0
  8  9  2  0
  8 10  1  0
 10 11  1  0
 11 12  1  0
 12 13  2  0
 13 14  1  0
 14 15  2  0
 15 16  1  0
 16 17  2  0
  7 18  1  0
 18 19  1  0
 19  4  1  0
 17 12  1  0
  1 20  1  0
  1 21  1  0
  1 22  1  0
  2 23  1  0
  3 24  1  0
  3 25  1  0
  3 26  1  0
  4 27  1  0
  5 28  1  0
  5 29  1  0
  6 30  1  0
  6 31  1  0
  7 32  1  0
 10 33  1  0
 11 34  1  0
 11 35  1  0
 13 36  1  0
 14 37  1  0
 15 38  1  0
 17 39  1  0
 18 40  1  0
 18 41  1  0
 19 42  1  0
 19 43  1  0
M  CHG  1   3   1
M  END
>  <EmbedRMS>  (167) 
0.17084101544492625

$$$$

     RDKit          3D

 45 45  0  0  0  0  0  0  0  0999 V2000
    6.6426   12.2821    2.6516 C   0  0  0  0  0  0  0  0  0  0  0  0
    5.6157   11.5113    3.0196 C   0  0  0  0  0  0  0  0  0  0  0  0
    4.2139   11.9100    2.6324 C   0  0  0  0  0  0  0  0  0  0  0  0
    5.8597   10.3523    3.9284 C   0  0  0  0  0  0  0  0  0  0  0  0
    4.8899    9.9517    4.7721 C   0  0  0  0  0  0  0  0  0  0  0  0
    5.0638    8.8198    5.7367 C   0  0  0  0  0  0  0  0  0  0  0  0
    7.1587    9.7297    4.0017 N   0  0  0  0  0  0  0  0  0  0  0  0
    8.0094    9.4770    2.8770 C   0  0  0  0  0  0  0  0  0  0  0  0
    7.5925    9.6699    1.6995 O   0  0  0  0  0  0  0  0  0  0  0  0
    9.4190    8.9882    3.1140 C   0  0  0  0  0  0  0  0  0  0  0  0
    9.7814    7.9392    2.0698 C   0  0  0  0  0  0  0  0  0  0  0  0
   11.1442    7.3173    2.3173 C   0  0  0  0  0  0  0  0  0  0  0  0
   12.2312    8.2990    2.7947 C   0  0  0  0  0  0  0  0  0  0  0  0
   13.7088    7.9146    2.4295 C   0  0  0  0  0  0  0  0  0  0  0  0
   13.9319    7.3320    1.0257 C   0  0  0  0  0  0  0  0  0  0  0  0
   14.6475    9.0159    2.6730 N   0  0  0  0  0  4  0  0  0  0  0  0
   11.8850    9.7892    2.9963 C   0  0  0  0  0  0  0  0  0  0  0  0
   10.3931   10.1701    3.0593 C   0  0  0  0  0  0  0  0  0  0  0  0
    6.5060   13.1634    2.0375 H   0  0  0  0  0  0  0  0  0  0  0  0
    6.5060   13.1634    2.0375 H   0  0  0  0  0  0  0  0  0  0  0  0
    4.2031   12.4754    1.6757 H   0  0  0  0  0  0  0  0  0  0  0  0
    3.5836   11.0078    2.4847 H   0  0  0  0  0  0  0  0  0  0  0  0
    3.7720   12.5450    3.4286 H   0  0  0  0  0  0  0  0  0  0  0  0
    3.9254   10.4428    4.7786 H   0  0  0  0  0  0  0  0  0  0  0  0
    5.3803    7.9015    5.1981 H   0  0  0  0  0  0  0  0  0  0  0  0
    5.8159    9.0848    6.5090 H   0  0  0  0  0  0  0  0  0  0  0  0
    4.0999    8.6139    6.2477 H   0  0  0  0  0  0  0  0  0  0  0  0
    7.5134    9.4348    4.9389 H   0  0  0  0  0  0  0  0  0  0  0  0
    9.4838    8.5152    4.1195 H   0  0  0  0  0  0  0  0  0  0  0  0
    9.7856    8.4081    1.0593 H   0  0  0  0  0  0  0  0  0  0  0  0
    9.0155    7.1315    2.0616 H   0  0  0  0  0  0  0  0  0  0  0  0
   11.4284    6.8358    1.3632 H   0  0  0  0  0  0  0  0  0  0  0  0
   11.0277    6.4824    3.0472 H   0  0  0  0  0  0  0  0  0  0  0  0
   12.2338    8.0276    3.8788 H   0  0  0  0  0  0  0  0  0  0  0  0
   14.0054    7.0847    3.1155 H   0  0  0  0  0  0  0  0  0  0  0  0
   13.5346    6.2977    0.9557 H   0  0  0  0  0  0  0  0  0  0  0  0
   13.4427    7.9752    0.2638 H   0  0  0  0  0  0  0  0  0  0  0  0
   15.0164    7.2729    0.7928 H   0  0  0  0  0  0  0  0  0  0  0  0
   14.5093    9.7854    1.9790 H   0  0  0  0  0  0  0  0  0  0  0  0
   14.5387    9.3811    3.6464 H   0  0  0  0  0  0  0  0  0  0  0  0
   15.6306    8.6688    2.5853 H   0  0  0  0  0  0  0  0  0  0  0  0
   12.3172   10.3488    2.1397 H   0  0  0  0  0  0  0  0  0  0  0  0
   12.3886   10.1897    3.9059 H   0  0  0  0  0  0  0  0  0  0  0  0
   10.1546   10.7911    2.1654 H   0  0  0  0  0  0  0  0  0  0  0  0
   10.2174   10.8183    3.9465 H   0  0  0  0  0  0  0  0  0  0  0  0
  1  2  2  3
  2  3  1  0
  2  4  1  0
  4  5  2  3
  5  6  1  0
  4  7  1  0
  7  8  1  0
  8  9  2  0
  8 10  1  0
 10 11  1  0
 11 12  1  0
 12 13  1  0
 13 14  1  0
 14 15  1  0
 14 16  1  0
 13 17  1  0
 17 18  1  0
 18 10  1  0
  1 19  1  0
  1 20  1  0
  3 21  1  0
  3 22  1  0
  3 23  1  0
  5 24  1  0
  6 25  1  0
  6 26  1  0
  6 27  1  0
  7 28  1  0
 10 29  1  0
 11 30  1  0
 11 31  1  0
 12 32  1  0
 12 33  1  0
 13 34  1  0
 14 35  1  0
 15 36  1  0
 15 37  1  0
 15 38  1  0
 16 39  1  0
 16 40  1  0
 16 41  1  0
 17 42  1  0
 17 43  1  0
 18 44  1  0
 18 45  1  0
M  CHG  1  16   1
M  END
>  <EmbedRMS>  (168) 
0.16480955270904202

$$$$

     RDKit          3D

 41 42  0  0  0  0  0  0  0  0999 V2000
   13.9847    7.0988    1.1849 C   0  0  0  0  0  0  0  0  0  0  0  0
   13.5816    8.3572    1.9535 C   0  0  0  0  0  0  0  0  0  0  0  0
   14.7124    8.8838    2.7300 N   0  0  0  0  0  4  0  0  0  0  0  0
   12.2773    8.3209    2.7737 C   0  0  0  0  0  0  0  0  0  0  0  0
   11.1607    7.3107    2.3967 C   0  0  0  0  0  0  0  0  0  0  0  0
    9.8034    7.9207    2.0803 C   0  0  0  0  0  0  0  0  0  0  0  0
    9.4183    8.9872    3.1024 C   0  0  0  0  0  0  0  0  0  0  0  0
    8.0148    9.4682    2.8544 C   0  0  0  0  0  0  0  0  0  0  0  0
    7.6247    9.6822    1.6746 O   0  0  0  0  0  0  0  0  0  0  0  0
    7.1491    9.7011    3.9721 N   0  0  0  0  0  0  0  0  0  0  0  0
    5.7839   10.1362    3.8888 C   0  0  0  0  0  0  0  0  0  0  0  0
    5.0471   10.4441    2.7548 C   0  0  0  0  0  0  0  0  0  0  0  0
    3.8048   10.8205    3.1167 N   0  0  0  0  0  0  0  0  0  0  0  0
    3.7319   10.7593    4.4601 C   0  0  0  0  0  0  0  0  0  0  0  0
    4.9425   10.3388    4.9630 C   0  0  0  0  0  0  0  0  0  0  0  0
    5.2501   10.1517    6.3450 N   0  0  0  0  0  0  0  0  0  0  0  0
   10.3993   10.1503    3.0056 C   0  0  0  0  0  0  0  0  0  0  0  0
   11.8332    9.7183    3.3050 C   0  0  0  0  0  0  0  0  0  0  0  0
   13.9884    6.2217    1.8660 H   0  0  0  0  0  0  0  0  0  0  0  0
   13.2931    6.9113    0.3370 H   0  0  0  0  0  0  0  0  0  0  0  0
   15.0007    7.2123    0.7507 H   0  0  0  0  0  0  0  0  0  0  0  0
   13.3811    9.1013    1.1486 H   0  0  0  0  0  0  0  0  0  0  0  0
   14.9961    8.1896    3.4592 H   0  0  0  0  0  0  0  0  0  0  0  0
   14.4935    9.7897    3.1975 H   0  0  0  0  0  0  0  0  0  0  0  0
   15.5297    9.0536    2.0993 H   0  0  0  0  0  0  0  0  0  0  0  0
   12.6604    7.8392    3.7044 H   0  0  0  0  0  0  0  0  0  0  0  0
   11.0039    6.5984    3.2403 H   0  0  0  0  0  0  0  0  0  0  0  0
   11.4456    6.6777    1.5363 H   0  0  0  0  0  0  0  0  0  0  0  0
    9.0397    7.1111    2.0734 H   0  0  0  0  0  0  0  0  0  0  0  0
    9.8376    8.3598    1.0576 H   0  0  0  0  0  0  0  0  0  0  0  0
    9.4769    8.5424    4.1216 H   0  0  0  0  0  0  0  0  0  0  0  0
    7.5505    9.5419    4.9216 H   0  0  0  0  0  0  0  0  0  0  0  0
    5.3694   10.4077    1.7257 H   0  0  0  0  0  0  0  0  0  0  0  0
    3.0363   11.1086    2.4715 H   0  0  0  0  0  0  0  0  0  0  0  0
    2.8497   11.0064    5.0363 H   0  0  0  0  0  0  0  0  0  0  0  0
    6.1878    9.8233    6.6606 H   0  0  0  0  0  0  0  0  0  0  0  0
    4.5231   10.3419    7.0698 H   0  0  0  0  0  0  0  0  0  0  0  0
   10.3596   10.5871    1.9819 H   0  0  0  0  0  0  0  0  0  0  0  0
   10.1052   10.9516    3.7198 H   0  0  0  0  0  0  0  0  0  0  0  0
   11.9647    9.7478    4.4111 H   0  0  0  0  0  0  0  0  0  0  0  0
   12.4788   10.5255    2.9007 H   0  0  0  0  0  0  0  0  0  0  0  0
  1  2  1  0
  2  3  1  0
  2  4  1  0
  4  5  1  0
  5  6  1  0
  6  7  1  0
  7  8  1  0
  8  9  2  0
  8 10  1  0
 10 11  1  0
 11 12  2  0
 12 13  1  0
 13 14  1  0
 14 15  2  0
 15 16  1  0
  7 17  1  0
 17 18  1  0
 18  4  1  0
 15 11  1  0
  1 19  1  0
  1 20  1  0
  1 21  1  0
  2 22  1  0
  3 23  1  0
  3 24  1  0
  3 25  1  0
  4 26  1  0
  5 27  1  0
  5 28  1  0
  6 29  1  0
  6 30  1  0
  7 31  1  0
 10 32  1  0
 12 33  1  0
 13 34  1  0
 14 35  1  0
 16 36  1  0
 16 37  1  0
 17 38  1  0
 17 39  1  0
 18 40  1  0
 18 41  1  0
M  CHG  1   3   1
M  END
>  <EmbedRMS>  (169) 
0.20222811455084339

$$$$

     RDKit          3D

 43 43  0  0  0  0  0  0  0  0999 V2000
    5.1668   10.8957    4.9912 C   0  0  0  0  0  0  0  0  0  0  0  0
    5.8564    9.7580    4.2807 C   0  0  0  0  0  0  0  0  0  0  0  0
    4.9783    8.9456    3.3204 C   0  0  0  0  0  0  0  0  0  0  0  0
    4.7804    7.6252    3.9182 N   0  0  0  0  0  4  0  0  0  0  0  0
    7.2447   10.0138    3.9239 N   0  0  0  0  0  0  0  0  0  0  0  0
    8.0000    9.4904    2.8323 C   0  0  0  0  0  0  0  0  0  0  0  0
    7.5842    9.6383    1.6525 O   0  0  0  0  0  0  0  0  0  0  0  0
    9.4014    8.9926    3.0914 C   0  0  0  0  0  0  0  0  0  0  0  0
    9.7947    7.9198    2.0778 C   0  0  0  0  0  0  0  0  0  0  0  0
   11.1535    7.3108    2.4002 C   0  0  0  0  0  0  0  0  0  0  0  0
   12.2723    8.3197    2.7746 C   0  0  0  0  0  0  0  0  0  0  0  0
   13.5774    8.3573    1.9538 C   0  0  0  0  0  0  0  0  0  0  0  0
   13.9808    7.0995    1.1846 C   0  0  0  0  0  0  0  0  0  0  0  0
   14.7089    8.8835    2.7299 N   0  0  0  0  0  4  0  0  0  0  0  0
   11.8264    9.7140    3.3094 C   0  0  0  0  0  0  0  0  0  0  0  0
   10.3953   10.1493    2.9997 C   0  0  0  0  0  0  0  0  0  0  0  0
    4.2075   10.5564    5.4401 H   0  0  0  0  0  0  0  0  0  0  0  0
    5.8088   11.3084    5.7999 H   0  0  0  0  0  0  0  0  0  0  0  0
    4.9520   11.7071    4.2645 H   0  0  0  0  0  0  0  0  0  0  0  0
    6.0022    9.1004    5.1700 H   0  0  0  0  0  0  0  0  0  0  0  0
    5.4277    8.8350    2.3161 H   0  0  0  0  0  0  0  0  0  0  0  0
    3.9901    9.4381    3.1800 H   0  0  0  0  0  0  0  0  0  0  0  0
    4.1963    7.0514    3.2679 H   0  0  0  0  0  0  0  0  0  0  0  0
    5.6960    7.1337    4.0459 H   0  0  0  0  0  0  0  0  0  0  0  0
    4.2675    7.6990    4.8280 H   0  0  0  0  0  0  0  0  0  0  0  0
    7.8180   10.4539    4.6803 H   0  0  0  0  0  0  0  0  0  0  0  0
    9.4356    8.5554    4.1150 H   0  0  0  0  0  0  0  0  0  0  0  0
    9.0308    7.1105    2.0724 H   0  0  0  0  0  0  0  0  0  0  0  0
    9.8316    8.3538    1.0532 H   0  0  0  0  0  0  0  0  0  0  0  0
   10.9935    6.6036    3.2475 H   0  0  0  0  0  0  0  0  0  0  0  0
   11.4402    6.6723    1.5444 H   0  0  0  0  0  0  0  0  0  0  0  0
   12.6576    7.8367    3.7038 H   0  0  0  0  0  0  0  0  0  0  0  0
   13.3761    9.1020    1.1497 H   0  0  0  0  0  0  0  0  0  0  0  0
   13.2861    6.9098    0.3396 H   0  0  0  0  0  0  0  0  0  0  0  0
   14.9950    7.2152    0.7465 H   0  0  0  0  0  0  0  0  0  0  0  0
   13.9888    6.2228    1.8662 H   0  0  0  0  0  0  0  0  0  0  0  0
   14.9930    8.1889    3.4587 H   0  0  0  0  0  0  0  0  0  0  0  0
   14.4905    9.7892    3.1981 H   0  0  0  0  0  0  0  0  0  0  0  0
   15.5258    9.0535    2.0989 H   0  0  0  0  0  0  0  0  0  0  0  0
   12.4765   10.5226    2.9154 H   0  0  0  0  0  0  0  0  0  0  0  0
   11.9475    9.7370    4.4168 H   0  0  0  0  0  0  0  0  0  0  0  0
   10.3649   10.5830    1.9744 H   0  0  0  0  0  0  0  0  0  0  0  0
   10.1043   10.9570    3.7074 H   0  0  0  0  0  0  0  0  0  0  0  0
  1  2  1  0
  2  3  1  0
  3  4  1  0
  2  5  1  0
  5  6  1  0
  6  7  2  0
  6  8  1  0
  8  9  1  0
  9 10  1  0
 10 11  1  0
 11 12  1  0
 12 13  1  0
 12 14  1  0
 11 15  1  0
 15 16  1  0
 16  8  1  0
  1 17  1  0
  1 18  1  0
  1 19  1  0
  2 20  1  0
  3 21  1  0
  3 22  1  0
  4 23  1  0
  4 24  1  0
  4 25  1  0
  5 26  1  0
  8 27  1  0
  9 28  1  0
  9 29  1  0
 10 30  1  0
 10 31  1  0
 11 32  1  0
 12 33  1  0
 13 34  1  0
 13 35  1  0
 13 36  1  0
 14 37  1  0
 14 38  1  0
 14 39  1  0
 15 40  1  0
 15 41  1  0
 16 42  1  0
 16 43  1  0
M  CHG  2   4   1  14   1
M  END
>  <EmbedRMS>  (170) 
0.3005344476337905

$$$$

     RDKit          3D

 41 42  0  0  0  0  0  0  0  0999 V2000
   13.9848    7.0986    1.1851 C   0  0  0  0  0  0  0  0  0  0  0  0
   13.5818    8.3571    1.9535 C   0  0  0  0  0  0  0  0  0  0  0  0
   14.7125    8.8837    2.7300 N   0  0  0  0  0  4  0  0  0  0  0  0
   12.2774    8.3210    2.7736 C   0  0  0  0  0  0  0  0  0  0  0  0
   11.1608    7.3109    2.3965 C   0  0  0  0  0  0  0  0  0  0  0  0
    9.8027    7.9207    2.0828 C   0  0  0  0  0  0  0  0  0  0  0  0
    9.4191    8.9871    3.1060 C   0  0  0  0  0  0  0  0  0  0  0  0
    8.0160    9.4679    2.8600 C   0  0  0  0  0  0  0  0  0  0  0  0
    7.6248    9.6823    1.6801 O   0  0  0  0  0  0  0  0  0  0  0  0
    7.1498    9.7002    3.9783 N   0  0  0  0  0  0  0  0  0  0  0  0
    5.7892   10.1357    3.8873 C   0  0  0  0  0  0  0  0  0  0  0  0
    5.0500   10.4463    2.7574 C   0  0  0  0  0  0  0  0  0  0  0  0
    3.8154   10.8163    3.1459 N   0  0  0  0  0  0  0  0  0  0  0  0
    3.7653   10.7356    4.4672 N   0  0  0  0  0  0  0  0  0  0  0  0
    2.5952   11.0848    5.2570 C   0  0  0  0  0  0  0  0  0  0  0  0
    4.9506   10.3352    4.9580 C   0  0  0  0  0  0  0  0  0  0  0  0
   10.3996   10.1503    3.0069 C   0  0  0  0  0  0  0  0  0  0  0  0
   11.8338    9.7186    3.3047 C   0  0  0  0  0  0  0  0  0  0  0  0
   13.9881    6.2215    1.8662 H   0  0  0  0  0  0  0  0  0  0  0  0
   15.0011    7.2119    0.7512 H   0  0  0  0  0  0  0  0  0  0  0  0
   13.2935    6.9112    0.3369 H   0  0  0  0  0  0  0  0  0  0  0  0
   13.3814    9.1011    1.1484 H   0  0  0  0  0  0  0  0  0  0  0  0
   15.5300    9.0533    2.0994 H   0  0  0  0  0  0  0  0  0  0  0  0
   14.9961    8.1897    3.4594 H   0  0  0  0  0  0  0  0  0  0  0  0
   14.4937    9.7898    3.1972 H   0  0  0  0  0  0  0  0  0  0  0  0
   12.6603    7.8393    3.7045 H   0  0  0  0  0  0  0  0  0  0  0  0
   11.0055    6.5970    3.2390 H   0  0  0  0  0  0  0  0  0  0  0  0
   11.4449    6.6797    1.5345 H   0  0  0  0  0  0  0  0  0  0  0  0
    9.0392    7.1109    2.0771 H   0  0  0  0  0  0  0  0  0  0  0  0
    9.8350    8.3599    1.0601 H   0  0  0  0  0  0  0  0  0  0  0  0
    9.4783    8.5432    4.1255 H   0  0  0  0  0  0  0  0  0  0  0  0
    7.5318    9.5376    4.9374 H   0  0  0  0  0  0  0  0  0  0  0  0
    5.3608   10.4205    1.7246 H   0  0  0  0  0  0  0  0  0  0  0  0
    1.6866   11.0770    4.6182 H   0  0  0  0  0  0  0  0  0  0  0  0
    2.7274   12.0990    5.6885 H   0  0  0  0  0  0  0  0  0  0  0  0
    2.4588   10.3506    6.0792 H   0  0  0  0  0  0  0  0  0  0  0  0
    5.1820   10.2005    6.0071 H   0  0  0  0  0  0  0  0  0  0  0  0
   10.3586   10.5864    1.9829 H   0  0  0  0  0  0  0  0  0  0  0  0
   10.1064   10.9521    3.7209 H   0  0  0  0  0  0  0  0  0  0  0  0
   11.9668    9.7488    4.4106 H   0  0  0  0  0  0  0  0  0  0  0  0
   12.4789   10.5257    2.8991 H   0  0  0  0  0  0  0  0  0  0  0  0
  1  2  1  0
  2  3  1  0
  2  4  1  0
  4  5  1  0
  5  6  1  0
  6  7  1  0
  7  8  1  0
  8  9  2  0
  8 10  1  0
 10 11  1  0
 11 12  1  0
 12 13  2  0
 13 14  1  0
 14 15  1  0
 14 16  1  0
  7 17  1  0
 17 18  1  0
 18  4  1  0
 16 11  2  0
  1 19  1  0
  1 20  1  0
  1 21  1  0
  2 22  1  0
  3 23  1  0
  3 24  1  0
  3 25  1  0
  4 26  1  0
  5 27  1  0
  5 28  1  0
  6 29  1  0
  6 30  1  0
  7 31  1  0
 10 32  1  0
 12 33  1  0
 15 34  1  0
 15 35  1  0
 15 36  1  0
 16 37  1  0
 17 38  1  0
 17 39  1  0
 18 40  1  0
 18 41  1  0
M  CHG  1   3   1
M  END
>  <EmbedRMS>  (171) 
0.202216898800577

$$$$

     RDKit          3D

 41 42  0  0  0  0  0  0  0  0999 V2000
   14.0155    7.0452    1.2243 C   0  0  0  0  0  0  0  0  0  0  0  0
   13.6577    8.3402    1.9340 C   0  0  0  0  0  0  0  0  0  0  0  0
   14.6213    8.7734    2.9399 N   0  0  0  0  0  4  0  0  0  0  0  0
   12.1479    8.5868    2.2358 C   0  0  0  0  0  0  0  0  0  0  0  0
   11.2708    7.3634    2.5450 C   0  0  0  0  0  0  0  0  0  0  0  0
    9.7738    7.7130    2.4384 C   0  0  0  0  0  0  0  0  0  0  0  0
    9.4545    9.1902    2.6817 C   0  0  0  0  0  0  0  0  0  0  0  0
    7.9930    9.5119    2.7236 C   0  0  0  0  0  0  0  0  0  0  0  0
    7.4746    9.6077    1.5899 O   0  0  0  0  0  0  0  0  0  0  0  0
    7.1920    9.7025    3.9130 N   0  0  0  0  0  0  0  0  0  0  0  0
    5.8002   10.1396    3.9098 C   0  0  0  0  0  0  0  0  0  0  0  0
    5.1136   10.2622    5.1332 C   0  0  0  0  0  0  0  0  0  0  0  0
    3.7791   10.6918    5.1678 C   0  0  0  0  0  0  0  0  0  0  0  0
    3.1050   10.9965    3.9846 C   0  0  0  0  0  0  0  0  0  0  0  0
    3.7620   10.8848    2.7663 C   0  0  0  0  0  0  0  0  0  0  0  0
    5.0915   10.4774    2.7238 C   0  0  0  0  0  0  0  0  0  0  0  0
   10.4123   10.0785    3.4530 C   0  0  0  0  0  0  0  0  0  0  0  0
   11.8967    9.6862    3.2904 C   0  0  0  0  0  0  0  0  0  0  0  0
   13.3412    6.8748    0.3575 H   0  0  0  0  0  0  0  0  0  0  0  0
   15.0600    7.0795    0.8460 H   0  0  0  0  0  0  0  0  0  0  0  0
   13.9272    6.1936    1.9310 H   0  0  0  0  0  0  0  0  0  0  0  0
   13.8472    9.0661    1.1041 H   0  0  0  0  0  0  0  0  0  0  0  0
   14.4394    8.2635    3.8342 H   0  0  0  0  0  0  0  0  0  0  0  0
   14.5690    9.8041    3.1044 H   0  0  0  0  0  0  0  0  0  0  0  0
   15.5964    8.5564    2.6293 H   0  0  0  0  0  0  0  0  0  0  0  0
   11.7549    8.9789    1.2687 H   0  0  0  0  0  0  0  0  0  0  0  0
   11.4801    6.5302    1.8427 H   0  0  0  0  0  0  0  0  0  0  0  0
   11.5022    7.0014    3.5710 H   0  0  0  0  0  0  0  0  0  0  0  0
    9.3960    7.4069    1.4357 H   0  0  0  0  0  0  0  0  0  0  0  0
    9.2216    7.1022    3.1855 H   0  0  0  0  0  0  0  0  0  0  0  0
    9.7131    9.5882    1.6698 H   0  0  0  0  0  0  0  0  0  0  0  0
    7.6559    9.5263    4.8324 H   0  0  0  0  0  0  0  0  0  0  0  0
    5.6153   10.0259    6.0630 H   0  0  0  0  0  0  0  0  0  0  0  0
    3.2672   10.7820    6.1172 H   0  0  0  0  0  0  0  0  0  0  0  0
    2.0739   11.3242    4.0170 H   0  0  0  0  0  0  0  0  0  0  0  0
    3.2415   11.1383    1.8510 H   0  0  0  0  0  0  0  0  0  0  0  0
    5.5040   10.4952    1.7386 H   0  0  0  0  0  0  0  0  0  0  0  0
   10.1475   10.0136    4.5305 H   0  0  0  0  0  0  0  0  0  0  0  0
   10.2671   11.1433    3.1573 H   0  0  0  0  0  0  0  0  0  0  0  0
   12.4562   10.6027    3.0029 H   0  0  0  0  0  0  0  0  0  0  0  0
   12.2889    9.3466    4.2742 H   0  0  0  0  0  0  0  0  0  0  0  0
  1  2  1  0
  2  3  1  0
  2  4  1  0
  4  5  1  0
  5  6  1  0
  6  7  1  0
  7  8  1  0
  8  9  2  0
  8 10  1  0
 10 11  1  0
 11 12  2  0
 12 13  1  0
 13 14  2  0
 14 15  1  0
 15 16  2  0
  7 17  1  0
 17 18  1  0
 18  4  1  0
 16 11  1  0
  1 19  1  0
  1 20  1  0
  1 21  1  0
  2 22  1  0
  3 23  1  0
  3 24  1  0
  3 25  1  0
  4 26  1  0
  5 27  1  0
  5 28  1  0
  6 29  1  0
  6 30  1  0
  7 31  1  0
 10 32  1  0
 12 33  1  0
 13 34  1  0
 14 35  1  0
 15 36  1  0
 16 37  1  0
 17 38  1  0
 17 39  1  0
 18 40  1  0
 18 41  1  0
M  CHG  1   3   1
M  END
>  <EmbedRMS>  (172) 
0.24964892458419108

$$$$

     RDKit          3D

 39 40  0  0  0  0  0  0  0  0999 V2000
   14.0110    7.0511    1.2526 C   0  0  0  0  0  0  0  0  0  0  0  0
   13.6007    8.3248    1.9901 C   0  0  0  0  0  0  0  0  0  0  0  0
   14.7033    8.8921    2.7690 N   0  0  0  0  0  4  0  0  0  0  0  0
   12.2625    8.3270    2.7691 C   0  0  0  0  0  0  0  0  0  0  0  0
   11.1802    7.4398    2.1370 C   0  0  0  0  0  0  0  0  0  0  0  0
    9.7464    7.7250    2.5506 C   0  0  0  0  0  0  0  0  0  0  0  0
    9.4528    9.2006    2.6508 C   0  0  0  0  0  0  0  0  0  0  0  0
    7.9907    9.5272    2.7197 C   0  0  0  0  0  0  0  0  0  0  0  0
    7.4511    9.6605    1.5982 O   0  0  0  0  0  0  0  0  0  0  0  0
    7.2032    9.6917    3.9188 N   0  0  0  0  0  0  0  0  0  0  0  0
    5.8190   10.1244    3.8864 C   0  0  0  0  0  0  0  0  0  0  0  0
    5.0492   10.4501    2.7707 C   0  0  0  0  0  0  0  0  0  0  0  0
    3.8118   10.8137    3.2504 C   0  0  0  0  0  0  0  0  0  0  0  0
    3.7917   10.7296    4.5924 N   0  0  0  0  0  0  0  0  0  0  0  0
    5.0092   10.3116    4.9903 C   0  0  0  0  0  0  0  0  0  0  0  0
   10.3879   10.0193    3.4937 C   0  0  0  0  0  0  0  0  0  0  0  0
   11.8511    9.7804    3.1265 C   0  0  0  0  0  0  0  0  0  0  0  0
   13.2659    6.7648    0.4822 H   0  0  0  0  0  0  0  0  0  0  0  0
   14.9817    7.1940    0.7316 H   0  0  0  0  0  0  0  0  0  0  0  0
   14.1182    6.2183    1.9789 H   0  0  0  0  0  0  0  0  0  0  0  0
   13.4353    9.0292    1.1418 H   0  0  0  0  0  0  0  0  0  0  0  0
   14.5218    9.8930    3.0061 H   0  0  0  0  0  0  0  0  0  0  0  0
   15.5925    8.8665    2.2188 H   0  0  0  0  0  0  0  0  0  0  0  0
   14.8389    8.3426    3.6484 H   0  0  0  0  0  0  0  0  0  0  0  0
   12.4711    7.8390    3.7480 H   0  0  0  0  0  0  0  0  0  0  0  0
   11.2117    7.5939    1.0361 H   0  0  0  0  0  0  0  0  0  0  0  0
   11.4077    6.3669    2.3236 H   0  0  0  0  0  0  0  0  0  0  0  0
    9.0547    7.2379    1.8268 H   0  0  0  0  0  0  0  0  0  0  0  0
    9.5649    7.2656    3.5467 H   0  0  0  0  0  0  0  0  0  0  0  0
    9.7356    9.5600    1.6294 H   0  0  0  0  0  0  0  0  0  0  0  0
    7.6552    9.5149    4.8435 H   0  0  0  0  0  0  0  0  0  0  0  0
    5.3065   10.4537    1.7245 H   0  0  0  0  0  0  0  0  0  0  0  0
    2.9693   11.1301    2.6494 H   0  0  0  0  0  0  0  0  0  0  0  0
    2.9817   10.9503    5.2127 H   0  0  0  0  0  0  0  0  0  0  0  0
    5.2923   10.1545    6.0229 H   0  0  0  0  0  0  0  0  0  0  0  0
   10.1492   11.1022    3.3982 H   0  0  0  0  0  0  0  0  0  0  0  0
   10.2369    9.7340    4.5575 H   0  0  0  0  0  0  0  0  0  0  0  0
   12.4748   10.1510    3.9689 H   0  0  0  0  0  0  0  0  0  0  0  0
   12.0642   10.4412    2.2573 H   0  0  0  0  0  0  0  0  0  0  0  0
  1  2  1  0
  2  3  1  0
  2  4  1  0
  4  5  1  0
  5  6  1  0
  6  7  1  0
  7  8  1  0
  8  9  2  0
  8 10  1  0
 10 11  1  0
 11 12  1  0
 12 13  2  0
 13 14  1  0
 14 15  1  0
  7 16  1  0
 16 17  1  0
 17  4  1  0
 15 11  2  0
  1 18  1  0
  1 19  1  0
  1 20  1  0
  2 21  1  0
  3 22  1  0
  3 23  1  0
  3 24  1  0
  4 25  1  0
  5 26  1  0
  5 27  1  0
  6 28  1  0
  6 29  1  0
  7 30  1  0
 10 31  1  0
 12 32  1  0
 13 33  1  0
 14 34  1  0
 15 35  1  0
 16 36  1  0
 16 37  1  0
 17 38  1  0
 17 39  1  0
M  CHG  1   3   1
M  END
>  <EmbedRMS>  (173) 
0.3005329260886256

$$$$

     RDKit          3D

 41 42  0  0  0  0  0  0  0  0999 V2000
   14.0155    7.0452    1.2243 C   0  0  0  0  0  0  0  0  0  0  0  0
   13.6577    8.3402    1.9340 C   0  0  0  0  0  0  0  0  0  0  0  0
   14.6213    8.7734    2.9399 N   0  0  0  0  0  4  0  0  0  0  0  0
   12.1479    8.5868    2.2358 C   0  0  0  0  0  0  0  0  0  0  0  0
   11.2708    7.3634    2.5450 C   0  0  0  0  0  0  0  0  0  0  0  0
    9.7738    7.7130    2.4384 C   0  0  0  0  0  0  0  0  0  0  0  0
    9.4545    9.1902    2.6817 C   0  0  0  0  0  0  0  0  0  0  0  0
    7.9930    9.5119    2.7236 C   0  0  0  0  0  0  0  0  0  0  0  0
    7.4746    9.6077    1.5899 O   0  0  0  0  0  0  0  0  0  0  0  0
    7.1920    9.7025    3.9130 N   0  0  0  0  0  0  0  0  0  0  0  0
    5.8002   10.1396    3.9098 C   0  0  0  0  0  0  0  0  0  0  0  0
    5.1136   10.2622    5.1332 C   0  0  0  0  0  0  0  0  0  0  0  0
    3.7791   10.6918    5.1678 C   0  0  0  0  0  0  0  0  0  0  0  0
    3.1050   10.9965    3.9846 C   0  0  0  0  0  0  0  0  0  0  0  0
    3.7620   10.8848    2.7663 C   0  0  0  0  0  0  0  0  0  0  0  0
    5.0915   10.4774    2.7238 C   0  0  0  0  0  0  0  0  0  0  0  0
   10.4123   10.0785    3.4530 C   0  0  0  0  0  0  0  0  0  0  0  0
   11.8967    9.6862    3.2904 C   0  0  0  0  0  0  0  0  0  0  0  0
   13.3412    6.8748    0.3575 H   0  0  0  0  0  0  0  0  0  0  0  0
   15.0600    7.0795    0.8460 H   0  0  0  0  0  0  0  0  0  0  0  0
   13.9272    6.1936    1.9310 H   0  0  0  0  0  0  0  0  0  0  0  0
   13.8472    9.0661    1.1041 H   0  0  0  0  0  0  0  0  0  0  0  0
   14.4394    8.2635    3.8342 H   0  0  0  0  0  0  0  0  0  0  0  0
   14.5690    9.8041    3.1044 H   0  0  0  0  0  0  0  0  0  0  0  0
   15.5964    8.5564    2.6293 H   0  0  0  0  0  0  0  0  0  0  0  0
   11.7549    8.9789    1.2687 H   0  0  0  0  0  0  0  0  0  0  0  0
   11.4801    6.5302    1.8427 H   0  0  0  0  0  0  0  0  0  0  0  0
   11.5022    7.0014    3.5710 H   0  0  0  0  0  0  0  0  0  0  0  0
    9.3960    7.4069    1.4357 H   0  0  0  0  0  0  0  0  0  0  0  0
    9.2216    7.1022    3.1855 H   0  0  0  0  0  0  0  0  0  0  0  0
    9.7131    9.5882    1.6698 H   0  0  0  0  0  0  0  0  0  0  0  0
    7.6559    9.5263    4.8324 H   0  0  0  0  0  0  0  0  0  0  0  0
    5.6153   10.0259    6.0630 H   0  0  0  0  0  0  0  0  0  0  0  0
    3.2672   10.7820    6.1172 H   0  0  0  0  0  0  0  0  0  0  0  0
    2.0739   11.3242    4.0170 H   0  0  0  0  0  0  0  0  0  0  0  0
    3.2415   11.1383    1.8510 H   0  0  0  0  0  0  0  0  0  0  0  0
    5.5040   10.4952    1.7386 H   0  0  0  0  0  0  0  0  0  0  0  0
   10.1475   10.0136    4.5305 H   0  0  0  0  0  0  0  0  0  0  0  0
   10.2671   11.1433    3.1573 H   0  0  0  0  0  0  0  0  0  0  0  0
   12.4562   10.6027    3.0029 H   0  0  0  0  0  0  0  0  0  0  0  0
   12.2889    9.3466    4.2742 H   0  0  0  0  0  0  0  0  0  0  0  0
  1  2  1  0
  2  3  1  0
  2  4  1  0
  4  5  1  0
  5  6  1  0
  6  7  1  0
  7  8  1  0
  8  9  2  0
  8 10  1  0
 10 11  1  0
 11 12  2  0
 12 13  1  0
 13 14  2  0
 14 15  1  0
 15 16  2  0
  7 17  1  0
 17 18  1  0
 18  4  1  0
 16 11  1  0
  1 19  1  0
  1 20  1  0
  1 21  1  0
  2 22  1  0
  3 23  1  0
  3 24  1  0
  3 25  1  0
  4 26  1  0
  5 27  1  0
  5 28  1  0
  6 29  1  0
  6 30  1  0
  7 31  1  0
 10 32  1  0
 12 33  1  0
 13 34  1  0
 14 35  1  0
 15 36  1  0
 16 37  1  0
 17 38  1  0
 17 39  1  0
 18 40  1  0
 18 41  1  0
M  CHG  1   3   1
M  END
>  <EmbedRMS>  (174) 
0.24964892458419108

$$$$

     RDKit          3D

 43 43  0  0  0  0  0  0  0  0999 V2000
    6.6518   12.3152    2.6403 C   0  0  0  0  0  0  0  0  0  0  0  0
    5.6400   11.5559    3.0694 C   0  0  0  0  0  0  0  0  0  0  0  0
    4.3314   11.9224    2.7469 O   0  0  0  0  0  0  0  0  0  0  0  0
    5.8681   10.3591    3.9238 C   0  0  0  0  0  0  0  0  0  0  0  0
    4.8694    9.9263    4.7126 C   0  0  0  0  0  0  0  0  0  0  0  0
    5.0102    8.7560    5.6369 C   0  0  0  0  0  0  0  0  0  0  0  0
    7.1587    9.7220    3.9945 N   0  0  0  0  0  0  0  0  0  0  0  0
    8.0076    9.4697    2.8663 C   0  0  0  0  0  0  0  0  0  0  0  0
    7.5907    9.6646    1.6900 O   0  0  0  0  0  0  0  0  0  0  0  0
    9.4147    8.9876    3.1025 C   0  0  0  0  0  0  0  0  0  0  0  0
    9.7988    7.9231    2.0785 C   0  0  0  0  0  0  0  0  0  0  0  0
   11.1576    7.3126    2.3925 C   0  0  0  0  0  0  0  0  0  0  0  0
   12.2748    8.3214    2.7721 C   0  0  0  0  0  0  0  0  0  0  0  0
   13.5806    8.3569    1.9535 C   0  0  0  0  0  0  0  0  0  0  0  0
   13.9841    7.0983    1.1854 C   0  0  0  0  0  0  0  0  0  0  0  0
   14.7107    8.8835    2.7309 N   0  0  0  0  0  4  0  0  0  0  0  0
   11.8311    9.7191    3.3027 C   0  0  0  0  0  0  0  0  0  0  0  0
   10.3960   10.1509    3.0058 C   0  0  0  0  0  0  0  0  0  0  0  0
    6.4615   13.1861    2.0266 H   0  0  0  0  0  0  0  0  0  0  0  0
    7.6766   12.1182    2.9238 H   0  0  0  0  0  0  0  0  0  0  0  0
    4.1229   12.7374    2.1809 H   0  0  0  0  0  0  0  0  0  0  0  0
    3.9051   10.4204    4.6917 H   0  0  0  0  0  0  0  0  0  0  0  0
    5.7413    8.9867    6.4398 H   0  0  0  0  0  0  0  0  0  0  0  0
    4.0307    8.5356    6.1108 H   0  0  0  0  0  0  0  0  0  0  0  0
    5.3392    7.8582    5.0720 H   0  0  0  0  0  0  0  0  0  0  0  0
    7.5009    9.4081    4.9302 H   0  0  0  0  0  0  0  0  0  0  0  0
    9.4792    8.5412    4.1205 H   0  0  0  0  0  0  0  0  0  0  0  0
    9.0351    7.1134    2.0718 H   0  0  0  0  0  0  0  0  0  0  0  0
    9.8304    8.3642    1.0568 H   0  0  0  0  0  0  0  0  0  0  0  0
   11.4420    6.6830    1.5294 H   0  0  0  0  0  0  0  0  0  0  0  0
   11.0017    6.5969    3.2334 H   0  0  0  0  0  0  0  0  0  0  0  0
   12.6559    7.8390    3.7034 H   0  0  0  0  0  0  0  0  0  0  0  0
   13.3813    9.1008    1.1481 H   0  0  0  0  0  0  0  0  0  0  0  0
   13.2939    6.9113    0.3363 H   0  0  0  0  0  0  0  0  0  0  0  0
   15.0010    7.2112    0.7530 H   0  0  0  0  0  0  0  0  0  0  0  0
   13.9860    6.2211    1.8664 H   0  0  0  0  0  0  0  0  0  0  0  0
   15.5288    9.0527    2.1012 H   0  0  0  0  0  0  0  0  0  0  0  0
   14.4913    9.7898    3.1976 H   0  0  0  0  0  0  0  0  0  0  0  0
   14.9932    8.1896    3.4610 H   0  0  0  0  0  0  0  0  0  0  0  0
   11.9652    9.7501    4.4085 H   0  0  0  0  0  0  0  0  0  0  0  0
   12.4759   10.5259    2.8960 H   0  0  0  0  0  0  0  0  0  0  0  0
   10.1027   10.9512    3.7214 H   0  0  0  0  0  0  0  0  0  0  0  0
   10.3535   10.5894    1.9829 H   0  0  0  0  0  0  0  0  0  0  0  0
  1  2  2  3
  2  3  1  0
  2  4  1  0
  4  5  2  3
  5  6  1  0
  4  7  1  0
  7  8  1  0
  8  9  2  0
  8 10  1  0
 10 11  1  0
 11 12  1  0
 12 13  1  0
 13 14  1  0
 14 15  1  0
 14 16  1  0
 13 17  1  0
 17 18  1  0
 18 10  1  0
  1 19  1  0
  1 20  1  0
  3 21  1  0
  5 22  1  0
  6 23  1  0
  6 24  1  0
  6 25  1  0
  7 26  1  0
 10 27  1  0
 11 28  1  0
 11 29  1  0
 12 30  1  0
 12 31  1  0
 13 32  1  0
 14 33  1  0
 15 34  1  0
 15 35  1  0
 15 36  1  0
 16 37  1  0
 16 38  1  0
 16 39  1  0
 17 40  1  0
 17 41  1  0
 18 42  1  0
 18 43  1  0
M  CHG  1  16   1
M  END
>  <EmbedRMS>  (175) 
0.20265595005683737

$$$$

     RDKit          3D

 39 40  0  0  0  0  0  0  0  0999 V2000
   14.0494    7.2192    1.1050 C   0  0  0  0  0  0  0  0  0  0  0  0
   13.6505    7.9554    2.3992 C   0  0  0  0  0  0  0  0  0  0  0  0
   14.6296    9.0156    2.6713 N   0  0  0  0  0  4  0  0  0  0  0  0
   12.2012    8.5116    2.2739 C   0  0  0  0  0  0  0  0  0  0  0  0
   11.1818    7.3650    2.4357 C   0  0  0  0  0  0  0  0  0  0  0  0
    9.7737    7.8706    2.1562 C   0  0  0  0  0  0  0  0  0  0  0  0
    9.4113    8.9931    3.1338 C   0  0  0  0  0  0  0  0  0  0  0  0
    8.0164    9.4805    2.8700 C   0  0  0  0  0  0  0  0  0  0  0  0
    7.6346    9.6877    1.6856 O   0  0  0  0  0  0  0  0  0  0  0  0
    7.1418    9.7077    3.9825 N   0  0  0  0  0  0  0  0  0  0  0  0
    5.7792   10.1394    3.8998 C   0  0  0  0  0  0  0  0  0  0  0  0
    5.0647   10.4417    2.7517 C   0  0  0  0  0  0  0  0  0  0  0  0
    3.8097   10.8171    3.1813 C   0  0  0  0  0  0  0  0  0  0  0  0
    3.8131   10.7275    4.5588 C   0  0  0  0  0  0  0  0  0  0  0  0
    5.0153   10.3140    4.9921 N   0  0  0  0  0  0  0  0  0  0  0  0
   10.4251   10.1479    3.0666 C   0  0  0  0  0  0  0  0  0  0  0  0
   11.8597    9.6372    3.2818 C   0  0  0  0  0  0  0  0  0  0  0  0
   13.4188    6.3264    0.9275 H   0  0  0  0  0  0  0  0  0  0  0  0
   15.0969    6.8578    1.1808 H   0  0  0  0  0  0  0  0  0  0  0  0
   13.9787    7.8972    0.2276 H   0  0  0  0  0  0  0  0  0  0  0  0
   13.6922    7.2247    3.2393 H   0  0  0  0  0  0  0  0  0  0  0  0
   14.4972    9.3930    3.6371 H   0  0  0  0  0  0  0  0  0  0  0  0
   15.6011    8.6298    2.6302 H   0  0  0  0  0  0  0  0  0  0  0  0
   14.5439    9.7863    1.9688 H   0  0  0  0  0  0  0  0  0  0  0  0
   12.0890    8.9469    1.2540 H   0  0  0  0  0  0  0  0  0  0  0  0
   11.2356    6.9389    3.4625 H   0  0  0  0  0  0  0  0  0  0  0  0
   11.3838    6.5440    1.7195 H   0  0  0  0  0  0  0  0  0  0  0  0
    9.0583    7.0271    2.2753 H   0  0  0  0  0  0  0  0  0  0  0  0
    9.7126    8.2290    1.1040 H   0  0  0  0  0  0  0  0  0  0  0  0
    9.4479    8.5654    4.1613 H   0  0  0  0  0  0  0  0  0  0  0  0
    7.5215    9.5475    4.9428 H   0  0  0  0  0  0  0  0  0  0  0  0
    5.3814   10.4091    1.7210 H   0  0  0  0  0  0  0  0  0  0  0  0
    2.9806   11.1242    2.5580 H   0  0  0  0  0  0  0  0  0  0  0  0
    2.9783   10.9546    5.2088 H   0  0  0  0  0  0  0  0  0  0  0  0
    5.2972   10.1622    5.9861 H   0  0  0  0  0  0  0  0  0  0  0  0
   10.1864   10.8995    3.8506 H   0  0  0  0  0  0  0  0  0  0  0  0
   10.3598   10.6519    2.0764 H   0  0  0  0  0  0  0  0  0  0  0  0
   12.5389   10.5044    3.1423 H   0  0  0  0  0  0  0  0  0  0  0  0
   11.9749    9.2649    4.3238 H   0  0  0  0  0  0  0  0  0  0  0  0
  1  2  1  0
  2  3  1  0
  2  4  1  0
  4  5  1  0
  5  6  1  0
  6  7  1  0
  7  8  1  0
  8  9  2  0
  8 10  1  0
 10 11  1  0
 11 12  2  0
 12 13  1  0
 13 14  2  0
 14 15  1  0
  7 16  1  0
 16 17  1  0
 17  4  1  0
 15 11  1  0
  1 18  1  0
  1 19  1  0
  1 20  1  0
  2 21  1  0
  3 22  1  0
  3 23  1  0
  3 24  1  0
  4 25  1  0
  5 26  1  0
  5 27  1  0
  6 28  1  0
  6 29  1  0
  7 30  1  0
 10 31  1  0
 12 32  1  0
 13 33  1  0
 14 34  1  0
 15 35  1  0
 16 36  1  0
 16 37  1  0
 17 38  1  0
 17 39  1  0
M  CHG  1   3   1
M  END
>  <EmbedRMS>  (176) 
0.03061905892919758

$$$$

     RDKit          3D

 42 42  0  0  0  0  0  0  0  0999 V2000
   14.0107    7.0519    1.2528 C   0  0  0  0  0  0  0  0  0  0  0  0
   13.6003    8.3256    1.9905 C   0  0  0  0  0  0  0  0  0  0  0  0
   14.7026    8.8924    2.7699 N   0  0  0  0  0  4  0  0  0  0  0  0
   12.2614    8.3281    2.7687 C   0  0  0  0  0  0  0  0  0  0  0  0
   11.1801    7.4416    2.1353 C   0  0  0  0  0  0  0  0  0  0  0  0
    9.7465    7.7249    2.5497 C   0  0  0  0  0  0  0  0  0  0  0  0
    9.4483    9.2001    2.6508 C   0  0  0  0  0  0  0  0  0  0  0  0
    7.9830    9.5162    2.7234 C   0  0  0  0  0  0  0  0  0  0  0  0
    7.4308    9.6060    1.6020 O   0  0  0  0  0  0  0  0  0  0  0  0
    7.2015    9.6973    3.9266 N   0  0  0  0  0  0  0  0  0  0  0  0
    5.8204   10.1506    3.8996 C   0  0  0  0  0  0  0  0  0  0  0  0
    5.0122   10.3015    5.3213 S   0  0  0  0  0  0  0  0  0  0  0  0
    5.2668   10.7238    2.6925 N   0  0  0  0  0  0  0  0  0  0  0  0
    3.8807   10.9123    2.3493 C   0  0  0  0  0  0  0  0  0  0  0  0
    3.5552   11.5047    1.0876 N   0  0  0  0  0  0  0  0  0  0  0  0
    2.9331   10.5937    3.1781 N   0  0  0  0  0  0  0  0  0  0  0  0
    1.5750   10.8278    2.9045 N   0  0  0  0  0  0  0  0  0  0  0  0
   10.3845   10.0198    3.4926 C   0  0  0  0  0  0  0  0  0  0  0  0
   11.8484    9.7814    3.1251 C   0  0  0  0  0  0  0  0  0  0  0  0
   14.1173    6.2189    1.9790 H   0  0  0  0  0  0  0  0  0  0  0  0
   13.2659    6.7659    0.4819 H   0  0  0  0  0  0  0  0  0  0  0  0
   14.9817    7.1947    0.7324 H   0  0  0  0  0  0  0  0  0  0  0  0
   13.4355    9.0303    1.1423 H   0  0  0  0  0  0  0  0  0  0  0  0
   15.5918    8.8678    2.2197 H   0  0  0  0  0  0  0  0  0  0  0  0
   14.8384    8.3420    3.6487 H   0  0  0  0  0  0  0  0  0  0  0  0
   14.5207    9.8929    3.0082 H   0  0  0  0  0  0  0  0  0  0  0  0
   12.4691    7.8402    3.7479 H   0  0  0  0  0  0  0  0  0  0  0  0
   11.4084    6.3685    2.3200 H   0  0  0  0  0  0  0  0  0  0  0  0
   11.2113    7.5978    1.0347 H   0  0  0  0  0  0  0  0  0  0  0  0
    9.5667    7.2647    3.5458 H   0  0  0  0  0  0  0  0  0  0  0  0
    9.0558    7.2357    1.8264 H   0  0  0  0  0  0  0  0  0  0  0  0
    9.7250    9.5627    1.6290 H   0  0  0  0  0  0  0  0  0  0  0  0
    7.6519    9.4863    4.8452 H   0  0  0  0  0  0  0  0  0  0  0  0
    5.9290   11.2608    2.0924 H   0  0  0  0  0  0  0  0  0  0  0  0
    4.2978   11.7693    0.4033 H   0  0  0  0  0  0  0  0  0  0  0  0
    4.2978   11.7693    0.4033 H   0  0  0  0  0  0  0  0  0  0  0  0
    0.8574   10.5487    3.6087 H   0  0  0  0  0  0  0  0  0  0  0  0
    1.2537   11.2771    2.0181 H   0  0  0  0  0  0  0  0  0  0  0  0
   10.1449   11.1025    3.3964 H   0  0  0  0  0  0  0  0  0  0  0  0
   10.2341    9.7354    4.5567 H   0  0  0  0  0  0  0  0  0  0  0  0
   12.0609   10.4415    2.2552 H   0  0  0  0  0  0  0  0  0  0  0  0
   12.4721   10.1533    3.9670 H   0  0  0  0  0  0  0  0  0  0  0  0
  1  2  1  0
  2  3  1  0
  2  4  1  0
  4  5  1  0
  5  6  1  0
  6  7  1  0
  7  8  1  0
  8  9  2  0
  8 10  1  0
 10 11  1  0
 11 12  2  0
 11 13  1  0
 13 14  1  0
 14 15  1  0
 14 16  2  3
 16 17  1  0
  7 18  1  0
 18 19  1  0
 19  4  1  0
  1 20  1  0
  1 21  1  0
  1 22  1  0
  2 23  1  0
  3 24  1  0
  3 25  1  0
  3 26  1  0
  4 27  1  0
  5 28  1  0
  5 29  1  0
  6 30  1  0
  6 31  1  0
  7 32  1  0
 10 33  1  0
 13 34  1  0
 15 35  1  0
 15 36  1  0
 17 37  1  0
 17 38  1  0
 18 39  1  0
 18 40  1  0
 19 41  1  0
 19 42  1  0
M  CHG  1   3   1
M  END
>  <EmbedRMS>  (177) 
0.28641871395007357

$$$$

     RDKit          3D

 43 44  0  0  0  0  0  0  0  0999 V2000
   14.0276    7.2301    1.0858 C   0  0  0  0  0  0  0  0  0  0  0  0
   13.6459    7.9626    2.3850 C   0  0  0  0  0  0  0  0  0  0  0  0
   14.6273    9.0243    2.6470 N   0  0  0  0  0  4  0  0  0  0  0  0
   12.1819    8.5085    2.2960 C   0  0  0  0  0  0  0  0  0  0  0  0
   11.1978    7.3499    2.5409 C   0  0  0  0  0  0  0  0  0  0  0  0
    9.7345    7.7437    2.3739 C   0  0  0  0  0  0  0  0  0  0  0  0
    9.4500    9.2139    2.6409 C   0  0  0  0  0  0  0  0  0  0  0  0
    7.9871    9.5385    2.7237 C   0  0  0  0  0  0  0  0  0  0  0  0
    7.4165    9.6879    1.6153 O   0  0  0  0  0  0  0  0  0  0  0  0
    7.2149    9.6895    3.9283 N   0  0  0  0  0  0  0  0  0  0  0  0
    5.8138   10.1222    3.8054 C   0  0  0  0  0  0  0  0  0  0  0  0
    5.1472   10.2607    5.1400 C   0  0  0  0  0  0  0  0  0  0  0  0
    4.4718    9.1754    5.7134 C   0  0  0  0  0  0  0  0  0  0  0  0
    3.8687    9.3139    6.9637 C   0  0  0  0  0  0  0  0  0  0  0  0
    3.9494   10.5386    7.6297 C   0  0  0  0  0  0  0  0  0  0  0  0
    4.6077   11.5829    7.0597 N   0  0  0  0  0  0  0  0  0  0  0  0
    5.2027   11.4727    5.8424 C   0  0  0  0  0  0  0  0  0  0  0  0
   10.4185   10.0737    3.4302 C   0  0  0  0  0  0  0  0  0  0  0  0
   11.8964    9.6377    3.3188 C   0  0  0  0  0  0  0  0  0  0  0  0
   13.3803    6.3499    0.9044 H   0  0  0  0  0  0  0  0  0  0  0  0
   13.9572    7.9169    0.2153 H   0  0  0  0  0  0  0  0  0  0  0  0
   15.0709    6.8548    1.1517 H   0  0  0  0  0  0  0  0  0  0  0  0
   13.7144    7.2277    3.2199 H   0  0  0  0  0  0  0  0  0  0  0  0
   15.5990    8.6418    2.5845 H   0  0  0  0  0  0  0  0  0  0  0  0
   14.5149    9.3994    3.6159 H   0  0  0  0  0  0  0  0  0  0  0  0
   14.5263    9.7976    1.9494 H   0  0  0  0  0  0  0  0  0  0  0  0
   12.0112    8.9222    1.2764 H   0  0  0  0  0  0  0  0  0  0  0  0
   11.3979    6.4997    1.8580 H   0  0  0  0  0  0  0  0  0  0  0  0
   11.3436    6.9702    3.5775 H   0  0  0  0  0  0  0  0  0  0  0  0
    9.3957    7.4730    1.3468 H   0  0  0  0  0  0  0  0  0  0  0  0
    9.1283    7.1284    3.0751 H   0  0  0  0  0  0  0  0  0  0  0  0
    9.7095    9.6218    1.6318 H   0  0  0  0  0  0  0  0  0  0  0  0
    7.6566    9.5244    4.8608 H   0  0  0  0  0  0  0  0  0  0  0  0
    5.2544    9.3860    3.1871 H   0  0  0  0  0  0  0  0  0  0  0  0
    5.7751   11.0969    3.2707 H   0  0  0  0  0  0  0  0  0  0  0  0
    4.4175    8.2247    5.1974 H   0  0  0  0  0  0  0  0  0  0  0  0
    3.3461    8.4800    7.4142 H   0  0  0  0  0  0  0  0  0  0  0  0
    3.4872   10.6595    8.6003 H   0  0  0  0  0  0  0  0  0  0  0  0
    5.7224   12.3263    5.4264 H   0  0  0  0  0  0  0  0  0  0  0  0
   10.1212   10.0281    4.5004 H   0  0  0  0  0  0  0  0  0  0  0  0
   10.3159   11.1407    3.1251 H   0  0  0  0  0  0  0  0  0  0  0  0
   12.2359    9.3018    4.3242 H   0  0  0  0  0  0  0  0  0  0  0  0
   12.4950   10.5353    3.0521 H   0  0  0  0  0  0  0  0  0  0  0  0
  1  2  1  0
  2  3  1  0
  2  4  1  0
  4  5  1  0
  5  6  1  0
  6  7  1  0
  7  8  1  0
  8  9  2  0
  8 10  1  0
 10 11  1  0
 11 12  1  0
 12 13  2  0
 13 14  1  0
 14 15  2  0
 15 16  1  0
 16 17  2  0
  7 18  1  0
 18 19  1  0
 19  4  1  0
 17 12  1  0
  1 20  1  0
  1 21  1  0
  1 22  1  0
  2 23  1  0
  3 24  1  0
  3 25  1  0
  3 26  1  0
  4 27  1  0
  5 28  1  0
  5 29  1  0
  6 30  1  0
  6 31  1  0
  7 32  1  0
 10 33  1  0
 11 34  1  0
 11 35  1  0
 13 36  1  0
 14 37  1  0
 15 38  1  0
 17 39  1  0
 18 40  1  0
 18 41  1  0
 19 42  1  0
 19 43  1  0
M  CHG  1   3   1
M  END
>  <EmbedRMS>  (178) 
0.17084101544492625

$$$$

     RDKit          3D

 42 43  0  0  0  0  0  0  0  0999 V2000
    5.1337    8.1508    2.0250 C   0  0  0  0  0  0  0  0  0  0  0  0
    4.8481    9.1836    3.0699 C   0  0  0  0  0  0  0  0  0  0  0  0
    3.5972    9.5702    3.3847 N   0  0  0  0  0  0  0  0  0  0  0  0
    3.6940   10.4163    4.4273 C   0  0  0  0  0  0  0  0  0  0  0  0
    5.0200   10.5864    4.7890 C   0  0  0  0  0  0  0  0  0  0  0  0
    5.7612    9.8160    3.9111 C   0  0  0  0  0  0  0  0  0  0  0  0
    7.1987    9.6484    3.9458 N   0  0  0  0  0  0  0  0  0  0  0  0
    7.9778    9.5237    2.7396 C   0  0  0  0  0  0  0  0  0  0  0  0
    7.4319    9.7429    1.6311 O   0  0  0  0  0  0  0  0  0  0  0  0
    9.4420    9.1941    2.6666 C   0  0  0  0  0  0  0  0  0  0  0  0
    9.7630    7.7147    2.4364 C   0  0  0  0  0  0  0  0  0  0  0  0
   11.2625    7.3645    2.5409 C   0  0  0  0  0  0  0  0  0  0  0  0
   12.1422    8.5867    2.2327 C   0  0  0  0  0  0  0  0  0  0  0  0
   13.6535    8.3398    1.9332 C   0  0  0  0  0  0  0  0  0  0  0  0
   14.0127    7.0446    1.2248 C   0  0  0  0  0  0  0  0  0  0  0  0
   14.6167    8.7743    2.9394 N   0  0  0  0  0  4  0  0  0  0  0  0
   11.8900    9.6851    3.2857 C   0  0  0  0  0  0  0  0  0  0  0  0
   10.4060   10.0826    3.4359 C   0  0  0  0  0  0  0  0  0  0  0  0
    4.2932    7.4270    1.9793 H   0  0  0  0  0  0  0  0  0  0  0  0
    6.0538    7.5811    2.2711 H   0  0  0  0  0  0  0  0  0  0  0  0
    5.2289    8.6338    1.0309 H   0  0  0  0  0  0  0  0  0  0  0  0
    2.7121    9.2496    2.9324 H   0  0  0  0  0  0  0  0  0  0  0  0
    2.8449   10.8791    4.9127 H   0  0  0  0  0  0  0  0  0  0  0  0
    5.3986   11.1973    5.5976 H   0  0  0  0  0  0  0  0  0  0  0  0
    7.6959    9.7511    4.8581 H   0  0  0  0  0  0  0  0  0  0  0  0
    9.6850    9.5827    1.6479 H   0  0  0  0  0  0  0  0  0  0  0  0
    9.2133    7.1113    3.1912 H   0  0  0  0  0  0  0  0  0  0  0  0
    9.3797    7.3992    1.4388 H   0  0  0  0  0  0  0  0  0  0  0  0
   11.4946    7.0001    3.5658 H   0  0  0  0  0  0  0  0  0  0  0  0
   11.4710    6.5324    1.8369 H   0  0  0  0  0  0  0  0  0  0  0  0
   11.7488    8.9798    1.2659 H   0  0  0  0  0  0  0  0  0  0  0  0
   13.8431    9.0650    1.1029 H   0  0  0  0  0  0  0  0  0  0  0  0
   13.3395    6.8735    0.3573 H   0  0  0  0  0  0  0  0  0  0  0  0
   13.9233    6.1935    1.9319 H   0  0  0  0  0  0  0  0  0  0  0  0
   15.0577    7.0789    0.8479 H   0  0  0  0  0  0  0  0  0  0  0  0
   15.5919    8.5556    2.6306 H   0  0  0  0  0  0  0  0  0  0  0  0
   14.4330    8.2668    3.8347 H   0  0  0  0  0  0  0  0  0  0  0  0
   14.5653    9.8054    3.1016 H   0  0  0  0  0  0  0  0  0  0  0  0
   12.4548   10.5998    3.0034 H   0  0  0  0  0  0  0  0  0  0  0  0
   12.2738    9.3425    4.2718 H   0  0  0  0  0  0  0  0  0  0  0  0
   10.2670   11.1451    3.1301 H   0  0  0  0  0  0  0  0  0  0  0  0
   10.1383   10.0292    4.5131 H   0  0  0  0  0  0  0  0  0  0  0  0
  1  2  1  0
  2  3  1  0
  3  4  1  0
  4  5  2  0
  5  6  1  0
  6  7  1  0
  7  8  1  0
  8  9  2  0
  8 10  1  0
 10 11  1  0
 11 12  1  0
 12 13  1  0
 13 14  1  0
 14 15  1  0
 14 16  1  0
 13 17  1  0
 17 18  1  0
  6  2  2  0
 18 10  1  0
  1 19  1  0
  1 20  1  0
  1 21  1  0
  3 22  1  0
  4 23  1  0
  5 24  1  0
  7 25  1  0
 10 26  1  0
 11 27  1  0
 11 28  1  0
 12 29  1  0
 12 30  1  0
 13 31  1  0
 14 32  1  0
 15 33  1  0
 15 34  1  0
 15 35  1  0
 16 36  1  0
 16 37  1  0
 16 38  1  0
 17 39  1  0
 17 40  1  0
 18 41  1  0
 18 42  1  0
M  CHG  1  16   1
M  END
>  <EmbedRMS>  (179) 
0.24995529680257836

$$$$

     RDKit          3D

 40 41  0  0  0  0  0  0  0  0999 V2000
   14.0092    7.0506    1.2533 C   0  0  0  0  0  0  0  0  0  0  0  0
   13.5986    8.3245    1.9900 C   0  0  0  0  0  0  0  0  0  0  0  0
   14.7008    8.8919    2.7696 N   0  0  0  0  0  4  0  0  0  0  0  0
   12.2587    8.3280    2.7675 C   0  0  0  0  0  0  0  0  0  0  0  0
   11.1754    7.4414    2.1356 C   0  0  0  0  0  0  0  0  0  0  0  0
    9.7394    7.7279    2.5470 C   0  0  0  0  0  0  0  0  0  0  0  0
    9.4434    9.2038    2.6465 C   0  0  0  0  0  0  0  0  0  0  0  0
    7.9789    9.5345    2.7319 C   0  0  0  0  0  0  0  0  0  0  0  0
    7.4306    9.7485    1.6249 O   0  0  0  0  0  0  0  0  0  0  0  0
    7.1983    9.6523    3.9397 N   0  0  0  0  0  0  0  0  0  0  0  0
    5.7594    9.8221    3.9027 C   0  0  0  0  0  0  0  0  0  0  0  0
    5.0867   10.6481    4.7314 N   0  0  0  0  0  0  0  0  0  0  0  0
    3.8003   10.4497    4.3579 C   0  0  0  0  0  0  0  0  0  0  0  0
    3.6839    9.5415    3.3695 N   0  0  0  0  0  0  0  0  0  0  0  0
    4.9135    9.1464    3.0926 N   0  0  0  0  0  0  0  0  0  0  0  0
    5.2083    8.0709    2.1518 C   0  0  0  0  0  0  0  0  0  0  0  0
   10.3839   10.0206    3.4879 C   0  0  0  0  0  0  0  0  0  0  0  0
   11.8469    9.7816    3.1206 C   0  0  0  0  0  0  0  0  0  0  0  0
   13.2638    6.7634    0.4836 H   0  0  0  0  0  0  0  0  0  0  0  0
   14.9797    7.1934    0.7320 H   0  0  0  0  0  0  0  0  0  0  0  0
   14.1169    6.2183    1.9803 H   0  0  0  0  0  0  0  0  0  0  0  0
   13.4346    9.0284    1.1411 H   0  0  0  0  0  0  0  0  0  0  0  0
   14.5195    9.8931    3.0058 H   0  0  0  0  0  0  0  0  0  0  0  0
   15.5906    8.8656    2.2202 H   0  0  0  0  0  0  0  0  0  0  0  0
   14.8353    8.3431    3.6495 H   0  0  0  0  0  0  0  0  0  0  0  0
   12.4657    7.8417    3.7475 H   0  0  0  0  0  0  0  0  0  0  0  0
   11.4018    6.3685    2.3233 H   0  0  0  0  0  0  0  0  0  0  0  0
   11.2083    7.5943    1.0347 H   0  0  0  0  0  0  0  0  0  0  0  0
    9.0478    7.2416    1.8227 H   0  0  0  0  0  0  0  0  0  0  0  0
    9.5561    7.2685    3.5428 H   0  0  0  0  0  0  0  0  0  0  0  0
    9.7180    9.5615    1.6228 H   0  0  0  0  0  0  0  0  0  0  0  0
    7.6954    9.7719    4.8498 H   0  0  0  0  0  0  0  0  0  0  0  0
    2.9587   10.9571    4.8095 H   0  0  0  0  0  0  0  0  0  0  0  0
    6.1335    7.5316    2.4442 H   0  0  0  0  0  0  0  0  0  0  0  0
    4.3765    7.3351    2.1552 H   0  0  0  0  0  0  0  0  0  0  0  0
    5.3026    8.4810    1.1253 H   0  0  0  0  0  0  0  0  0  0  0  0
   10.2349    9.7353    4.5520 H   0  0  0  0  0  0  0  0  0  0  0  0
   10.1464   11.1039    3.3936 H   0  0  0  0  0  0  0  0  0  0  0  0
   12.0589   10.4399    2.2493 H   0  0  0  0  0  0  0  0  0  0  0  0
   12.4709   10.1551    3.9616 H   0  0  0  0  0  0  0  0  0  0  0  0
  1  2  1  0
  2  3  1  0
  2  4  1  0
  4  5  1  0
  5  6  1  0
  6  7  1  0
  7  8  1  0
  8  9  2  0
  8 10  1  0
 10 11  1  0
 11 12  2  0
 12 13  1  0
 13 14  2  0
 14 15  1  0
 15 16  1  0
  7 17  1  0
 17 18  1  0
 18  4  1  0
 15 11  1  0
  1 19  1  0
  1 20  1  0
  1 21  1  0
  2 22  1  0
  3 23  1  0
  3 24  1  0
  3 25  1  0
  4 26  1  0
  5 27  1  0
  5 28  1  0
  6 29  1  0
  6 30  1  0
  7 31  1  0
 10 32  1  0
 13 33  1  0
 16 34  1  0
 16 35  1  0
 16 36  1  0
 17 37  1  0
 17 38  1  0
 18 39  1  0
 18 40  1  0
M  CHG  1   3   1
M  END
>  <EmbedRMS>  (180) 
0.293000697254303

$$$$

     RDKit          3D

 41 42  0  0  0  0  0  0  0  0999 V2000
   13.9844    7.0987    1.1852 C   0  0  0  0  0  0  0  0  0  0  0  0
   13.5813    8.3571    1.9536 C   0  0  0  0  0  0  0  0  0  0  0  0
   14.7121    8.8839    2.7300 N   0  0  0  0  0  4  0  0  0  0  0  0
   12.2768    8.3212    2.7738 C   0  0  0  0  0  0  0  0  0  0  0  0
   11.1601    7.3112    2.3969 C   0  0  0  0  0  0  0  0  0  0  0  0
    9.8018    7.9209    2.0835 C   0  0  0  0  0  0  0  0  0  0  0  0
    9.4173    8.9877    3.1066 C   0  0  0  0  0  0  0  0  0  0  0  0
    8.0138    9.4689    2.8591 C   0  0  0  0  0  0  0  0  0  0  0  0
    7.6251    9.6825    1.6784 O   0  0  0  0  0  0  0  0  0  0  0  0
    7.1449    9.7019    3.9762 N   0  0  0  0  0  0  0  0  0  0  0  0
    5.7828   10.1379    3.8920 C   0  0  0  0  0  0  0  0  0  0  0  0
    5.0632   10.4442    2.7446 C   0  0  0  0  0  0  0  0  0  0  0  0
    3.8226   10.8108    3.2163 C   0  0  0  0  0  0  0  0  0  0  0  0
    3.8279   10.7100    4.5578 N   0  0  0  0  0  0  0  0  0  0  0  0
    2.7163   11.0342    5.4382 C   0  0  0  0  0  0  0  0  0  0  0  0
    5.0147   10.3126    4.9830 N   0  0  0  0  0  0  0  0  0  0  0  0
   10.3986   10.1505    3.0073 C   0  0  0  0  0  0  0  0  0  0  0  0
   11.8330    9.7187    3.3049 C   0  0  0  0  0  0  0  0  0  0  0  0
   15.0005    7.2121    0.7511 H   0  0  0  0  0  0  0  0  0  0  0  0
   13.2929    6.9109    0.3373 H   0  0  0  0  0  0  0  0  0  0  0  0
   13.9881    6.2217    1.8665 H   0  0  0  0  0  0  0  0  0  0  0  0
   13.3809    9.1011    1.1485 H   0  0  0  0  0  0  0  0  0  0  0  0
   15.5295    9.0533    2.0995 H   0  0  0  0  0  0  0  0  0  0  0  0
   14.9956    8.1899    3.4597 H   0  0  0  0  0  0  0  0  0  0  0  0
   14.4932    9.7901    3.1971 H   0  0  0  0  0  0  0  0  0  0  0  0
   12.6598    7.8396    3.7047 H   0  0  0  0  0  0  0  0  0  0  0  0
   11.0050    6.5972    3.2394 H   0  0  0  0  0  0  0  0  0  0  0  0
   11.4440    6.6800    1.5348 H   0  0  0  0  0  0  0  0  0  0  0  0
    9.0384    7.1109    2.0780 H   0  0  0  0  0  0  0  0  0  0  0  0
    9.8338    8.3598    1.0608 H   0  0  0  0  0  0  0  0  0  0  0  0
    9.4757    8.5442    4.1263 H   0  0  0  0  0  0  0  0  0  0  0  0
    7.5257    9.5388    4.9355 H   0  0  0  0  0  0  0  0  0  0  0  0
    5.3655   10.4225    1.7090 H   0  0  0  0  0  0  0  0  0  0  0  0
    2.9765   11.1294    2.6210 H   0  0  0  0  0  0  0  0  0  0  0  0
    2.6385   12.1361    5.5478 H   0  0  0  0  0  0  0  0  0  0  0  0
    1.7686   10.6392    5.0146 H   0  0  0  0  0  0  0  0  0  0  0  0
    2.8761   10.5796    6.4389 H   0  0  0  0  0  0  0  0  0  0  0  0
   10.3575   10.5865    1.9833 H   0  0  0  0  0  0  0  0  0  0  0  0
   10.1057   10.9524    3.7212 H   0  0  0  0  0  0  0  0  0  0  0  0
   11.9663    9.7490    4.4107 H   0  0  0  0  0  0  0  0  0  0  0  0
   12.4781   10.5258    2.8991 H   0  0  0  0  0  0  0  0  0  0  0  0
  1  2  1  0
  2  3  1  0
  2  4  1  0
  4  5  1  0
  5  6  1  0
  6  7  1  0
  7  8  1  0
  8  9  2  0
  8 10  1  0
 10 11  1  0
 11 12  1  0
 12 13  2  0
 13 14  1  0
 14 15  1  0
 14 16  1  0
  7 17  1  0
 17 18  1  0
 18  4  1  0
 16 11  2  0
  1 19  1  0
  1 20  1  0
  1 21  1  0
  2 22  1  0
  3 23  1  0
  3 24  1  0
  3 25  1  0
  4 26  1  0
  5 27  1  0
  5 28  1  0
  6 29  1  0
  6 30  1  0
  7 31  1  0
 10 32  1  0
 12 33  1  0
 13 34  1  0
 15 35  1  0
 15 36  1  0
 15 37  1  0
 17 38  1  0
 17 39  1  0
 18 40  1  0
 18 41  1  0
M  CHG  1   3   1
M  END
>  <EmbedRMS>  (181) 
0.20203882927987918

$$$$

     RDKit          3D

 40 41  0  0  0  0  0  0  0  0999 V2000
   14.0092    7.0506    1.2533 C   0  0  0  0  0  0  0  0  0  0  0  0
   13.5986    8.3245    1.9900 C   0  0  0  0  0  0  0  0  0  0  0  0
   14.7008    8.8919    2.7696 N   0  0  0  0  0  4  0  0  0  0  0  0
   12.2587    8.3280    2.7675 C   0  0  0  0  0  0  0  0  0  0  0  0
   11.1754    7.4414    2.1356 C   0  0  0  0  0  0  0  0  0  0  0  0
    9.7394    7.7279    2.5470 C   0  0  0  0  0  0  0  0  0  0  0  0
    9.4434    9.2038    2.6465 C   0  0  0  0  0  0  0  0  0  0  0  0
    7.9789    9.5345    2.7319 C   0  0  0  0  0  0  0  0  0  0  0  0
    7.4306    9.7485    1.6249 O   0  0  0  0  0  0  0  0  0  0  0  0
    7.1983    9.6523    3.9397 N   0  0  0  0  0  0  0  0  0  0  0  0
    5.7594    9.8221    3.9027 C   0  0  0  0  0  0  0  0  0  0  0  0
    5.0867   10.6481    4.7314 N   0  0  0  0  0  0  0  0  0  0  0  0
    3.8003   10.4497    4.3579 C   0  0  0  0  0  0  0  0  0  0  0  0
    3.6839    9.5415    3.3695 N   0  0  0  0  0  0  0  0  0  0  0  0
    4.9135    9.1464    3.0926 N   0  0  0  0  0  0  0  0  0  0  0  0
    5.2083    8.0709    2.1518 C   0  0  0  0  0  0  0  0  0  0  0  0
   10.3839   10.0206    3.4879 C   0  0  0  0  0  0  0  0  0  0  0  0
   11.8469    9.7816    3.1206 C   0  0  0  0  0  0  0  0  0  0  0  0
   13.2638    6.7634    0.4836 H   0  0  0  0  0  0  0  0  0  0  0  0
   14.9797    7.1934    0.7320 H   0  0  0  0  0  0  0  0  0  0  0  0
   14.1169    6.2183    1.9803 H   0  0  0  0  0  0  0  0  0  0  0  0
   13.4346    9.0284    1.1411 H   0  0  0  0  0  0  0  0  0  0  0  0
   14.5195    9.8931    3.0058 H   0  0  0  0  0  0  0  0  0  0  0  0
   15.5906    8.8656    2.2202 H   0  0  0  0  0  0  0  0  0  0  0  0
   14.8353    8.3431    3.6495 H   0  0  0  0  0  0  0  0  0  0  0  0
   12.4657    7.8417    3.7475 H   0  0  0  0  0  0  0  0  0  0  0  0
   11.4018    6.3685    2.3233 H   0  0  0  0  0  0  0  0  0  0  0  0
   11.2083    7.5943    1.0347 H   0  0  0  0  0  0  0  0  0  0  0  0
    9.0478    7.2416    1.8227 H   0  0  0  0  0  0  0  0  0  0  0  0
    9.5561    7.2685    3.5428 H   0  0  0  0  0  0  0  0  0  0  0  0
    9.7180    9.5615    1.6228 H   0  0  0  0  0  0  0  0  0  0  0  0
    7.6954    9.7719    4.8498 H   0  0  0  0  0  0  0  0  0  0  0  0
    2.9587   10.9571    4.8095 H   0  0  0  0  0  0  0  0  0  0  0  0
    6.1335    7.5316    2.4442 H   0  0  0  0  0  0  0  0  0  0  0  0
    4.3765    7.3351    2.1552 H   0  0  0  0  0  0  0  0  0  0  0  0
    5.3026    8.4810    1.1253 H   0  0  0  0  0  0  0  0  0  0  0  0
   10.2349    9.7353    4.5520 H   0  0  0  0  0  0  0  0  0  0  0  0
   10.1464   11.1039    3.3936 H   0  0  0  0  0  0  0  0  0  0  0  0
   12.0589   10.4399    2.2493 H   0  0  0  0  0  0  0  0  0  0  0  0
   12.4709   10.1551    3.9616 H   0  0  0  0  0  0  0  0  0  0  0  0
  1  2  1  0
  2  3  1  0
  2  4  1  0
  4  5  1  0
  5  6  1  0
  6  7  1  0
  7  8  1  0
  8  9  2  0
  8 10  1  0
 10 11  1  0
 11 12  2  0
 12 13  1  0
 13 14  2  0
 14 15  1  0
 15 16  1  0
  7 17  1  0
 17 18  1  0
 18  4  1  0
 15 11  1  0
  1 19  1  0
  1 20  1  0
  1 21  1  0
  2 22  1  0
  3 23  1  0
  3 24  1  0
  3 25  1  0
  4 26  1  0
  5 27  1  0
  5 28  1  0
  6 29  1  0
  6 30  1  0
  7 31  1  0
 10 32  1  0
 13 33  1  0
 16 34  1  0
 16 35  1  0
 16 36  1  0
 17 37  1  0
 17 38  1  0
 18 39  1  0
 18 40  1  0
M  CHG  1   3   1
M  END
>  <EmbedRMS>  (182) 
0.293000697254303

$$$$

     RDKit          3D

 44 45  0  0  0  0  0  0  0  0999 V2000
   14.0491    7.2192    1.1051 C   0  0  0  0  0  0  0  0  0  0  0  0
   13.6499    7.9554    2.3993 C   0  0  0  0  0  0  0  0  0  0  0  0
   14.6293    9.0155    2.6715 N   0  0  0  0  0  4  0  0  0  0  0  0
   12.2007    8.5120    2.2736 C   0  0  0  0  0  0  0  0  0  0  0  0
   11.1807    7.3658    2.4346 C   0  0  0  0  0  0  0  0  0  0  0  0
    9.7726    7.8720    2.1539 C   0  0  0  0  0  0  0  0  0  0  0  0
    9.4099    8.9946    3.1307 C   0  0  0  0  0  0  0  0  0  0  0  0
    8.0144    9.4819    2.8685 C   0  0  0  0  0  0  0  0  0  0  0  0
    7.6163    9.6899    1.6878 O   0  0  0  0  0  0  0  0  0  0  0  0
    7.1421    9.7123    3.9750 N   0  0  0  0  0  0  0  0  0  0  0  0
    5.7615   10.1355    3.7870 C   0  0  0  0  0  0  0  0  0  0  0  0
    5.0980   10.2938    5.1182 C   0  0  0  0  0  0  0  0  0  0  0  0
    4.3917    9.3155    5.7845 C   0  0  0  0  0  0  0  0  0  0  0  0
    4.0621    9.8968    6.9943 C   0  0  0  0  0  0  0  0  0  0  0  0
    4.5655   11.1466    7.0524 N   0  0  0  0  0  0  0  0  0  0  0  0
    5.2022   11.3746    5.9156 N   0  0  0  0  0  0  0  0  0  0  0  0
    5.8996   12.6191    5.6126 C   0  0  0  0  0  0  0  0  0  0  0  0
   10.4244   10.1488    3.0655 C   0  0  0  0  0  0  0  0  0  0  0  0
   11.8589    9.6374    3.2816 C   0  0  0  0  0  0  0  0  0  0  0  0
   15.0965    6.8576    1.1812 H   0  0  0  0  0  0  0  0  0  0  0  0
   13.4183    6.3265    0.9275 H   0  0  0  0  0  0  0  0  0  0  0  0
   13.9788    7.8972    0.2277 H   0  0  0  0  0  0  0  0  0  0  0  0
   13.6913    7.2248    3.2394 H   0  0  0  0  0  0  0  0  0  0  0  0
   14.5438    9.7862    1.9690 H   0  0  0  0  0  0  0  0  0  0  0  0
   15.6007    8.6296    2.6307 H   0  0  0  0  0  0  0  0  0  0  0  0
   14.4966    9.3930    3.6373 H   0  0  0  0  0  0  0  0  0  0  0  0
   12.0890    8.9476    1.2538 H   0  0  0  0  0  0  0  0  0  0  0  0
   11.2335    6.9397    3.4615 H   0  0  0  0  0  0  0  0  0  0  0  0
   11.3829    6.5448    1.7186 H   0  0  0  0  0  0  0  0  0  0  0  0
    9.7117    8.2308    1.1019 H   0  0  0  0  0  0  0  0  0  0  0  0
    9.0568    7.0288    2.2728 H   0  0  0  0  0  0  0  0  0  0  0  0
    9.4450    8.5671    4.1584 H   0  0  0  0  0  0  0  0  0  0  0  0
    7.5143    9.5749    4.9433 H   0  0  0  0  0  0  0  0  0  0  0  0
    5.2177    9.3738    3.1876 H   0  0  0  0  0  0  0  0  0  0  0  0
    5.7355   11.0991    3.2352 H   0  0  0  0  0  0  0  0  0  0  0  0
    4.1557    8.3159    5.4443 H   0  0  0  0  0  0  0  0  0  0  0  0
    3.4981    9.4307    7.7909 H   0  0  0  0  0  0  0  0  0  0  0  0
    5.8854   13.2918    6.4963 H   0  0  0  0  0  0  0  0  0  0  0  0
    6.9558   12.4043    5.3455 H   0  0  0  0  0  0  0  0  0  0  0  0
    5.3997   13.1315    4.7642 H   0  0  0  0  0  0  0  0  0  0  0  0
   10.1851   10.8999    3.8499 H   0  0  0  0  0  0  0  0  0  0  0  0
   10.3600   10.6536    2.0757 H   0  0  0  0  0  0  0  0  0  0  0  0
   12.5384   10.5044    3.1429 H   0  0  0  0  0  0  0  0  0  0  0  0
   11.9731    9.2648    4.3236 H   0  0  0  0  0  0  0  0  0  0  0  0
  1  2  1  0
  2  3  1  0
  2  4  1  0
  4  5  1  0
  5  6  1  0
  6  7  1  0
  7  8  1  0
  8  9  2  0
  8 10  1  0
 10 11  1  0
 11 12  1  0
 12 13  2  0
 13 14  1  0
 14 15  2  0
 15 16  1  0
 16 17  1  0
  7 18  1  0
 18 19  1  0
 19  4  1  0
 16 12  1  0
  1 20  1  0
  1 21  1  0
  1 22  1  0
  2 23  1  0
  3 24  1  0
  3 25  1  0
  3 26  1  0
  4 27  1  0
  5 28  1  0
  5 29  1  0
  6 30  1  0
  6 31  1  0
  7 32  1  0
 10 33  1  0
 11 34  1  0
 11 35  1  0
 13 36  1  0
 14 37  1  0
 17 38  1  0
 17 39  1  0
 17 40  1  0
 18 41  1  0
 18 42  1  0
 19 43  1  0
 19 44  1  0
M  CHG  1   3   1
M  END
>  <EmbedRMS>  (183) 
0.027804703519808214

$$$$

     RDKit          3D

 43 43  0  0  0  0  0  0  0  0999 V2000
    3.6711   10.6275    5.0210 C   0  0  0  0  0  0  0  0  0  0  0  0
    4.9918   10.0337    4.8478 N   0  0  0  0  0  0  0  0  0  0  0  0
    5.8609   10.3374    3.9251 C   0  0  0  0  0  0  0  0  0  0  0  0
    7.1438    9.6971    3.9877 N   0  0  0  0  0  0  0  0  0  0  0  0
    8.0084    9.4738    2.8649 C   0  0  0  0  0  0  0  0  0  0  0  0
    7.5990    9.6719    1.6869 O   0  0  0  0  0  0  0  0  0  0  0  0
    9.4145    8.9906    3.1048 C   0  0  0  0  0  0  0  0  0  0  0  0
    9.7980    7.9237    2.0817 C   0  0  0  0  0  0  0  0  0  0  0  0
   11.1572    7.3132    2.3941 C   0  0  0  0  0  0  0  0  0  0  0  0
   12.2748    8.3220    2.7727 C   0  0  0  0  0  0  0  0  0  0  0  0
   13.5804    8.3570    1.9537 C   0  0  0  0  0  0  0  0  0  0  0  0
   13.9835    7.0983    1.1856 C   0  0  0  0  0  0  0  0  0  0  0  0
   14.7108    8.8835    2.7307 N   0  0  0  0  0  4  0  0  0  0  0  0
   11.8313    9.7199    3.3032 C   0  0  0  0  0  0  0  0  0  0  0  0
   10.3967   10.1525    3.0053 C   0  0  0  0  0  0  0  0  0  0  0  0
    5.5916   11.3984    2.9170 C   0  0  0  0  0  0  0  0  0  0  0  0
    6.6474   12.4065    2.5690 C   0  0  0  0  0  0  0  0  0  0  0  0
    4.4398   11.4546    2.3261 N   0  0  0  0  0  0  0  0  0  0  0  0
    3.2295   10.2542    5.9676 H   0  0  0  0  0  0  0  0  0  0  0  0
    3.7496   11.7340    5.0805 H   0  0  0  0  0  0  0  0  0  0  0  0
    3.0036   10.3293    4.1859 H   0  0  0  0  0  0  0  0  0  0  0  0
    7.4328    9.3004    4.9106 H   0  0  0  0  0  0  0  0  0  0  0  0
    9.4778    8.5472    4.1241 H   0  0  0  0  0  0  0  0  0  0  0  0
    9.0342    7.1141    2.0770 H   0  0  0  0  0  0  0  0  0  0  0  0
    9.8285    8.3631    1.0592 H   0  0  0  0  0  0  0  0  0  0  0  0
   11.4409    6.6839    1.5306 H   0  0  0  0  0  0  0  0  0  0  0  0
   11.0022    6.5975    3.2351 H   0  0  0  0  0  0  0  0  0  0  0  0
   12.6562    7.8399    3.7039 H   0  0  0  0  0  0  0  0  0  0  0  0
   13.3810    9.1009    1.1483 H   0  0  0  0  0  0  0  0  0  0  0  0
   15.0002    7.2111    0.7526 H   0  0  0  0  0  0  0  0  0  0  0  0
   13.9858    6.2213    1.8668 H   0  0  0  0  0  0  0  0  0  0  0  0
   13.2928    6.9110    0.3369 H   0  0  0  0  0  0  0  0  0  0  0  0
   14.9935    8.1895    3.4607 H   0  0  0  0  0  0  0  0  0  0  0  0
   15.5288    9.0526    2.1007 H   0  0  0  0  0  0  0  0  0  0  0  0
   14.4917    9.7898    3.1975 H   0  0  0  0  0  0  0  0  0  0  0  0
   11.9646    9.7506    4.4091 H   0  0  0  0  0  0  0  0  0  0  0  0
   12.4767   10.5264    2.8971 H   0  0  0  0  0  0  0  0  0  0  0  0
   10.3549   10.5887    1.9815 H   0  0  0  0  0  0  0  0  0  0  0  0
   10.1039   10.9549    3.7189 H   0  0  0  0  0  0  0  0  0  0  0  0
    6.2354   13.4311    2.6836 H   0  0  0  0  0  0  0  0  0  0  0  0
    7.5288   12.3136    3.2381 H   0  0  0  0  0  0  0  0  0  0  0  0
    6.9718   12.2669    1.5169 H   0  0  0  0  0  0  0  0  0  0  0  0
    4.2201   12.1851    1.6121 H   0  0  0  0  0  0  0  0  0  0  0  0
  1  2  1  0
  2  3  2  3
  3  4  1  0
  4  5  1  0
  5  6  2  0
  5  7  1  0
  7  8  1  0
  8  9  1  0
  9 10  1  0
 10 11  1  0
 11 12  1  0
 11 13  1  0
 10 14  1  0
 14 15  1  0
  3 16  1  0
 16 17  1  0
 16 18  2  3
 15  7  1  0
  1 19  1  0
  1 20  1  0
  1 21  1  0
  4 22  1  0
  7 23  1  0
  8 24  1  0
  8 25  1  0
  9 26  1  0
  9 27  1  0
 10 28  1  0
 11 29  1  0
 12 30  1  0
 12 31  1  0
 12 32  1  0
 13 33  1  0
 13 34  1  0
 13 35  1  0
 14 36  1  0
 14 37  1  0
 15 38  1  0
 15 39  1  0
 17 40  1  0
 17 41  1  0
 17 42  1  0
 18 43  1  0
M  CHG  1  13   1
M  END
>  <EmbedRMS>  (184) 
0.20210563071247709

$$$$

     RDKit          3D

 45 45  0  0  0  0  0  0  0  0999 V2000
    6.6426   12.2821    2.6516 C   0  0  0  0  0  0  0  0  0  0  0  0
    5.6157   11.5113    3.0196 C   0  0  0  0  0  0  0  0  0  0  0  0
    4.2139   11.9100    2.6324 C   0  0  0  0  0  0  0  0  0  0  0  0
    5.8597   10.3523    3.9284 C   0  0  0  0  0  0  0  0  0  0  0  0
    4.8899    9.9517    4.7721 C   0  0  0  0  0  0  0  0  0  0  0  0
    5.0638    8.8198    5.7367 C   0  0  0  0  0  0  0  0  0  0  0  0
    7.1587    9.7297    4.0017 N   0  0  0  0  0  0  0  0  0  0  0  0
    8.0094    9.4770    2.8770 C   0  0  0  0  0  0  0  0  0  0  0  0
    7.5925    9.6699    1.6995 O   0  0  0  0  0  0  0  0  0  0  0  0
    9.4190    8.9882    3.1140 C   0  0  0  0  0  0  0  0  0  0  0  0
    9.7814    7.9392    2.0698 C   0  0  0  0  0  0  0  0  0  0  0  0
   11.1442    7.3173    2.3173 C   0  0  0  0  0  0  0  0  0  0  0  0
   12.2312    8.2990    2.7947 C   0  0  0  0  0  0  0  0  0  0  0  0
   13.7088    7.9146    2.4295 C   0  0  0  0  0  0  0  0  0  0  0  0
   13.9319    7.3320    1.0257 C   0  0  0  0  0  0  0  0  0  0  0  0
   14.6475    9.0159    2.6730 N   0  0  0  0  0  4  0  0  0  0  0  0
   11.8850    9.7892    2.9963 C   0  0  0  0  0  0  0  0  0  0  0  0
   10.3931   10.1701    3.0593 C   0  0  0  0  0  0  0  0  0  0  0  0
    6.5060   13.1634    2.0375 H   0  0  0  0  0  0  0  0  0  0  0  0
    6.5060   13.1634    2.0375 H   0  0  0  0  0  0  0  0  0  0  0  0
    4.2031   12.4754    1.6757 H   0  0  0  0  0  0  0  0  0  0  0  0
    3.5836   11.0078    2.4847 H   0  0  0  0  0  0  0  0  0  0  0  0
    3.7720   12.5450    3.4286 H   0  0  0  0  0  0  0  0  0  0  0  0
    3.9254   10.4428    4.7786 H   0  0  0  0  0  0  0  0  0  0  0  0
    5.3803    7.9015    5.1981 H   0  0  0  0  0  0  0  0  0  0  0  0
    5.8159    9.0848    6.5090 H   0  0  0  0  0  0  0  0  0  0  0  0
    4.0999    8.6139    6.2477 H   0  0  0  0  0  0  0  0  0  0  0  0
    7.5134    9.4348    4.9389 H   0  0  0  0  0  0  0  0  0  0  0  0
    9.4838    8.5152    4.1195 H   0  0  0  0  0  0  0  0  0  0  0  0
    9.7856    8.4081    1.0593 H   0  0  0  0  0  0  0  0  0  0  0  0
    9.0155    7.1315    2.0616 H   0  0  0  0  0  0  0  0  0  0  0  0
   11.4284    6.8358    1.3632 H   0  0  0  0  0  0  0  0  0  0  0  0
   11.0277    6.4824    3.0472 H   0  0  0  0  0  0  0  0  0  0  0  0
   12.2338    8.0276    3.8788 H   0  0  0  0  0  0  0  0  0  0  0  0
   14.0054    7.0847    3.1155 H   0  0  0  0  0  0  0  0  0  0  0  0
   13.5346    6.2977    0.9557 H   0  0  0  0  0  0  0  0  0  0  0  0
   13.4427    7.9752    0.2638 H   0  0  0  0  0  0  0  0  0  0  0  0
   15.0164    7.2729    0.7928 H   0  0  0  0  0  0  0  0  0  0  0  0
   14.5093    9.7854    1.9790 H   0  0  0  0  0  0  0  0  0  0  0  0
   14.5387    9.3811    3.6464 H   0  0  0  0  0  0  0  0  0  0  0  0
   15.6306    8.6688    2.5853 H   0  0  0  0  0  0  0  0  0  0  0  0
   12.3172   10.3488    2.1397 H   0  0  0  0  0  0  0  0  0  0  0  0
   12.3886   10.1897    3.9059 H   0  0  0  0  0  0  0  0  0  0  0  0
   10.1546   10.7911    2.1654 H   0  0  0  0  0  0  0  0  0  0  0  0
   10.2174   10.8183    3.9465 H   0  0  0  0  0  0  0  0  0  0  0  0
  1  2  2  3
  2  3  1  0
  2  4  1  0
  4  5  2  3
  5  6  1  0
  4  7  1  0
  7  8  1  0
  8  9  2  0
  8 10  1  0
 10 11  1  0
 11 12  1  0
 12 13  1  0
 13 14  1  0
 14 15  1  0
 14 16  1  0
 13 17  1  0
 17 18  1  0
 18 10  1  0
  1 19  1  0
  1 20  1  0
  3 21  1  0
  3 22  1  0
  3 23  1  0
  5 24  1  0
  6 25  1  0
  6 26  1  0
  6 27  1  0
  7 28  1  0
 10 29  1  0
 11 30  1  0
 11 31  1  0
 12 32  1  0
 12 33  1  0
 13 34  1  0
 14 35  1  0
 15 36  1  0
 15 37  1  0
 15 38  1  0
 16 39  1  0
 16 40  1  0
 16 41  1  0
 17 42  1  0
 17 43  1  0
 18 44  1  0
 18 45  1  0
M  CHG  1  16   1
M  END
>  <EmbedRMS>  (185) 
0.16480955270904202

$$$$

     RDKit          3D

 46 46  0  0  0  0  0  0  0  0999 V2000
    5.8558   11.3120    5.9668 C   0  0  0  0  0  0  0  0  0  0  0  0
    5.1177   10.6611    4.8382 C   0  0  0  0  0  0  0  0  0  0  0  0
    5.7249    9.9147    3.8975 C   0  0  0  0  0  0  0  0  0  0  0  0
    7.1422    9.6696    3.9952 N   0  0  0  0  0  0  0  0  0  0  0  0
    8.0080    9.4645    2.8745 C   0  0  0  0  0  0  0  0  0  0  0  0
    7.6091    9.7127    1.7015 O   0  0  0  0  0  0  0  0  0  0  0  0
    9.4194    8.9853    3.1129 C   0  0  0  0  0  0  0  0  0  0  0  0
    9.7824    7.9370    2.0690 C   0  0  0  0  0  0  0  0  0  0  0  0
   11.1453    7.3164    2.3174 C   0  0  0  0  0  0  0  0  0  0  0  0
   12.2313    8.2994    2.7946 C   0  0  0  0  0  0  0  0  0  0  0  0
   13.7090    7.9155    2.4297 C   0  0  0  0  0  0  0  0  0  0  0  0
   13.9325    7.3325    1.0261 C   0  0  0  0  0  0  0  0  0  0  0  0
   14.6471    9.0172    2.6731 N   0  0  0  0  0  4  0  0  0  0  0  0
   11.8837    9.7896    2.9948 C   0  0  0  0  0  0  0  0  0  0  0  0
   10.3913   10.1691    3.0589 C   0  0  0  0  0  0  0  0  0  0  0  0
    4.9384    9.2886    2.8547 N   0  0  0  0  0  0  0  0  0  0  0  0
    5.2736    7.9508    2.3618 C   0  0  0  0  0  0  0  0  0  0  0  0
    3.7113    9.9147    2.3539 C   0  0  0  0  0  0  0  0  0  0  0  0
    5.1576   11.9476    6.5507 H   0  0  0  0  0  0  0  0  0  0  0  0
    6.2742   10.5415    6.6477 H   0  0  0  0  0  0  0  0  0  0  0  0
    6.6711   11.9553    5.5729 H   0  0  0  0  0  0  0  0  0  0  0  0
    4.0487   10.8213    4.8039 H   0  0  0  0  0  0  0  0  0  0  0  0
    7.5829    9.6341    4.9414 H   0  0  0  0  0  0  0  0  0  0  0  0
    9.4835    8.5122    4.1185 H   0  0  0  0  0  0  0  0  0  0  0  0
    9.7859    8.4059    1.0585 H   0  0  0  0  0  0  0  0  0  0  0  0
    9.0169    7.1287    2.0605 H   0  0  0  0  0  0  0  0  0  0  0  0
   11.4300    6.8345    1.3636 H   0  0  0  0  0  0  0  0  0  0  0  0
   11.0292    6.4819    3.0479 H   0  0  0  0  0  0  0  0  0  0  0  0
   12.2339    8.0289    3.8789 H   0  0  0  0  0  0  0  0  0  0  0  0
   14.0058    7.0859    3.1161 H   0  0  0  0  0  0  0  0  0  0  0  0
   15.0170    7.2744    0.7931 H   0  0  0  0  0  0  0  0  0  0  0  0
   13.5363    6.2978    0.9565 H   0  0  0  0  0  0  0  0  0  0  0  0
   13.4426    7.9749    0.2640 H   0  0  0  0  0  0  0  0  0  0  0  0
   15.6305    8.6706    2.5853 H   0  0  0  0  0  0  0  0  0  0  0  0
   14.5382    9.3822    3.6465 H   0  0  0  0  0  0  0  0  0  0  0  0
   14.5084    9.7866    1.9792 H   0  0  0  0  0  0  0  0  0  0  0  0
   12.3146   10.3485    2.1371 H   0  0  0  0  0  0  0  0  0  0  0  0
   12.3878   10.1917    3.9034 H   0  0  0  0  0  0  0  0  0  0  0  0
   10.1519   10.7906    2.1657 H   0  0  0  0  0  0  0  0  0  0  0  0
   10.2151   10.8157    3.9471 H   0  0  0  0  0  0  0  0  0  0  0  0
    6.0813    7.4840    2.9638 H   0  0  0  0  0  0  0  0  0  0  0  0
    4.3830    7.2910    2.4339 H   0  0  0  0  0  0  0  0  0  0  0  0
    5.5911    8.0085    1.2997 H   0  0  0  0  0  0  0  0  0  0  0  0
    3.4006    9.4570    1.3899 H   0  0  0  0  0  0  0  0  0  0  0  0
    3.8819   10.9980    2.1775 H   0  0  0  0  0  0  0  0  0  0  0  0
    2.8877    9.7763    3.0851 H   0  0  0  0  0  0  0  0  0  0  0  0
  1  2  1  0
  2  3  2  3
  3  4  1  0
  4  5  1  0
  5  6  2  0
  5  7  1  0
  7  8  1  0
  8  9  1  0
  9 10  1  0
 10 11  1  0
 11 12  1  0
 11 13  1  0
 10 14  1  0
 14 15  1  0
  3 16  1  0
 16 17  1  0
 16 18  1  0
 15  7  1  0
  1 19  1  0
  1 20  1  0
  1 21  1  0
  2 22  1  0
  4 23  1  0
  7 24  1  0
  8 25  1  0
  8 26  1  0
  9 27  1  0
  9 28  1  0
 10 29  1  0
 11 30  1  0
 12 31  1  0
 12 32  1  0
 12 33  1  0
 13 34  1  0
 13 35  1  0
 13 36  1  0
 14 37  1  0
 14 38  1  0
 15 39  1  0
 15 40  1  0
 17 41  1  0
 17 42  1  0
 17 43  1  0
 18 44  1  0
 18 45  1  0
 18 46  1  0
M  CHG  1  13   1
M  END
>  <EmbedRMS>  (186) 
0.16484252671190003

$$$$

     RDKit          3D

 41 42  0  0  0  0  0  0  0  0999 V2000
   14.0155    7.0452    1.2243 C   0  0  0  0  0  0  0  0  0  0  0  0
   13.6577    8.3402    1.9340 C   0  0  0  0  0  0  0  0  0  0  0  0
   14.6213    8.7734    2.9399 N   0  0  0  0  0  4  0  0  0  0  0  0
   12.1479    8.5868    2.2358 C   0  0  0  0  0  0  0  0  0  0  0  0
   11.2708    7.3634    2.5450 C   0  0  0  0  0  0  0  0  0  0  0  0
    9.7738    7.7130    2.4384 C   0  0  0  0  0  0  0  0  0  0  0  0
    9.4545    9.1902    2.6817 C   0  0  0  0  0  0  0  0  0  0  0  0
    7.9930    9.5119    2.7236 C   0  0  0  0  0  0  0  0  0  0  0  0
    7.4746    9.6077    1.5899 O   0  0  0  0  0  0  0  0  0  0  0  0
    7.1920    9.7025    3.9130 N   0  0  0  0  0  0  0  0  0  0  0  0
    5.8002   10.1396    3.9098 C   0  0  0  0  0  0  0  0  0  0  0  0
    5.1136   10.2622    5.1332 C   0  0  0  0  0  0  0  0  0  0  0  0
    3.7791   10.6918    5.1678 C   0  0  0  0  0  0  0  0  0  0  0  0
    3.1050   10.9965    3.9846 C   0  0  0  0  0  0  0  0  0  0  0  0
    3.7620   10.8848    2.7663 C   0  0  0  0  0  0  0  0  0  0  0  0
    5.0915   10.4774    2.7238 C   0  0  0  0  0  0  0  0  0  0  0  0
   10.4123   10.0785    3.4530 C   0  0  0  0  0  0  0  0  0  0  0  0
   11.8967    9.6862    3.2904 C   0  0  0  0  0  0  0  0  0  0  0  0
   13.3412    6.8748    0.3575 H   0  0  0  0  0  0  0  0  0  0  0  0
   15.0600    7.0795    0.8460 H   0  0  0  0  0  0  0  0  0  0  0  0
   13.9272    6.1936    1.9310 H   0  0  0  0  0  0  0  0  0  0  0  0
   13.8472    9.0661    1.1041 H   0  0  0  0  0  0  0  0  0  0  0  0
   14.4394    8.2635    3.8342 H   0  0  0  0  0  0  0  0  0  0  0  0
   14.5690    9.8041    3.1044 H   0  0  0  0  0  0  0  0  0  0  0  0
   15.5964    8.5564    2.6293 H   0  0  0  0  0  0  0  0  0  0  0  0
   11.7549    8.9789    1.2687 H   0  0  0  0  0  0  0  0  0  0  0  0
   11.4801    6.5302    1.8427 H   0  0  0  0  0  0  0  0  0  0  0  0
   11.5022    7.0014    3.5710 H   0  0  0  0  0  0  0  0  0  0  0  0
    9.3960    7.4069    1.4357 H   0  0  0  0  0  0  0  0  0  0  0  0
    9.2216    7.1022    3.1855 H   0  0  0  0  0  0  0  0  0  0  0  0
    9.7131    9.5882    1.6698 H   0  0  0  0  0  0  0  0  0  0  0  0
    7.6559    9.5263    4.8324 H   0  0  0  0  0  0  0  0  0  0  0  0
    5.6153   10.0259    6.0630 H   0  0  0  0  0  0  0  0  0  0  0  0
    3.2672   10.7820    6.1172 H   0  0  0  0  0  0  0  0  0  0  0  0
    2.0739   11.3242    4.0170 H   0  0  0  0  0  0  0  0  0  0  0  0
    3.2415   11.1383    1.8510 H   0  0  0  0  0  0  0  0  0  0  0  0
    5.5040   10.4952    1.7386 H   0  0  0  0  0  0  0  0  0  0  0  0
   10.1475   10.0136    4.5305 H   0  0  0  0  0  0  0  0  0  0  0  0
   10.2671   11.1433    3.1573 H   0  0  0  0  0  0  0  0  0  0  0  0
   12.4562   10.6027    3.0029 H   0  0  0  0  0  0  0  0  0  0  0  0
   12.2889    9.3466    4.2742 H   0  0  0  0  0  0  0  0  0  0  0  0
  1  2  1  0
  2  3  1  0
  2  4  1  0
  4  5  1  0
  5  6  1  0
  6  7  1  0
  7  8  1  0
  8  9  2  0
  8 10  1  0
 10 11  1  0
 11 12  2  0
 12 13  1  0
 13 14  2  0
 14 15  1  0
 15 16  2  0
  7 17  1  0
 17 18  1  0
 18  4  1  0
 16 11  1  0
  1 19  1  0
  1 20  1  0
  1 21  1  0
  2 22  1  0
  3 23  1  0
  3 24  1  0
  3 25  1  0
  4 26  1  0
  5 27  1  0
  5 28  1  0
  6 29  1  0
  6 30  1  0
  7 31  1  0
 10 32  1  0
 12 33  1  0
 13 34  1  0
 14 35  1  0
 15 36  1  0
 16 37  1  0
 17 38  1  0
 17 39  1  0
 18 40  1  0
 18 41  1  0
M  CHG  1   3   1
M  END
>  <EmbedRMS>  (187) 
0.24964892458419108

$$$$

     RDKit          3D

 42 43  0  0  0  0  0  0  0  0999 V2000
   14.0094    7.0504    1.2533 C   0  0  0  0  0  0  0  0  0  0  0  0
   13.5988    8.3244    1.9900 C   0  0  0  0  0  0  0  0  0  0  0  0
   14.7011    8.8919    2.7695 N   0  0  0  0  0  4  0  0  0  0  0  0
   12.2591    8.3279    2.7674 C   0  0  0  0  0  0  0  0  0  0  0  0
   11.1757    7.4412    2.1357 C   0  0  0  0  0  0  0  0  0  0  0  0
    9.7398    7.7282    2.5466 C   0  0  0  0  0  0  0  0  0  0  0  0
    9.4445    9.2042    2.6453 C   0  0  0  0  0  0  0  0  0  0  0  0
    7.9808    9.5349    2.7314 C   0  0  0  0  0  0  0  0  0  0  0  0
    7.4308    9.7480    1.6249 O   0  0  0  0  0  0  0  0  0  0  0  0
    7.2020    9.6521    3.9398 N   0  0  0  0  0  0  0  0  0  0  0  0
    5.7636    9.8229    3.9010 C   0  0  0  0  0  0  0  0  0  0  0  0
    5.0451   10.6690    4.7275 C   0  0  0  0  0  0  0  0  0  0  0  0
    3.7119   10.5044    4.3882 C   0  0  0  0  0  0  0  0  0  0  0  0
    3.6686    9.5589    3.3830 C   0  0  0  0  0  0  0  0  0  0  0  0
    4.9155    9.1348    3.0973 N   0  0  0  0  0  0  0  0  0  0  0  0
    5.2230    8.0500    2.1686 C   0  0  0  0  0  0  0  0  0  0  0  0
   10.3845   10.0206    3.4875 C   0  0  0  0  0  0  0  0  0  0  0  0
   11.8475    9.7816    3.1206 C   0  0  0  0  0  0  0  0  0  0  0  0
   13.2643    6.7636    0.4832 H   0  0  0  0  0  0  0  0  0  0  0  0
   14.9802    7.1930    0.7324 H   0  0  0  0  0  0  0  0  0  0  0  0
   14.1164    6.2181    1.9802 H   0  0  0  0  0  0  0  0  0  0  0  0
   13.4348    9.0283    1.1410 H   0  0  0  0  0  0  0  0  0  0  0  0
   14.5198    9.8931    3.0054 H   0  0  0  0  0  0  0  0  0  0  0  0
   15.5909    8.8653    2.2203 H   0  0  0  0  0  0  0  0  0  0  0  0
   14.8353    8.3432    3.6496 H   0  0  0  0  0  0  0  0  0  0  0  0
   12.4661    7.8416    3.7475 H   0  0  0  0  0  0  0  0  0  0  0  0
   11.2089    7.5937    1.0347 H   0  0  0  0  0  0  0  0  0  0  0  0
   11.4019    6.3683    2.3238 H   0  0  0  0  0  0  0  0  0  0  0  0
    9.0482    7.2418    1.8223 H   0  0  0  0  0  0  0  0  0  0  0  0
    9.5561    7.2692    3.5425 H   0  0  0  0  0  0  0  0  0  0  0  0
    9.7190    9.5618    1.6216 H   0  0  0  0  0  0  0  0  0  0  0  0
    7.7005    9.7694    4.8497 H   0  0  0  0  0  0  0  0  0  0  0  0
    5.4436   11.3286    5.4867 H   0  0  0  0  0  0  0  0  0  0  0  0
    2.8662   11.0094    4.8351 H   0  0  0  0  0  0  0  0  0  0  0  0
    2.7693    9.1808    2.9134 H   0  0  0  0  0  0  0  0  0  0  0  0
    4.4056    7.2977    2.1821 H   0  0  0  0  0  0  0  0  0  0  0  0
    6.1567    7.5280    2.4648 H   0  0  0  0  0  0  0  0  0  0  0  0
    5.3103    8.4483    1.1367 H   0  0  0  0  0  0  0  0  0  0  0  0
   10.1472   11.1040    3.3934 H   0  0  0  0  0  0  0  0  0  0  0  0
   10.2352    9.7350    4.5515 H   0  0  0  0  0  0  0  0  0  0  0  0
   12.0598   10.4400    2.2494 H   0  0  0  0  0  0  0  0  0  0  0  0
   12.4713   10.1548    3.9619 H   0  0  0  0  0  0  0  0  0  0  0  0
  1  2  1  0
  2  3  1  0
  2  4  1  0
  4  5  1  0
  5  6  1  0
  6  7  1  0
  7  8  1  0
  8  9  2  0
  8 10  1  0
 10 11  1  0
 11 12  2  0
 12 13  1  0
 13 14  2  0
 14 15  1  0
 15 16  1  0
  7 17  1  0
 17 18  1  0
 18  4  1  0
 15 11  1  0
  1 19  1  0
  1 20  1  0
  1 21  1  0
  2 22  1  0
  3 23  1  0
  3 24  1  0
  3 25  1  0
  4 26  1  0
  5 27  1  0
  5 28  1  0
  6 29  1  0
  6 30  1  0
  7 31  1  0
 10 32  1  0
 12 33  1  0
 13 34  1  0
 14 35  1  0
 16 36  1  0
 16 37  1  0
 16 38  1  0
 17 39  1  0
 17 40  1  0
 18 41  1  0
 18 42  1  0
M  CHG  1   3   1
M  END
>  <EmbedRMS>  (188) 
0.293041831892948

$$$$

     RDKit          3D

 43 44  0  0  0  0  0  0  0  0999 V2000
   14.0276    7.2301    1.0858 C   0  0  0  0  0  0  0  0  0  0  0  0
   13.6459    7.9626    2.3850 C   0  0  0  0  0  0  0  0  0  0  0  0
   14.6273    9.0243    2.6470 N   0  0  0  0  0  4  0  0  0  0  0  0
   12.1819    8.5085    2.2960 C   0  0  0  0  0  0  0  0  0  0  0  0
   11.1978    7.3499    2.5409 C   0  0  0  0  0  0  0  0  0  0  0  0
    9.7345    7.7437    2.3739 C   0  0  0  0  0  0  0  0  0  0  0  0
    9.4500    9.2139    2.6409 C   0  0  0  0  0  0  0  0  0  0  0  0
    7.9871    9.5385    2.7237 C   0  0  0  0  0  0  0  0  0  0  0  0
    7.4165    9.6879    1.6153 O   0  0  0  0  0  0  0  0  0  0  0  0
    7.2149    9.6895    3.9283 N   0  0  0  0  0  0  0  0  0  0  0  0
    5.8138   10.1222    3.8054 C   0  0  0  0  0  0  0  0  0  0  0  0
    5.1472   10.2607    5.1400 C   0  0  0  0  0  0  0  0  0  0  0  0
    4.4718    9.1754    5.7134 C   0  0  0  0  0  0  0  0  0  0  0  0
    3.8687    9.3139    6.9637 C   0  0  0  0  0  0  0  0  0  0  0  0
    3.9494   10.5386    7.6297 C   0  0  0  0  0  0  0  0  0  0  0  0
    4.6077   11.5829    7.0597 N   0  0  0  0  0  0  0  0  0  0  0  0
    5.2027   11.4727    5.8424 C   0  0  0  0  0  0  0  0  0  0  0  0
   10.4185   10.0737    3.4302 C   0  0  0  0  0  0  0  0  0  0  0  0
   11.8964    9.6377    3.3188 C   0  0  0  0  0  0  0  0  0  0  0  0
   13.3803    6.3499    0.9044 H   0  0  0  0  0  0  0  0  0  0  0  0
   13.9572    7.9169    0.2153 H   0  0  0  0  0  0  0  0  0  0  0  0
   15.0709    6.8548    1.1517 H   0  0  0  0  0  0  0  0  0  0  0  0
   13.7144    7.2277    3.2199 H   0  0  0  0  0  0  0  0  0  0  0  0
   15.5990    8.6418    2.5845 H   0  0  0  0  0  0  0  0  0  0  0  0
   14.5149    9.3994    3.6159 H   0  0  0  0  0  0  0  0  0  0  0  0
   14.5263    9.7976    1.9494 H   0  0  0  0  0  0  0  0  0  0  0  0
   12.0112    8.9222    1.2764 H   0  0  0  0  0  0  0  0  0  0  0  0
   11.3979    6.4997    1.8580 H   0  0  0  0  0  0  0  0  0  0  0  0
   11.3436    6.9702    3.5775 H   0  0  0  0  0  0  0  0  0  0  0  0
    9.3957    7.4730    1.3468 H   0  0  0  0  0  0  0  0  0  0  0  0
    9.1283    7.1284    3.0751 H   0  0  0  0  0  0  0  0  0  0  0  0
    9.7095    9.6218    1.6318 H   0  0  0  0  0  0  0  0  0  0  0  0
    7.6566    9.5244    4.8608 H   0  0  0  0  0  0  0  0  0  0  0  0
    5.2544    9.3860    3.1871 H   0  0  0  0  0  0  0  0  0  0  0  0
    5.7751   11.0969    3.2707 H   0  0  0  0  0  0  0  0  0  0  0  0
    4.4175    8.2247    5.1974 H   0  0  0  0  0  0  0  0  0  0  0  0
    3.3461    8.4800    7.4142 H   0  0  0  0  0  0  0  0  0  0  0  0
    3.4872   10.6595    8.6003 H   0  0  0  0  0  0  0  0  0  0  0  0
    5.7224   12.3263    5.4264 H   0  0  0  0  0  0  0  0  0  0  0  0
   10.1212   10.0281    4.5004 H   0  0  0  0  0  0  0  0  0  0  0  0
   10.3159   11.1407    3.1251 H   0  0  0  0  0  0  0  0  0  0  0  0
   12.2359    9.3018    4.3242 H   0  0  0  0  0  0  0  0  0  0  0  0
   12.4950   10.5353    3.0521 H   0  0  0  0  0  0  0  0  0  0  0  0
  1  2  1  0
  2  3  1  0
  2  4  1  0
  4  5  1  0
  5  6  1  0
  6  7  1  0
  7  8  1  0
  8  9  2  0
  8 10  1  0
 10 11  1  0
 11 12  1  0
 12 13  2  0
 13 14  1  0
 14 15  2  0
 15 16  1  0
 16 17  2  0
  7 18  1  0
 18 19  1  0
 19  4  1  0
 17 12  1  0
  1 20  1  0
  1 21  1  0
  1 22  1  0
  2 23  1  0
  3 24  1  0
  3 25  1  0
  3 26  1  0
  4 27  1  0
  5 28  1  0
  5 29  1  0
  6 30  1  0
  6 31  1  0
  7 32  1  0
 10 33  1  0
 11 34  1  0
 11 35  1  0
 13 36  1  0
 14 37  1  0
 15 38  1  0
 17 39  1  0
 18 40  1  0
 18 41  1  0
 19 42  1  0
 19 43  1  0
M  CHG  1   3   1
M  END
>  <EmbedRMS>  (189) 
0.17084101544492625

$$$$

     RDKit          3D

 45 45  0  0  0  0  0  0  0  0999 V2000
    6.6426   12.2821    2.6516 C   0  0  0  0  0  0  0  0  0  0  0  0
    5.6157   11.5113    3.0196 C   0  0  0  0  0  0  0  0  0  0  0  0
    4.2139   11.9100    2.6324 C   0  0  0  0  0  0  0  0  0  0  0  0
    5.8597   10.3523    3.9284 C   0  0  0  0  0  0  0  0  0  0  0  0
    4.8899    9.9517    4.7721 C   0  0  0  0  0  0  0  0  0  0  0  0
    5.0638    8.8198    5.7367 C   0  0  0  0  0  0  0  0  0  0  0  0
    7.1587    9.7297    4.0017 N   0  0  0  0  0  0  0  0  0  0  0  0
    8.0094    9.4770    2.8770 C   0  0  0  0  0  0  0  0  0  0  0  0
    7.5925    9.6699    1.6995 O   0  0  0  0  0  0  0  0  0  0  0  0
    9.4190    8.9882    3.1140 C   0  0  0  0  0  0  0  0  0  0  0  0
    9.7814    7.9392    2.0698 C   0  0  0  0  0  0  0  0  0  0  0  0
   11.1442    7.3173    2.3173 C   0  0  0  0  0  0  0  0  0  0  0  0
   12.2312    8.2990    2.7947 C   0  0  0  0  0  0  0  0  0  0  0  0
   13.7088    7.9146    2.4295 C   0  0  0  0  0  0  0  0  0  0  0  0
   13.9319    7.3320    1.0257 C   0  0  0  0  0  0  0  0  0  0  0  0
   14.6475    9.0159    2.6730 N   0  0  0  0  0  4  0  0  0  0  0  0
   11.8850    9.7892    2.9963 C   0  0  0  0  0  0  0  0  0  0  0  0
   10.3931   10.1701    3.0593 C   0  0  0  0  0  0  0  0  0  0  0  0
    6.5060   13.1634    2.0375 H   0  0  0  0  0  0  0  0  0  0  0  0
    6.5060   13.1634    2.0375 H   0  0  0  0  0  0  0  0  0  0  0  0
    4.2031   12.4754    1.6757 H   0  0  0  0  0  0  0  0  0  0  0  0
    3.5836   11.0078    2.4847 H   0  0  0  0  0  0  0  0  0  0  0  0
    3.7720   12.5450    3.4286 H   0  0  0  0  0  0  0  0  0  0  0  0
    3.9254   10.4428    4.7786 H   0  0  0  0  0  0  0  0  0  0  0  0
    5.3803    7.9015    5.1981 H   0  0  0  0  0  0  0  0  0  0  0  0
    5.8159    9.0848    6.5090 H   0  0  0  0  0  0  0  0  0  0  0  0
    4.0999    8.6139    6.2477 H   0  0  0  0  0  0  0  0  0  0  0  0
    7.5134    9.4348    4.9389 H   0  0  0  0  0  0  0  0  0  0  0  0
    9.4838    8.5152    4.1195 H   0  0  0  0  0  0  0  0  0  0  0  0
    9.7856    8.4081    1.0593 H   0  0  0  0  0  0  0  0  0  0  0  0
    9.0155    7.1315    2.0616 H   0  0  0  0  0  0  0  0  0  0  0  0
   11.4284    6.8358    1.3632 H   0  0  0  0  0  0  0  0  0  0  0  0
   11.0277    6.4824    3.0472 H   0  0  0  0  0  0  0  0  0  0  0  0
   12.2338    8.0276    3.8788 H   0  0  0  0  0  0  0  0  0  0  0  0
   14.0054    7.0847    3.1155 H   0  0  0  0  0  0  0  0  0  0  0  0
   13.5346    6.2977    0.9557 H   0  0  0  0  0  0  0  0  0  0  0  0
   13.4427    7.9752    0.2638 H   0  0  0  0  0  0  0  0  0  0  0  0
   15.0164    7.2729    0.7928 H   0  0  0  0  0  0  0  0  0  0  0  0
   14.5093    9.7854    1.9790 H   0  0  0  0  0  0  0  0  0  0  0  0
   14.5387    9.3811    3.6464 H   0  0  0  0  0  0  0  0  0  0  0  0
   15.6306    8.6688    2.5853 H   0  0  0  0  0  0  0  0  0  0  0  0
   12.3172   10.3488    2.1397 H   0  0  0  0  0  0  0  0  0  0  0  0
   12.3886   10.1897    3.9059 H   0  0  0  0  0  0  0  0  0  0  0  0
   10.1546   10.7911    2.1654 H   0  0  0  0  0  0  0  0  0  0  0  0
   10.2174   10.8183    3.9465 H   0  0  0  0  0  0  0  0  0  0  0  0
  1  2  2  3
  2  3  1  0
  2  4  1  0
  4  5  2  3
  5  6  1  0
  4  7  1  0
  7  8  1  0
  8  9  2  0
  8 10  1  0
 10 11  1  0
 11 12  1  0
 12 13  1  0
 13 14  1  0
 14 15  1  0
 14 16  1  0
 13 17  1  0
 17 18  1  0
 18 10  1  0
  1 19  1  0
  1 20  1  0
  3 21  1  0
  3 22  1  0
  3 23  1  0
  5 24  1  0
  6 25  1  0
  6 26  1  0
  6 27  1  0
  7 28  1  0
 10 29  1  0
 11 30  1  0
 11 31  1  0
 12 32  1  0
 12 33  1  0
 13 34  1  0
 14 35  1  0
 15 36  1  0
 15 37  1  0
 15 38  1  0
 16 39  1  0
 16 40  1  0
 16 41  1  0
 17 42  1  0
 17 43  1  0
 18 44  1  0
 18 45  1  0
M  CHG  1  16   1
M  END
>  <EmbedRMS>  (190) 
0.16480955270904202

$$$$

     RDKit          3D

 38 39  0  0  0  0  0  0  0  0999 V2000
   13.9842    7.0987    1.1853 C   0  0  0  0  0  0  0  0  0  0  0  0
   13.5812    8.3572    1.9537 C   0  0  0  0  0  0  0  0  0  0  0  0
   14.7119    8.8839    2.7302 N   0  0  0  0  0  4  0  0  0  0  0  0
   12.2765    8.3213    2.7737 C   0  0  0  0  0  0  0  0  0  0  0  0
   11.1597    7.3114    2.3967 C   0  0  0  0  0  0  0  0  0  0  0  0
    9.8012    7.9211    2.0835 C   0  0  0  0  0  0  0  0  0  0  0  0
    9.4166    8.9879    3.1066 C   0  0  0  0  0  0  0  0  0  0  0  0
    8.0125    9.4689    2.8599 C   0  0  0  0  0  0  0  0  0  0  0  0
    7.6232    9.6834    1.6795 O   0  0  0  0  0  0  0  0  0  0  0  0
    7.1436    9.7001    3.9777 N   0  0  0  0  0  0  0  0  0  0  0  0
    5.7812   10.1373    3.8965 C   0  0  0  0  0  0  0  0  0  0  0  0
    5.0590   10.4418    2.7529 C   0  0  0  0  0  0  0  0  0  0  0  0
    3.8212   10.8093    3.2325 C   0  0  0  0  0  0  0  0  0  0  0  0
    3.8279   10.7216    4.5742 N   0  0  0  0  0  0  0  0  0  0  0  0
    5.0150   10.3141    4.9886 N   0  0  0  0  0  0  0  0  0  0  0  0
   10.3981   10.1506    3.0073 C   0  0  0  0  0  0  0  0  0  0  0  0
   11.8327    9.7188    3.3047 C   0  0  0  0  0  0  0  0  0  0  0  0
   13.2929    6.9111    0.3372 H   0  0  0  0  0  0  0  0  0  0  0  0
   15.0005    7.2120    0.7515 H   0  0  0  0  0  0  0  0  0  0  0  0
   13.9876    6.2216    1.8665 H   0  0  0  0  0  0  0  0  0  0  0  0
   13.3808    9.1011    1.1485 H   0  0  0  0  0  0  0  0  0  0  0  0
   14.9955    8.1898    3.4595 H   0  0  0  0  0  0  0  0  0  0  0  0
   14.4928    9.7899    3.1975 H   0  0  0  0  0  0  0  0  0  0  0  0
   15.5292    9.0536    2.0996 H   0  0  0  0  0  0  0  0  0  0  0  0
   12.6593    7.8397    3.7046 H   0  0  0  0  0  0  0  0  0  0  0  0
   11.4436    6.6805    1.5344 H   0  0  0  0  0  0  0  0  0  0  0  0
   11.0047    6.5972    3.2389 H   0  0  0  0  0  0  0  0  0  0  0  0
    9.8330    8.3602    1.0608 H   0  0  0  0  0  0  0  0  0  0  0  0
    9.0379    7.1111    2.0779 H   0  0  0  0  0  0  0  0  0  0  0  0
    9.4755    8.5442    4.1262 H   0  0  0  0  0  0  0  0  0  0  0  0
    7.5254    9.5361    4.9365 H   0  0  0  0  0  0  0  0  0  0  0  0
    5.3557   10.4142    1.7158 H   0  0  0  0  0  0  0  0  0  0  0  0
    2.9703   11.1209    2.6412 H   0  0  0  0  0  0  0  0  0  0  0  0
    3.0273   10.9388    5.2077 H   0  0  0  0  0  0  0  0  0  0  0  0
   10.1052   10.9525    3.7212 H   0  0  0  0  0  0  0  0  0  0  0  0
   10.3568   10.5867    1.9833 H   0  0  0  0  0  0  0  0  0  0  0  0
   12.4776   10.5259    2.8988 H   0  0  0  0  0  0  0  0  0  0  0  0
   11.9660    9.7492    4.4105 H   0  0  0  0  0  0  0  0  0  0  0  0
  1  2  1  0
  2  3  1  0
  2  4  1  0
  4  5  1  0
  5  6  1  0
  6  7  1  0
  7  8  1  0
  8  9  2  0
  8 10  1  0
 10 11  1  0
 11 12  1  0
 12 13  2  0
 13 14  1  0
 14 15  1  0
  7 16  1  0
 16 17  1  0
 17  4  1  0
 15 11  2  0
  1 18  1  0
  1 19  1  0
  1 20  1  0
  2 21  1  0
  3 22  1  0
  3 23  1  0
  3 24  1  0
  4 25  1  0
  5 26  1  0
  5 27  1  0
  6 28  1  0
  6 29  1  0
  7 30  1  0
 10 31  1  0
 12 32  1  0
 13 33  1  0
 14 34  1  0
 16 35  1  0
 16 36  1  0
 17 37  1  0
 17 38  1  0
M  CHG  1   3   1
M  END
>  <EmbedRMS>  (191) 
0.20783527019262546

$$$$

     RDKit          3D

 42 43  0  0  0  0  0  0  0  0999 V2000
   14.0493    7.2191    1.1051 C   0  0  0  0  0  0  0  0  0  0  0  0
   13.6501    7.9553    2.3992 C   0  0  0  0  0  0  0  0  0  0  0  0
   14.6294    9.0154    2.6715 N   0  0  0  0  0  4  0  0  0  0  0  0
   12.2009    8.5118    2.2736 C   0  0  0  0  0  0  0  0  0  0  0  0
   11.1809    7.3656    2.4346 C   0  0  0  0  0  0  0  0  0  0  0  0
    9.7729    7.8717    2.1538 C   0  0  0  0  0  0  0  0  0  0  0  0
    9.4103    8.9943    3.1306 C   0  0  0  0  0  0  0  0  0  0  0  0
    8.0149    9.4815    2.8682 C   0  0  0  0  0  0  0  0  0  0  0  0
    7.6173    9.6904    1.6874 O   0  0  0  0  0  0  0  0  0  0  0  0
    7.1417    9.7099    3.9743 N   0  0  0  0  0  0  0  0  0  0  0  0
    5.7644   10.1427    3.7843 C   0  0  0  0  0  0  0  0  0  0  0  0
    5.0938   10.2820    5.1090 C   0  0  0  0  0  0  0  0  0  0  0  0
    4.4467    9.2806    5.8035 C   0  0  0  0  0  0  0  0  0  0  0  0
    4.0721    9.8422    7.0072 C   0  0  0  0  0  0  0  0  0  0  0  0
    4.4826   11.1235    7.0714 N   0  0  0  0  0  0  0  0  0  0  0  0
    5.1197   11.3965    5.9199 C   0  0  0  0  0  0  0  0  0  0  0  0
   10.4247   10.1487    3.0652 C   0  0  0  0  0  0  0  0  0  0  0  0
   11.8591    9.6373    3.2815 C   0  0  0  0  0  0  0  0  0  0  0  0
   15.0967    6.8575    1.1812 H   0  0  0  0  0  0  0  0  0  0  0  0
   13.4185    6.3264    0.9274 H   0  0  0  0  0  0  0  0  0  0  0  0
   13.9790    7.8971    0.2277 H   0  0  0  0  0  0  0  0  0  0  0  0
   13.6915    7.2247    3.2393 H   0  0  0  0  0  0  0  0  0  0  0  0
   14.4968    9.3929    3.6372 H   0  0  0  0  0  0  0  0  0  0  0  0
   15.6009    8.6295    2.6307 H   0  0  0  0  0  0  0  0  0  0  0  0
   14.5439    9.7861    1.9690 H   0  0  0  0  0  0  0  0  0  0  0  0
   12.0893    8.9474    1.2537 H   0  0  0  0  0  0  0  0  0  0  0  0
   11.3832    6.5446    1.7185 H   0  0  0  0  0  0  0  0  0  0  0  0
   11.2338    6.9395    3.4614 H   0  0  0  0  0  0  0  0  0  0  0  0
    9.0571    7.0285    2.2727 H   0  0  0  0  0  0  0  0  0  0  0  0
    9.7120    8.2305    1.1018 H   0  0  0  0  0  0  0  0  0  0  0  0
    9.4456    8.5669    4.1583 H   0  0  0  0  0  0  0  0  0  0  0  0
    7.5108    9.5642    4.9425 H   0  0  0  0  0  0  0  0  0  0  0  0
    5.7493   11.1193    3.2541 H   0  0  0  0  0  0  0  0  0  0  0  0
    5.2195    9.3950    3.1684 H   0  0  0  0  0  0  0  0  0  0  0  0
    4.2767    8.2625    5.4788 H   0  0  0  0  0  0  0  0  0  0  0  0
    3.5405    9.3350    7.8015 H   0  0  0  0  0  0  0  0  0  0  0  0
    4.3464   11.7776    7.8735 H   0  0  0  0  0  0  0  0  0  0  0  0
    5.5830   12.3469    5.6885 H   0  0  0  0  0  0  0  0  0  0  0  0
   10.3604   10.6532    2.0753 H   0  0  0  0  0  0  0  0  0  0  0  0
   10.1855   10.8998    3.8495 H   0  0  0  0  0  0  0  0  0  0  0  0
   11.9734    9.2648    4.3234 H   0  0  0  0  0  0  0  0  0  0  0  0
   12.5387   10.5043    3.1427 H   0  0  0  0  0  0  0  0  0  0  0  0
  1  2  1  0
  2  3  1  0
  2  4  1  0
  4  5  1  0
  5  6  1  0
  6  7  1  0
  7  8  1  0
  8  9  2  0
  8 10  1  0
 10 11  1  0
 11 12  1  0
 12 13  1  0
 13 14  2  0
 14 15  1  0
 15 16  1  0
  7 17  1  0
 17 18  1  0
 18  4  1  0
 16 12  2  0
  1 19  1  0
  1 20  1  0
  1 21  1  0
  2 22  1  0
  3 23  1  0
  3 24  1  0
  3 25  1  0
  4 26  1  0
  5 27  1  0
  5 28  1  0
  6 29  1  0
  6 30  1  0
  7 31  1  0
 10 32  1  0
 11 33  1  0
 11 34  1  0
 13 35  1  0
 14 36  1  0
 15 37  1  0
 16 38  1  0
 17 39  1  0
 17 40  1  0
 18 41  1  0
 18 42  1  0
M  CHG  1   3   1
M  END
>  <EmbedRMS>  (192) 
0.029013692847384143

$$$$

     RDKit          3D

 33 33  0  0  0  0  0  0  0  0999 V2000
   13.9226    7.3284    1.0386 C   0  0  0  0  0  0  0  0  0  0  0  0
   13.7073    7.9211    2.4414 C   0  0  0  0  0  0  0  0  0  0  0  0
   14.6422    9.0269    2.6701 N   0  0  0  0  0  4  0  0  0  0  0  0
   12.2292    8.2936    2.8217 C   0  0  0  0  0  0  0  0  0  0  0  0
   11.1737    7.4160    2.1505 C   0  0  0  0  0  0  0  0  0  0  0  0
    9.7351    7.7233    2.5384 C   0  0  0  0  0  0  0  0  0  0  0  0
    9.4491    9.2031    2.6331 C   0  0  0  0  0  0  0  0  0  0  0  0
    7.9866    9.5369    2.7246 C   0  0  0  0  0  0  0  0  0  0  0  0
    7.4177    9.6891    1.6158 O   0  0  0  0  0  0  0  0  0  0  0  0
    7.2156    9.6912    3.9309 N   0  0  0  0  0  0  0  0  0  0  0  0
    5.8387   10.1108    3.8329 C   0  0  0  0  0  0  0  0  0  0  0  0
    4.9088   10.3365    5.1562 S   0  0  0  0  0  0  0  0  0  0  0  0
   10.4241   10.0508    3.4188 C   0  0  0  0  0  0  0  0  0  0  0  0
   11.8785    9.7842    2.9978 C   0  0  0  0  0  0  0  0  0  0  0  0
   14.9996    7.1183    0.8657 H   0  0  0  0  0  0  0  0  0  0  0  0
   13.5730    8.0450    0.2655 H   0  0  0  0  0  0  0  0  0  0  0  0
   13.3779    6.3679    0.9249 H   0  0  0  0  0  0  0  0  0  0  0  0
   14.0111    7.0970    3.1300 H   0  0  0  0  0  0  0  0  0  0  0  0
   15.6230    8.7092    2.4919 H   0  0  0  0  0  0  0  0  0  0  0  0
   14.4327    9.8277    2.0311 H   0  0  0  0  0  0  0  0  0  0  0  0
   14.5984    9.3366    3.6676 H   0  0  0  0  0  0  0  0  0  0  0  0
   12.1628    7.9501    3.8814 H   0  0  0  0  0  0  0  0  0  0  0  0
   11.3806    6.3427    2.3582 H   0  0  0  0  0  0  0  0  0  0  0  0
   11.2456    7.5650    1.0515 H   0  0  0  0  0  0  0  0  0  0  0  0
    9.0499    7.2406    1.8056 H   0  0  0  0  0  0  0  0  0  0  0  0
    9.5318    7.2690    3.5327 H   0  0  0  0  0  0  0  0  0  0  0  0
    9.7020    9.5358    1.5954 H   0  0  0  0  0  0  0  0  0  0  0  0
    7.6600    9.5302    4.8623 H   0  0  0  0  0  0  0  0  0  0  0  0
    5.3847   10.2936    2.8676 H   0  0  0  0  0  0  0  0  0  0  0  0
   10.3104    9.8096    4.4980 H   0  0  0  0  0  0  0  0  0  0  0  0
   10.1919   11.1305    3.2845 H   0  0  0  0  0  0  0  0  0  0  0  0
   12.0557   10.2954    2.0267 H   0  0  0  0  0  0  0  0  0  0  0  0
   12.5386   10.2610    3.7529 H   0  0  0  0  0  0  0  0  0  0  0  0
  1  2  1  0
  2  3  1  0
  2  4  1  0
  4  5  1  0
  5  6  1  0
  6  7  1  0
  7  8  1  0
  8  9  2  0
  8 10  1  0
 10 11  1  0
 11 12  2  0
  7 13  1  0
 13 14  1  0
 14  4  1  0
  1 15  1  0
  1 16  1  0
  1 17  1  0
  2 18  1  0
  3 19  1  0
  3 20  1  0
  3 21  1  0
  4 22  1  0
  5 23  1  0
  5 24  1  0
  6 25  1  0
  6 26  1  0
  7 27  1  0
 10 28  1  0
 11 29  1  0
 13 30  1  0
 13 31  1  0
 14 32  1  0
 14 33  1  0
M  CHG  1   3   1
M  END
>  <EmbedRMS>  (193) 
0.2961184258862318

$$$$

     RDKit          3D

 43 44  0  0  0  0  0  0  0  0999 V2000
    5.9315    4.6515    5.9669 C   0  0  0  0  0  0  0  0  0  0  0  0
    6.9031    5.7828    5.9173 C   0  0  0  0  0  0  0  0  0  0  0  0
    6.5099    7.1032    5.6059 C   0  0  0  0  0  0  0  0  0  0  0  0
    7.5714    7.9973    5.6335 C   0  0  0  0  0  0  0  0  0  0  0  0
    7.5353    9.4584    5.3456 C   0  0  0  0  0  0  0  0  0  0  0  0
    7.1668    9.6965    3.9552 N   0  0  0  0  0  0  0  0  0  0  0  0
    7.9749    9.5268    2.7698 C   0  0  0  0  0  0  0  0  0  0  0  0
    7.4112    9.6849    1.6588 O   0  0  0  0  0  0  0  0  0  0  0  0
    9.4442    9.2012    2.6737 C   0  0  0  0  0  0  0  0  0  0  0  0
    9.7429    7.7295    2.4992 C   0  0  0  0  0  0  0  0  0  0  0  0
   11.1860    7.4469    2.1144 C   0  0  0  0  0  0  0  0  0  0  0  0
   12.2652    8.3302    2.7568 C   0  0  0  0  0  0  0  0  0  0  0  0
   13.6085    8.3217    1.9872 C   0  0  0  0  0  0  0  0  0  0  0  0
   14.0177    7.0459    1.2536 C   0  0  0  0  0  0  0  0  0  0  0  0
   14.7080    8.8883    2.7710 N   0  0  0  0  0  4  0  0  0  0  0  0
   11.8556    9.7858    3.0884 C   0  0  0  0  0  0  0  0  0  0  0  0
   10.4098   10.0004    3.5064 C   0  0  0  0  0  0  0  0  0  0  0  0
    8.9050    7.1042    6.0657 S   0  0  0  0  0  0  0  0  0  0  0  0
    8.2191    5.5989    6.2053 N   0  0  0  0  0  0  0  0  0  0  0  0
    5.2850    4.6681    5.0643 H   0  0  0  0  0  0  0  0  0  0  0  0
    6.4701    3.6809    6.0015 H   0  0  0  0  0  0  0  0  0  0  0  0
    5.2979    4.7465    6.8732 H   0  0  0  0  0  0  0  0  0  0  0  0
    5.4940    7.3881    5.3636 H   0  0  0  0  0  0  0  0  0  0  0  0
    6.7655    9.9129    6.0060 H   0  0  0  0  0  0  0  0  0  0  0  0
    8.4874    9.9558    5.5990 H   0  0  0  0  0  0  0  0  0  0  0  0
    6.1804   10.0061    3.7974 H   0  0  0  0  0  0  0  0  0  0  0  0
    9.7022    9.5932    1.6584 H   0  0  0  0  0  0  0  0  0  0  0  0
    9.5301    7.2058    3.4466 H   0  0  0  0  0  0  0  0  0  0  0  0
    9.0683    7.2885    1.7310 H   0  0  0  0  0  0  0  0  0  0  0  0
   11.4108    6.3732    2.2999 H   0  0  0  0  0  0  0  0  0  0  0  0
   11.2331    7.6040    1.0146 H   0  0  0  0  0  0  0  0  0  0  0  0
   12.4612    7.8500    3.7421 H   0  0  0  0  0  0  0  0  0  0  0  0
   13.4519    9.0242    1.1355 H   0  0  0  0  0  0  0  0  0  0  0  0
   14.1156    6.2132    1.9815 H   0  0  0  0  0  0  0  0  0  0  0  0
   14.9929    7.1832    0.7397 H   0  0  0  0  0  0  0  0  0  0  0  0
   13.2780    6.7618    0.4772 H   0  0  0  0  0  0  0  0  0  0  0  0
   14.8226    8.3557    3.6636 H   0  0  0  0  0  0  0  0  0  0  0  0
   14.5393    9.8970    2.9833 H   0  0  0  0  0  0  0  0  0  0  0  0
   15.6052    8.8382    2.2358 H   0  0  0  0  0  0  0  0  0  0  0  0
   12.5028   10.1855    3.8992 H   0  0  0  0  0  0  0  0  0  0  0  0
   12.0242   10.4266    2.1949 H   0  0  0  0  0  0  0  0  0  0  0  0
   10.3386    9.6558    4.5555 H   0  0  0  0  0  0  0  0  0  0  0  0
   10.1581   11.0838    3.4722 H   0  0  0  0  0  0  0  0  0  0  0  0
  1  2  1  0
  2  3  1  0
  3  4  2  0
  4  5  1  0
  5  6  1  0
  6  7  1  0
  7  8  2  0
  7  9  1  0
  9 10  1  0
 10 11  1  0
 11 12  1  0
 12 13  1  0
 13 14  1  0
 13 15  1  0
 12 16  1  0
 16 17  1  0
  4 18  1  0
 18 19  1  0
 19  2  2  0
 17  9  1  0
  1 20  1  0
  1 21  1  0
  1 22  1  0
  3 23  1  0
  5 24  1  0
  5 25  1  0
  6 26  1  0
  9 27  1  0
 10 28  1  0
 10 29  1  0
 11 30  1  0
 11 31  1  0
 12 32  1  0
 13 33  1  0
 14 34  1  0
 14 35  1  0
 14 36  1  0
 15 37  1  0
 15 38  1  0
 15 39  1  0
 16 40  1  0
 16 41  1  0
 17 42  1  0
 17 43  1  0
M  CHG  1  15   1
M  END
>  <EmbedRMS>  (194) 
0.28167996706824416

$$$$

     RDKit          3D

 39 40  0  0  0  0  0  0  0  0999 V2000
   14.0110    7.0511    1.2526 C   0  0  0  0  0  0  0  0  0  0  0  0
   13.6007    8.3248    1.9901 C   0  0  0  0  0  0  0  0  0  0  0  0
   14.7033    8.8921    2.7690 N   0  0  0  0  0  4  0  0  0  0  0  0
   12.2625    8.3270    2.7691 C   0  0  0  0  0  0  0  0  0  0  0  0
   11.1802    7.4398    2.1370 C   0  0  0  0  0  0  0  0  0  0  0  0
    9.7464    7.7250    2.5506 C   0  0  0  0  0  0  0  0  0  0  0  0
    9.4528    9.2006    2.6508 C   0  0  0  0  0  0  0  0  0  0  0  0
    7.9907    9.5272    2.7197 C   0  0  0  0  0  0  0  0  0  0  0  0
    7.4511    9.6605    1.5982 O   0  0  0  0  0  0  0  0  0  0  0  0
    7.2032    9.6917    3.9188 N   0  0  0  0  0  0  0  0  0  0  0  0
    5.8190   10.1244    3.8864 C   0  0  0  0  0  0  0  0  0  0  0  0
    5.0492   10.4501    2.7707 C   0  0  0  0  0  0  0  0  0  0  0  0
    3.8118   10.8137    3.2504 C   0  0  0  0  0  0  0  0  0  0  0  0
    3.7917   10.7296    4.5924 N   0  0  0  0  0  0  0  0  0  0  0  0
    5.0092   10.3116    4.9903 C   0  0  0  0  0  0  0  0  0  0  0  0
   10.3879   10.0193    3.4937 C   0  0  0  0  0  0  0  0  0  0  0  0
   11.8511    9.7804    3.1265 C   0  0  0  0  0  0  0  0  0  0  0  0
   13.2659    6.7648    0.4822 H   0  0  0  0  0  0  0  0  0  0  0  0
   14.9817    7.1940    0.7316 H   0  0  0  0  0  0  0  0  0  0  0  0
   14.1182    6.2183    1.9789 H   0  0  0  0  0  0  0  0  0  0  0  0
   13.4353    9.0292    1.1418 H   0  0  0  0  0  0  0  0  0  0  0  0
   14.5218    9.8930    3.0061 H   0  0  0  0  0  0  0  0  0  0  0  0
   15.5925    8.8665    2.2188 H   0  0  0  0  0  0  0  0  0  0  0  0
   14.8389    8.3426    3.6484 H   0  0  0  0  0  0  0  0  0  0  0  0
   12.4711    7.8390    3.7480 H   0  0  0  0  0  0  0  0  0  0  0  0
   11.2117    7.5939    1.0361 H   0  0  0  0  0  0  0  0  0  0  0  0
   11.4077    6.3669    2.3236 H   0  0  0  0  0  0  0  0  0  0  0  0
    9.0547    7.2379    1.8268 H   0  0  0  0  0  0  0  0  0  0  0  0
    9.5649    7.2656    3.5467 H   0  0  0  0  0  0  0  0  0  0  0  0
    9.7356    9.5600    1.6294 H   0  0  0  0  0  0  0  0  0  0  0  0
    7.6552    9.5149    4.8435 H   0  0  0  0  0  0  0  0  0  0  0  0
    5.3065   10.4537    1.7245 H   0  0  0  0  0  0  0  0  0  0  0  0
    2.9693   11.1301    2.6494 H   0  0  0  0  0  0  0  0  0  0  0  0
    2.9817   10.9503    5.2127 H   0  0  0  0  0  0  0  0  0  0  0  0
    5.2923   10.1545    6.0229 H   0  0  0  0  0  0  0  0  0  0  0  0
   10.1492   11.1022    3.3982 H   0  0  0  0  0  0  0  0  0  0  0  0
   10.2369    9.7340    4.5575 H   0  0  0  0  0  0  0  0  0  0  0  0
   12.4748   10.1510    3.9689 H   0  0  0  0  0  0  0  0  0  0  0  0
   12.0642   10.4412    2.2573 H   0  0  0  0  0  0  0  0  0  0  0  0
  1  2  1  0
  2  3  1  0
  2  4  1  0
  4  5  1  0
  5  6  1  0
  6  7  1  0
  7  8  1  0
  8  9  2  0
  8 10  1  0
 10 11  1  0
 11 12  1  0
 12 13  2  0
 13 14  1  0
 14 15  1  0
  7 16  1  0
 16 17  1  0
 17  4  1  0
 15 11  2  0
  1 18  1  0
  1 19  1  0
  1 20  1  0
  2 21  1  0
  3 22  1  0
  3 23  1  0
  3 24  1  0
  4 25  1  0
  5 26  1  0
  5 27  1  0
  6 28  1  0
  6 29  1  0
  7 30  1  0
 10 31  1  0
 12 32  1  0
 13 33  1  0
 14 34  1  0
 15 35  1  0
 16 36  1  0
 16 37  1  0
 17 38  1  0
 17 39  1  0
M  CHG  1   3   1
M  END
>  <EmbedRMS>  (195) 
0.3005329260886256

$$$$

     RDKit          3D

 43 44  0  0  0  0  0  0  0  0999 V2000
   13.9837    7.0986    1.1859 C   0  0  0  0  0  0  0  0  0  0  0  0
   13.5804    8.3573    1.9539 C   0  0  0  0  0  0  0  0  0  0  0  0
   14.7108    8.8841    2.7308 N   0  0  0  0  0  4  0  0  0  0  0  0
   12.2749    8.3221    2.7731 C   0  0  0  0  0  0  0  0  0  0  0  0
   11.1577    7.3129    2.3951 C   0  0  0  0  0  0  0  0  0  0  0  0
    9.7980    7.9227    2.0843 C   0  0  0  0  0  0  0  0  0  0  0  0
    9.4139    8.9890    3.1083 C   0  0  0  0  0  0  0  0  0  0  0  0
    8.0083    9.4696    2.8651 C   0  0  0  0  0  0  0  0  0  0  0  0
    7.6067    9.6883    1.6876 O   0  0  0  0  0  0  0  0  0  0  0  0
    7.1354    9.6943    3.9789 N   0  0  0  0  0  0  0  0  0  0  0  0
    5.7744   10.1917    3.8190 C   0  0  0  0  0  0  0  0  0  0  0  0
    5.7970   11.6564    3.5222 C   0  0  0  0  0  0  0  0  0  0  0  0
    5.6296   12.2679    2.2979 C   0  0  0  0  0  0  0  0  0  0  0  0
    5.7725   13.5969    2.4662 N   0  0  0  0  0  0  0  0  0  0  0  0
    6.0348   13.8671    3.7364 N   0  0  0  0  0  0  0  0  0  0  0  0
    6.0578   12.6924    4.3923 C   0  0  0  0  0  0  0  0  0  0  0  0
    6.3274   12.5600    5.7859 N   0  0  0  0  0  0  0  0  0  0  0  0
   10.3956   10.1516    3.0082 C   0  0  0  0  0  0  0  0  0  0  0  0
   11.8311    9.7199    3.3037 C   0  0  0  0  0  0  0  0  0  0  0  0
   15.0004    7.2115    0.7529 H   0  0  0  0  0  0  0  0  0  0  0  0
   13.9862    6.2216    1.8672 H   0  0  0  0  0  0  0  0  0  0  0  0
   13.2930    6.9111    0.3373 H   0  0  0  0  0  0  0  0  0  0  0  0
   13.3807    9.1010    1.1484 H   0  0  0  0  0  0  0  0  0  0  0  0
   15.5286    9.0534    2.1006 H   0  0  0  0  0  0  0  0  0  0  0  0
   14.9937    8.1904    3.4608 H   0  0  0  0  0  0  0  0  0  0  0  0
   14.4914    9.7904    3.1974 H   0  0  0  0  0  0  0  0  0  0  0  0
   12.6567    7.8404    3.7044 H   0  0  0  0  0  0  0  0  0  0  0  0
   11.4410    6.6844    1.5309 H   0  0  0  0  0  0  0  0  0  0  0  0
   11.0039    6.5966    3.2358 H   0  0  0  0  0  0  0  0  0  0  0  0
    9.0350    7.1125    2.0794 H   0  0  0  0  0  0  0  0  0  0  0  0
    9.8276    8.3626    1.0619 H   0  0  0  0  0  0  0  0  0  0  0  0
    9.4734    8.5460    4.1281 H   0  0  0  0  0  0  0  0  0  0  0  0
    7.4785    9.4974    4.9462 H   0  0  0  0  0  0  0  0  0  0  0  0
    5.2074   10.0253    4.7601 H   0  0  0  0  0  0  0  0  0  0  0  0
    5.2556    9.6348    3.0090 H   0  0  0  0  0  0  0  0  0  0  0  0
    5.4242   11.7836    1.3522 H   0  0  0  0  0  0  0  0  0  0  0  0
    5.6987   14.3197    1.7167 H   0  0  0  0  0  0  0  0  0  0  0  0
    6.5216   13.4016    6.3720 H   0  0  0  0  0  0  0  0  0  0  0  0
    6.5216   13.4016    6.3720 H   0  0  0  0  0  0  0  0  0  0  0  0
   10.1032   10.9533    3.7227 H   0  0  0  0  0  0  0  0  0  0  0  0
   10.3526   10.5883    1.9846 H   0  0  0  0  0  0  0  0  0  0  0  0
   12.4754   10.5266    2.8960 H   0  0  0  0  0  0  0  0  0  0  0  0
   11.9663    9.7514    4.4093 H   0  0  0  0  0  0  0  0  0  0  0  0
  1  2  1  0
  2  3  1  0
  2  4  1  0
  4  5  1  0
  5  6  1  0
  6  7  1  0
  7  8  1  0
  8  9  2  0
  8 10  1  0
 10 11  1  0
 11 12  1  0
 12 13  2  0
 13 14  1  0
 14 15  1  0
 15 16  2  0
 16 17  1  0
  7 18  1  0
 18 19  1  0
 19  4  1  0
 16 12  1  0
  1 20  1  0
  1 21  1  0
  1 22  1  0
  2 23  1  0
  3 24  1  0
  3 25  1  0
  3 26  1  0
  4 27  1  0
  5 28  1  0
  5 29  1  0
  6 30  1  0
  6 31  1  0
  7 32  1  0
 10 33  1  0
 11 34  1  0
 11 35  1  0
 13 36  1  0
 14 37  1  0
 17 38  1  0
 17 39  1  0
 18 40  1  0
 18 41  1  0
 19 42  1  0
 19 43  1  0
M  CHG  1   3   1
M  END
>  <EmbedRMS>  (196) 
0.19642125549947853

$$$$

     RDKit          3D

 41 42  0  0  0  0  0  0  0  0999 V2000
    6.4175   12.2575    2.1892 C   0  0  0  0  0  0  0  0  0  0  0  0
    5.5732   11.5014    3.1639 C   0  0  0  0  0  0  0  0  0  0  0  0
    4.2995   11.8454    3.5664 C   0  0  0  0  0  0  0  0  0  0  0  0
    3.9146   10.9976    4.5372 N   0  0  0  0  0  0  0  0  0  0  0  0
    4.8777   10.1227    4.7785 N   0  0  0  0  0  0  0  0  0  0  0  0
    5.8928   10.3929    3.9367 C   0  0  0  0  0  0  0  0  0  0  0  0
    7.1447    9.6986    3.9971 N   0  0  0  0  0  0  0  0  0  0  0  0
    8.0110    9.4734    2.8795 C   0  0  0  0  0  0  0  0  0  0  0  0
    7.5992    9.6623    1.7003 O   0  0  0  0  0  0  0  0  0  0  0  0
    9.4200    8.9875    3.1193 C   0  0  0  0  0  0  0  0  0  0  0  0
    9.7817    7.9373    2.0749 C   0  0  0  0  0  0  0  0  0  0  0  0
   11.1452    7.3168    2.3190 C   0  0  0  0  0  0  0  0  0  0  0  0
   12.2318    8.2992    2.7952 C   0  0  0  0  0  0  0  0  0  0  0  0
   13.7092    7.9149    2.4296 C   0  0  0  0  0  0  0  0  0  0  0  0
   13.9319    7.3321    1.0258 C   0  0  0  0  0  0  0  0  0  0  0  0
   14.6478    9.0162    2.6728 N   0  0  0  0  0  4  0  0  0  0  0  0
   11.8851    9.7894    2.9973 C   0  0  0  0  0  0  0  0  0  0  0  0
   10.3931   10.1700    3.0593 C   0  0  0  0  0  0  0  0  0  0  0  0
    6.2967   11.8271    1.1740 H   0  0  0  0  0  0  0  0  0  0  0  0
    6.0996   13.3210    2.1597 H   0  0  0  0  0  0  0  0  0  0  0  0
    7.4842   12.2274    2.4941 H   0  0  0  0  0  0  0  0  0  0  0  0
    3.7078   12.6764    3.2049 H   0  0  0  0  0  0  0  0  0  0  0  0
    3.0048   11.0238    5.0480 H   0  0  0  0  0  0  0  0  0  0  0  0
    7.3935    9.2514    4.9079 H   0  0  0  0  0  0  0  0  0  0  0  0
    9.4850    8.5186    4.1266 H   0  0  0  0  0  0  0  0  0  0  0  0
    9.0167    7.1287    2.0691 H   0  0  0  0  0  0  0  0  0  0  0  0
    9.7835    8.4048    1.0638 H   0  0  0  0  0  0  0  0  0  0  0  0
   11.0313    6.4809    3.0482 H   0  0  0  0  0  0  0  0  0  0  0  0
   11.4283    6.8369    1.3637 H   0  0  0  0  0  0  0  0  0  0  0  0
   12.2351    8.0280    3.8794 H   0  0  0  0  0  0  0  0  0  0  0  0
   14.0061    7.0850    3.1156 H   0  0  0  0  0  0  0  0  0  0  0  0
   13.4426    7.9754    0.2640 H   0  0  0  0  0  0  0  0  0  0  0  0
   13.5344    6.2979    0.9559 H   0  0  0  0  0  0  0  0  0  0  0  0
   15.0164    7.2729    0.7927 H   0  0  0  0  0  0  0  0  0  0  0  0
   14.5390    9.3817    3.6461 H   0  0  0  0  0  0  0  0  0  0  0  0
   15.6309    8.6691    2.5852 H   0  0  0  0  0  0  0  0  0  0  0  0
   14.5096    9.7855    1.9786 H   0  0  0  0  0  0  0  0  0  0  0  0
   12.3180   10.3498    2.1416 H   0  0  0  0  0  0  0  0  0  0  0  0
   12.3878   10.1895    3.9077 H   0  0  0  0  0  0  0  0  0  0  0  0
   10.1540   10.7871    2.1627 H   0  0  0  0  0  0  0  0  0  0  0  0
   10.2173   10.8220    3.9437 H   0  0  0  0  0  0  0  0  0  0  0  0
  1  2  1  0
  2  3  2  0
  3  4  1  0
  4  5  1  0
  5  6  2  0
  6  7  1  0
  7  8  1  0
  8  9  2  0
  8 10  1  0
 10 11  1  0
 11 12  1  0
 12 13  1  0
 13 14  1  0
 14 15  1  0
 14 16  1  0
 13 17  1  0
 17 18  1  0
  6  2  1  0
 18 10  1  0
  1 19  1  0
  1 20  1  0
  1 21  1  0
  3 22  1  0
  4 23  1  0
  7 24  1  0
 10 25  1  0
 11 26  1  0
 11 27  1  0
 12 28  1  0
 12 29  1  0
 13 30  1  0
 14 31  1  0
 15 32  1  0
 15 33  1  0
 15 34  1  0
 16 35  1  0
 16 36  1  0
 16 37  1  0
 17 38  1  0
 17 39  1  0
 18 40  1  0
 18 41  1  0
M  CHG  1  16   1
M  END
>  <EmbedRMS>  (197) 
0.16376755241934868

$$$$

     RDKit          3D

 40 41  0  0  0  0  0  0  0  0999 V2000
   13.9332    7.3332    1.0251 C   0  0  0  0  0  0  0  0  0  0  0  0
   13.7125    7.9146    2.4297 C   0  0  0  0  0  0  0  0  0  0  0  0
   14.6504    9.0165    2.6726 N   0  0  0  0  0  4  0  0  0  0  0  0
   12.2364    8.2979    2.7979 C   0  0  0  0  0  0  0  0  0  0  0  0
   11.1515    7.3120    2.3262 C   0  0  0  0  0  0  0  0  0  0  0  0
    9.7912    7.9324    2.0765 C   0  0  0  0  0  0  0  0  0  0  0  0
    9.4261    8.9806    3.1220 C   0  0  0  0  0  0  0  0  0  0  0  0
    8.0225    9.4639    2.8667 C   0  0  0  0  0  0  0  0  0  0  0  0
    7.6546    9.6768    1.6802 O   0  0  0  0  0  0  0  0  0  0  0  0
    7.1435    9.7011    3.9767 N   0  0  0  0  0  0  0  0  0  0  0  0
    5.7719   10.1423    3.9218 C   0  0  0  0  0  0  0  0  0  0  0  0
    5.0682   10.2866    5.1272 C   0  0  0  0  0  0  0  0  0  0  0  0
    3.7425   10.7162    5.1245 C   0  0  0  0  0  0  0  0  0  0  0  0
    3.1199   11.0021    3.9115 C   0  0  0  0  0  0  0  0  0  0  0  0
    3.8030   10.8612    2.7487 N   0  0  0  0  0  0  0  0  0  0  0  0
    5.0935   10.4449    2.7201 C   0  0  0  0  0  0  0  0  0  0  0  0
   10.3969   10.1658    3.0679 C   0  0  0  0  0  0  0  0  0  0  0  0
   11.8884    9.7884    2.9926 C   0  0  0  0  0  0  0  0  0  0  0  0
   13.4390    7.9746    0.2649 H   0  0  0  0  0  0  0  0  0  0  0  0
   13.5402    6.2972    0.9560 H   0  0  0  0  0  0  0  0  0  0  0  0
   15.0172    7.2785    0.7884 H   0  0  0  0  0  0  0  0  0  0  0  0
   14.0108    7.0845    3.1148 H   0  0  0  0  0  0  0  0  0  0  0  0
   14.5446    9.3791    3.6472 H   0  0  0  0  0  0  0  0  0  0  0  0
   14.5091    9.7874    1.9809 H   0  0  0  0  0  0  0  0  0  0  0  0
   15.6338    8.6709    2.5809 H   0  0  0  0  0  0  0  0  0  0  0  0
   12.2424    8.0318    3.8833 H   0  0  0  0  0  0  0  0  0  0  0  0
   11.4353    6.8245    1.3751 H   0  0  0  0  0  0  0  0  0  0  0  0
   11.0353    6.4818    3.0616 H   0  0  0  0  0  0  0  0  0  0  0  0
    9.8005    8.4008    1.0657 H   0  0  0  0  0  0  0  0  0  0  0  0
    9.0262    7.1237    2.0652 H   0  0  0  0  0  0  0  0  0  0  0  0
    9.4833    8.5087    4.1284 H   0  0  0  0  0  0  0  0  0  0  0  0
    7.5457    9.5319    4.9268 H   0  0  0  0  0  0  0  0  0  0  0  0
    5.5478   10.0665    6.0729 H   0  0  0  0  0  0  0  0  0  0  0  0
    3.2017   10.8271    6.0555 H   0  0  0  0  0  0  0  0  0  0  0  0
    2.0913   11.3366    3.8945 H   0  0  0  0  0  0  0  0  0  0  0  0
    5.5409   10.3704    1.7502 H   0  0  0  0  0  0  0  0  0  0  0  0
   10.1534   10.7936    2.1801 H   0  0  0  0  0  0  0  0  0  0  0  0
   10.2256   10.8070    3.9610 H   0  0  0  0  0  0  0  0  0  0  0  0
   12.3112   10.3420    2.1274 H   0  0  0  0  0  0  0  0  0  0  0  0
   12.4001   10.1967    3.8942 H   0  0  0  0  0  0  0  0  0  0  0  0
  1  2  1  0
  2  3  1  0
  2  4  1  0
  4  5  1  0
  5  6  1  0
  6  7  1  0
  7  8  1  0
  8  9  2  0
  8 10  1  0
 10 11  1  0
 11 12  2  0
 12 13  1  0
 13 14  2  0
 14 15  1  0
 15 16  2  0
  7 17  1  0
 17 18  1  0
 18  4  1  0
 16 11  1  0
  1 19  1  0
  1 20  1  0
  1 21  1  0
  2 22  1  0
  3 23  1  0
  3 24  1  0
  3 25  1  0
  4 26  1  0
  5 27  1  0
  5 28  1  0
  6 29  1  0
  6 30  1  0
  7 31  1  0
 10 32  1  0
 12 33  1  0
 13 34  1  0
 14 35  1  0
 16 36  1  0
 17 37  1  0
 17 38  1  0
 18 39  1  0
 18 40  1  0
M  CHG  1   3   1
M  END
>  <EmbedRMS>  (198) 
0.16496192233382964

$$$$

     RDKit          3D

 44 45  0  0  0  0  0  0  0  0999 V2000
   14.0107    7.0507    1.2528 C   0  0  0  0  0  0  0  0  0  0  0  0
   13.6001    8.3244    1.9899 C   0  0  0  0  0  0  0  0  0  0  0  0
   14.7023    8.8917    2.7695 N   0  0  0  0  0  4  0  0  0  0  0  0
   12.2609    8.3273    2.7676 C   0  0  0  0  0  0  0  0  0  0  0  0
   11.1786    7.4404    2.1351 C   0  0  0  0  0  0  0  0  0  0  0  0
    9.7437    7.7263    2.5465 C   0  0  0  0  0  0  0  0  0  0  0  0
    9.4484    9.2018    2.6425 C   0  0  0  0  0  0  0  0  0  0  0  0
    7.9862    9.5278    2.7260 C   0  0  0  0  0  0  0  0  0  0  0  0
    7.4191    9.6844    1.6169 O   0  0  0  0  0  0  0  0  0  0  0  0
    7.2141    9.6851    3.9298 N   0  0  0  0  0  0  0  0  0  0  0  0
    5.8145   10.1221    3.8055 C   0  0  0  0  0  0  0  0  0  0  0  0
    5.1470   10.2613    5.1399 C   0  0  0  0  0  0  0  0  0  0  0  0
    4.4698    9.1706    5.7071 C   0  0  0  0  0  0  0  0  0  0  0  0
    3.8614    9.2968    6.9587 C   0  0  0  0  0  0  0  0  0  0  0  0
    3.9277   10.5097    7.6502 C   0  0  0  0  0  0  0  0  0  0  0  0
    4.5995   11.5997    7.0894 C   0  0  0  0  0  0  0  0  0  0  0  0
    5.2092   11.4776    5.8378 C   0  0  0  0  0  0  0  0  0  0  0  0
   10.3852   10.0199    3.4864 C   0  0  0  0  0  0  0  0  0  0  0  0
   11.8489    9.7808    3.1224 C   0  0  0  0  0  0  0  0  0  0  0  0
   13.2661    6.7643    0.4821 H   0  0  0  0  0  0  0  0  0  0  0  0
   14.1173    6.2180    1.9794 H   0  0  0  0  0  0  0  0  0  0  0  0
   14.9818    7.1933    0.7325 H   0  0  0  0  0  0  0  0  0  0  0  0
   13.4358    9.0287    1.1412 H   0  0  0  0  0  0  0  0  0  0  0  0
   14.8375    8.3420    3.6488 H   0  0  0  0  0  0  0  0  0  0  0  0
   15.5918    8.8665    2.2197 H   0  0  0  0  0  0  0  0  0  0  0  0
   14.5204    9.8925    3.0070 H   0  0  0  0  0  0  0  0  0  0  0  0
   12.4682    7.8402    3.7472 H   0  0  0  0  0  0  0  0  0  0  0  0
   11.2114    7.5937    1.0342 H   0  0  0  0  0  0  0  0  0  0  0  0
   11.4054    6.3675    2.3226 H   0  0  0  0  0  0  0  0  0  0  0  0
    9.5615    7.2690    3.5435 H   0  0  0  0  0  0  0  0  0  0  0  0
    9.0528    7.2375    1.8233 H   0  0  0  0  0  0  0  0  0  0  0  0
    9.7212    9.5611    1.6190 H   0  0  0  0  0  0  0  0  0  0  0  0
    7.6562    9.5238    4.8629 H   0  0  0  0  0  0  0  0  0  0  0  0
    5.7793   11.0969    3.2708 H   0  0  0  0  0  0  0  0  0  0  0  0
    5.2537    9.3880    3.1857 H   0  0  0  0  0  0  0  0  0  0  0  0
    4.4183    8.2233    5.1846 H   0  0  0  0  0  0  0  0  0  0  0  0
    3.3412    8.4537    7.3946 H   0  0  0  0  0  0  0  0  0  0  0  0
    3.4574   10.6053    8.6204 H   0  0  0  0  0  0  0  0  0  0  0  0
    4.6501   12.5380    7.6265 H   0  0  0  0  0  0  0  0  0  0  0  0
    5.7334   12.3267    5.4168 H   0  0  0  0  0  0  0  0  0  0  0  0
   10.1475   11.1030    3.3905 H   0  0  0  0  0  0  0  0  0  0  0  0
   10.2328    9.7355    4.5504 H   0  0  0  0  0  0  0  0  0  0  0  0
   12.4712   10.1524    3.9655 H   0  0  0  0  0  0  0  0  0  0  0  0
   12.0633   10.4405    2.2527 H   0  0  0  0  0  0  0  0  0  0  0  0
  1  2  1  0
  2  3  1  0
  2  4  1  0
  4  5  1  0
  5  6  1  0
  6  7  1  0
  7  8  1  0
  8  9  2  0
  8 10  1  0
 10 11  1  0
 11 12  1  0
 12 13  2  0
 13 14  1  0
 14 15  2  0
 15 16  1  0
 16 17  2  0
  7 18  1  0
 18 19  1  0
 19  4  1  0
 17 12  1  0
  1 20  1  0
  1 21  1  0
  1 22  1  0
  2 23  1  0
  3 24  1  0
  3 25  1  0
  3 26  1  0
  4 27  1  0
  5 28  1  0
  5 29  1  0
  6 30  1  0
  6 31  1  0
  7 32  1  0
 10 33  1  0
 11 34  1  0
 11 35  1  0
 13 36  1  0
 14 37  1  0
 15 38  1  0
 16 39  1  0
 17 40  1  0
 18 41  1  0
 18 42  1  0
 19 43  1  0
 19 44  1  0
M  CHG  1   3   1
M  END
>  <EmbedRMS>  (199) 
0.2846631031672363

$$$$

     RDKit          3D

 40 41  0  0  0  0  0  0  0  0999 V2000
   14.0290    7.0399    1.2338 C   0  0  0  0  0  0  0  0  0  0  0  0
   13.6704    8.3365    1.9394 C   0  0  0  0  0  0  0  0  0  0  0  0
   14.6146    8.7684    2.9621 N   0  0  0  0  0  4  0  0  0  0  0  0
   12.1593    8.5893    2.2125 C   0  0  0  0  0  0  0  0  0  0  0  0
   11.2439    7.3757    2.4544 C   0  0  0  0  0  0  0  0  0  0  0  0
    9.7921    7.8212    2.2160 C   0  0  0  0  0  0  0  0  0  0  0  0
    9.4155    8.9809    3.1572 C   0  0  0  0  0  0  0  0  0  0  0  0
    8.0216    9.4614    2.8746 C   0  0  0  0  0  0  0  0  0  0  0  0
    7.6551    9.6697    1.6858 O   0  0  0  0  0  0  0  0  0  0  0  0
    7.1397    9.7023    3.9770 N   0  0  0  0  0  0  0  0  0  0  0  0
    5.7810   10.1375    3.8746 C   0  0  0  0  0  0  0  0  0  0  0  0
    4.9524   10.3361    4.9568 C   0  0  0  0  0  0  0  0  0  0  0  0
    3.7766   10.7495    4.3710 C   0  0  0  0  0  0  0  0  0  0  0  0
    2.5848   11.0894    5.0706 N   0  0  0  0  0  0  0  0  0  0  0  0
    3.8915   10.7962    3.0312 N   0  0  0  0  0  0  0  0  0  0  0  0
    5.1215   10.4200    2.7309 N   0  0  0  0  0  0  0  0  0  0  0  0
   10.4086   10.1569    3.0897 C   0  0  0  0  0  0  0  0  0  0  0  0
   11.8580    9.6804    3.2548 C   0  0  0  0  0  0  0  0  0  0  0  0
   15.0839    7.0609    0.8845 H   0  0  0  0  0  0  0  0  0  0  0  0
   13.3775    6.8823    0.3472 H   0  0  0  0  0  0  0  0  0  0  0  0
   13.9096    6.1868    1.9341 H   0  0  0  0  0  0  0  0  0  0  0  0
   13.8838    9.0586    1.1114 H   0  0  0  0  0  0  0  0  0  0  0  0
   14.5975    9.8057    3.0882 H   0  0  0  0  0  0  0  0  0  0  0  0
   15.5907    8.5021    2.6969 H   0  0  0  0  0  0  0  0  0  0  0  0
   14.3791    8.3016    3.8673 H   0  0  0  0  0  0  0  0  0  0  0  0
   11.8031    9.0076    1.2379 H   0  0  0  0  0  0  0  0  0  0  0  0
   11.4662    6.5551    1.7420 H   0  0  0  0  0  0  0  0  0  0  0  0
   11.3748    6.9860    3.4877 H   0  0  0  0  0  0  0  0  0  0  0  0
    9.1176    6.9580    2.4079 H   0  0  0  0  0  0  0  0  0  0  0  0
    9.6619    8.1184    1.1513 H   0  0  0  0  0  0  0  0  0  0  0  0
    9.4494    8.5767    4.1940 H   0  0  0  0  0  0  0  0  0  0  0  0
    7.5097    9.5475    4.9422 H   0  0  0  0  0  0  0  0  0  0  0  0
    5.1710   10.2023    6.0081 H   0  0  0  0  0  0  0  0  0  0  0  0
    1.7358   11.3946    4.5453 H   0  0  0  0  0  0  0  0  0  0  0  0
    2.5488   11.0363    6.1128 H   0  0  0  0  0  0  0  0  0  0  0  0
    5.4649   10.3729    1.7501 H   0  0  0  0  0  0  0  0  0  0  0  0
   10.3043   10.6847    2.1150 H   0  0  0  0  0  0  0  0  0  0  0  0
   10.1746   10.8869    3.8954 H   0  0  0  0  0  0  0  0  0  0  0  0
   12.5101   10.5642    3.0942 H   0  0  0  0  0  0  0  0  0  0  0  0
   12.0246    9.2949    4.2846 H   0  0  0  0  0  0  0  0  0  0  0  0
  1  2  1  0
  2  3  1  0
  2  4  1  0
  4  5  1  0
  5  6  1  0
  6  7  1  0
  7  8  1  0
  8  9  2  0
  8 10  1  0
 10 11  1  0
 11 12  2  0
 12 13  1  0
 13 14  1  0
 13 15  2  0
 15 16  1  0
  7 17  1  0
 17 18  1  0
 18  4  1  0
 16 11  1  0
  1 19  1  0
  1 20  1  0
  1 21  1  0
  2 22  1  0
  3 23  1  0
  3 24  1  0
  3 25  1  0
  4 26  1  0
  5 27  1  0
  5 28  1  0
  6 29  1  0
  6 30  1  0
  7 31  1  0
 10 32  1  0
 12 33  1  0
 14 34  1  0
 14 35  1  0
 16 36  1  0
 17 37  1  0
 17 38  1  0
 18 39  1  0
 18 40  1  0
M  CHG  1   3   1
M  END
>  <EmbedRMS>  (200) 
0.18315233489621047

$$$$

     RDKit          3D

 44 45  0  0  0  0  0  0  0  0999 V2000
   14.0105    7.0507    1.2529 C   0  0  0  0  0  0  0  0  0  0  0  0
   13.6000    8.3245    1.9899 C   0  0  0  0  0  0  0  0  0  0  0  0
   14.7021    8.8917    2.7696 N   0  0  0  0  0  4  0  0  0  0  0  0
   12.2606    8.3275    2.7676 C   0  0  0  0  0  0  0  0  0  0  0  0
   11.1783    7.4407    2.1350 C   0  0  0  0  0  0  0  0  0  0  0  0
    9.7434    7.7269    2.5462 C   0  0  0  0  0  0  0  0  0  0  0  0
    9.4479    9.2025    2.6423 C   0  0  0  0  0  0  0  0  0  0  0  0
    7.9856    9.5285    2.7266 C   0  0  0  0  0  0  0  0  0  0  0  0
    7.4173    9.6838    1.6180 O   0  0  0  0  0  0  0  0  0  0  0  0
    7.2153    9.6879    3.9313 N   0  0  0  0  0  0  0  0  0  0  0  0
    5.8125   10.1150    3.8103 C   0  0  0  0  0  0  0  0  0  0  0  0
    5.1581   10.2735    5.1455 C   0  0  0  0  0  0  0  0  0  0  0  0
    4.4142    9.3185    5.8006 C   0  0  0  0  0  0  0  0  0  0  0  0
    4.0184    9.8095    6.9932 N   0  0  0  0  0  0  0  0  0  0  0  0
    4.5338   11.0573    7.0370 C   0  0  0  0  0  0  0  0  0  0  0  0
    5.2367   11.3624    5.9299 N   0  0  0  0  0  0  0  0  0  0  0  0
    5.9108   12.6233    5.6414 C   0  0  0  0  0  0  0  0  0  0  0  0
   10.3850   10.0203    3.4864 C   0  0  0  0  0  0  0  0  0  0  0  0
   11.8487    9.7810    3.1223 C   0  0  0  0  0  0  0  0  0  0  0  0
   14.1171    6.2180    1.9795 H   0  0  0  0  0  0  0  0  0  0  0  0
   14.9817    7.1933    0.7326 H   0  0  0  0  0  0  0  0  0  0  0  0
   13.2659    6.7643    0.4821 H   0  0  0  0  0  0  0  0  0  0  0  0
   13.4358    9.0287    1.1412 H   0  0  0  0  0  0  0  0  0  0  0  0
   14.8372    8.3421    3.6489 H   0  0  0  0  0  0  0  0  0  0  0  0
   15.5917    8.8663    2.2199 H   0  0  0  0  0  0  0  0  0  0  0  0
   14.5203    9.8926    3.0068 H   0  0  0  0  0  0  0  0  0  0  0  0
   12.4679    7.8404    3.7472 H   0  0  0  0  0  0  0  0  0  0  0  0
   11.4049    6.3678    2.3225 H   0  0  0  0  0  0  0  0  0  0  0  0
   11.2113    7.5941    1.0341 H   0  0  0  0  0  0  0  0  0  0  0  0
    9.5610    7.2695    3.5432 H   0  0  0  0  0  0  0  0  0  0  0  0
    9.0524    7.2381    1.8229 H   0  0  0  0  0  0  0  0  0  0  0  0
    9.7203    9.5619    1.6187 H   0  0  0  0  0  0  0  0  0  0  0  0
    7.6617    9.5357    4.8638 H   0  0  0  0  0  0  0  0  0  0  0  0
    5.7633   11.0817    3.2647 H   0  0  0  0  0  0  0  0  0  0  0  0
    5.2487    9.3615    3.2185 H   0  0  0  0  0  0  0  0  0  0  0  0
    4.1788    8.3258    5.4401 H   0  0  0  0  0  0  0  0  0  0  0  0
    4.3948   11.7318    7.8721 H   0  0  0  0  0  0  0  0  0  0  0  0
    5.9498   13.2601    6.5508 H   0  0  0  0  0  0  0  0  0  0  0  0
    5.3604   13.1661    4.8447 H   0  0  0  0  0  0  0  0  0  0  0  0
    6.9500   12.4268    5.3027 H   0  0  0  0  0  0  0  0  0  0  0  0
   10.1474   11.1034    3.3908 H   0  0  0  0  0  0  0  0  0  0  0  0
   10.2327    9.7357    4.5503 H   0  0  0  0  0  0  0  0  0  0  0  0
   12.4711   10.1527    3.9653 H   0  0  0  0  0  0  0  0  0  0  0  0
   12.0631   10.4406    2.2525 H   0  0  0  0  0  0  0  0  0  0  0  0
  1  2  1  0
  2  3  1  0
  2  4  1  0
  4  5  1  0
  5  6  1  0
  6  7  1  0
  7  8  1  0
  8  9  2  0
  8 10  1  0
 10 11  1  0
 11 12  1  0
 12 13  2  0
 13 14  1  0
 14 15  2  0
 15 16  1  0
 16 17  1  0
  7 18  1  0
 18 19  1  0
 19  4  1  0
 16 12  1  0
  1 20  1  0
  1 21  1  0
  1 22  1  0
  2 23  1  0
  3 24  1  0
  3 25  1  0
  3 26  1  0
  4 27  1  0
  5 28  1  0
  5 29  1  0
  6 30  1  0
  6 31  1  0
  7 32  1  0
 10 33  1  0
 11 34  1  0
 11 35  1  0
 13 36  1  0
 15 37  1  0
 17 38  1  0
 17 39  1  0
 17 40  1  0
 18 41  1  0
 18 42  1  0
 19 43  1  0
 19 44  1  0
M  CHG  1   3   1
M  END
>  <EmbedRMS>  (201) 
0.28482549143865477

$$$$

     RDKit          3D

 43 44  0  0  0  0  0  0  0  0999 V2000
   14.0134    7.0450    1.2246 C   0  0  0  0  0  0  0  0  0  0  0  0
   13.6542    8.3401    1.9333 C   0  0  0  0  0  0  0  0  0  0  0  0
   14.6173    8.7741    2.9397 N   0  0  0  0  0  4  0  0  0  0  0  0
   12.1431    8.5871    2.2329 C   0  0  0  0  0  0  0  0  0  0  0  0
   11.2641    7.3646    2.5408 C   0  0  0  0  0  0  0  0  0  0  0  0
    9.7655    7.7147    2.4337 C   0  0  0  0  0  0  0  0  0  0  0  0
    9.4437    9.1939    2.6629 C   0  0  0  0  0  0  0  0  0  0  0  0
    7.9804    9.5185    2.7350 C   0  0  0  0  0  0  0  0  0  0  0  0
    7.4133    9.6743    1.6246 O   0  0  0  0  0  0  0  0  0  0  0  0
    7.2101    9.6866    3.9373 N   0  0  0  0  0  0  0  0  0  0  0  0
    5.8079   10.1133    3.8144 C   0  0  0  0  0  0  0  0  0  0  0  0
    5.1538   10.2714    5.1492 C   0  0  0  0  0  0  0  0  0  0  0  0
    4.4718    9.2849    5.7620 N   0  0  0  0  0  0  0  0  0  0  0  0
    4.1072    9.8685    6.9253 C   0  0  0  0  0  0  0  0  0  0  0  0
    4.5417   11.1409    7.0242 N   0  0  0  0  0  0  0  0  0  0  0  0
    5.2010   11.3813    5.9065 N   0  0  0  0  0  0  0  0  0  0  0  0
    5.8353   12.6534    5.5829 C   0  0  0  0  0  0  0  0  0  0  0  0
   10.4056   10.0818    3.4356 C   0  0  0  0  0  0  0  0  0  0  0  0
   11.8902    9.6850    3.2864 C   0  0  0  0  0  0  0  0  0  0  0  0
   13.3401    6.8741    0.3570 H   0  0  0  0  0  0  0  0  0  0  0  0
   13.9241    6.1936    1.9315 H   0  0  0  0  0  0  0  0  0  0  0  0
   15.0583    7.0793    0.8476 H   0  0  0  0  0  0  0  0  0  0  0  0
   13.8439    9.0655    1.1032 H   0  0  0  0  0  0  0  0  0  0  0  0
   15.5926    8.5556    2.6309 H   0  0  0  0  0  0  0  0  0  0  0  0
   14.4335    8.2663    3.8347 H   0  0  0  0  0  0  0  0  0  0  0  0
   14.5658    9.8051    3.1022 H   0  0  0  0  0  0  0  0  0  0  0  0
   11.7496    8.9805    1.2663 H   0  0  0  0  0  0  0  0  0  0  0  0
   11.4737    6.5320    1.8378 H   0  0  0  0  0  0  0  0  0  0  0  0
   11.4949    7.0012    3.5664 H   0  0  0  0  0  0  0  0  0  0  0  0
    9.3848    7.3993    1.4350 H   0  0  0  0  0  0  0  0  0  0  0  0
    9.2148    7.1108    3.1875 H   0  0  0  0  0  0  0  0  0  0  0  0
    9.6829    9.5863    1.6449 H   0  0  0  0  0  0  0  0  0  0  0  0
    7.6558    9.5381    4.8707 H   0  0  0  0  0  0  0  0  0  0  0  0
    5.2436    9.3553    3.2291 H   0  0  0  0  0  0  0  0  0  0  0  0
    5.7572   11.0764    3.2627 H   0  0  0  0  0  0  0  0  0  0  0  0
    3.5302    9.3698    7.6922 H   0  0  0  0  0  0  0  0  0  0  0  0
    5.2848   13.1450    4.7538 H   0  0  0  0  0  0  0  0  0  0  0  0
    6.8894   12.4828    5.2779 H   0  0  0  0  0  0  0  0  0  0  0  0
    5.8248   13.3227    6.4692 H   0  0  0  0  0  0  0  0  0  0  0  0
   10.1348   10.0263    4.5122 H   0  0  0  0  0  0  0  0  0  0  0  0
   10.2664   11.1448    3.1315 H   0  0  0  0  0  0  0  0  0  0  0  0
   12.2734    9.3423    4.2727 H   0  0  0  0  0  0  0  0  0  0  0  0
   12.4548   10.6000    3.0047 H   0  0  0  0  0  0  0  0  0  0  0  0
  1  2  1  0
  2  3  1  0
  2  4  1  0
  4  5  1  0
  5  6  1  0
  6  7  1  0
  7  8  1  0
  8  9  2  0
  8 10  1  0
 10 11  1  0
 11 12  1  0
 12 13  2  0
 13 14  1  0
 14 15  2  0
 15 16  1  0
 16 17  1  0
  7 18  1  0
 18 19  1  0
 19  4  1  0
 16 12  1  0
  1 20  1  0
  1 21  1  0
  1 22  1  0
  2 23  1  0
  3 24  1  0
  3 25  1  0
  3 26  1  0
  4 27  1  0
  5 28  1  0
  5 29  1  0
  6 30  1  0
  6 31  1  0
  7 32  1  0
 10 33  1  0
 11 34  1  0
 11 35  1  0
 14 36  1  0
 17 37  1  0
 17 38  1  0
 17 39  1  0
 18 40  1  0
 18 41  1  0
 19 42  1  0
 19 43  1  0
M  CHG  1   3   1
M  END
>  <EmbedRMS>  (202) 
0.24309368491659913

$$$$

     RDKit          3D

 41 42  0  0  0  0  0  0  0  0999 V2000
   14.0155    7.0452    1.2243 C   0  0  0  0  0  0  0  0  0  0  0  0
   13.6577    8.3402    1.9340 C   0  0  0  0  0  0  0  0  0  0  0  0
   14.6213    8.7734    2.9399 N   0  0  0  0  0  4  0  0  0  0  0  0
   12.1479    8.5868    2.2358 C   0  0  0  0  0  0  0  0  0  0  0  0
   11.2708    7.3634    2.5450 C   0  0  0  0  0  0  0  0  0  0  0  0
    9.7738    7.7130    2.4384 C   0  0  0  0  0  0  0  0  0  0  0  0
    9.4545    9.1902    2.6817 C   0  0  0  0  0  0  0  0  0  0  0  0
    7.9930    9.5119    2.7236 C   0  0  0  0  0  0  0  0  0  0  0  0
    7.4746    9.6077    1.5899 O   0  0  0  0  0  0  0  0  0  0  0  0
    7.1920    9.7025    3.9130 N   0  0  0  0  0  0  0  0  0  0  0  0
    5.8002   10.1396    3.9098 C   0  0  0  0  0  0  0  0  0  0  0  0
    5.1136   10.2622    5.1332 C   0  0  0  0  0  0  0  0  0  0  0  0
    3.7791   10.6918    5.1678 C   0  0  0  0  0  0  0  0  0  0  0  0
    3.1050   10.9965    3.9846 C   0  0  0  0  0  0  0  0  0  0  0  0
    3.7620   10.8848    2.7663 C   0  0  0  0  0  0  0  0  0  0  0  0
    5.0915   10.4774    2.7238 C   0  0  0  0  0  0  0  0  0  0  0  0
   10.4123   10.0785    3.4530 C   0  0  0  0  0  0  0  0  0  0  0  0
   11.8967    9.6862    3.2904 C   0  0  0  0  0  0  0  0  0  0  0  0
   13.3412    6.8748    0.3575 H   0  0  0  0  0  0  0  0  0  0  0  0
   15.0600    7.0795    0.8460 H   0  0  0  0  0  0  0  0  0  0  0  0
   13.9272    6.1936    1.9310 H   0  0  0  0  0  0  0  0  0  0  0  0
   13.8472    9.0661    1.1041 H   0  0  0  0  0  0  0  0  0  0  0  0
   14.4394    8.2635    3.8342 H   0  0  0  0  0  0  0  0  0  0  0  0
   14.5690    9.8041    3.1044 H   0  0  0  0  0  0  0  0  0  0  0  0
   15.5964    8.5564    2.6293 H   0  0  0  0  0  0  0  0  0  0  0  0
   11.7549    8.9789    1.2687 H   0  0  0  0  0  0  0  0  0  0  0  0
   11.4801    6.5302    1.8427 H   0  0  0  0  0  0  0  0  0  0  0  0
   11.5022    7.0014    3.5710 H   0  0  0  0  0  0  0  0  0  0  0  0
    9.3960    7.4069    1.4357 H   0  0  0  0  0  0  0  0  0  0  0  0
    9.2216    7.1022    3.1855 H   0  0  0  0  0  0  0  0  0  0  0  0
    9.7131    9.5882    1.6698 H   0  0  0  0  0  0  0  0  0  0  0  0
    7.6559    9.5263    4.8324 H   0  0  0  0  0  0  0  0  0  0  0  0
    5.6153   10.0259    6.0630 H   0  0  0  0  0  0  0  0  0  0  0  0
    3.2672   10.7820    6.1172 H   0  0  0  0  0  0  0  0  0  0  0  0
    2.0739   11.3242    4.0170 H   0  0  0  0  0  0  0  0  0  0  0  0
    3.2415   11.1383    1.8510 H   0  0  0  0  0  0  0  0  0  0  0  0
    5.5040   10.4952    1.7386 H   0  0  0  0  0  0  0  0  0  0  0  0
   10.1475   10.0136    4.5305 H   0  0  0  0  0  0  0  0  0  0  0  0
   10.2671   11.1433    3.1573 H   0  0  0  0  0  0  0  0  0  0  0  0
   12.4562   10.6027    3.0029 H   0  0  0  0  0  0  0  0  0  0  0  0
   12.2889    9.3466    4.2742 H   0  0  0  0  0  0  0  0  0  0  0  0
  1  2  1  0
  2  3  1  0
  2  4  1  0
  4  5  1  0
  5  6  1  0
  6  7  1  0
  7  8  1  0
  8  9  2  0
  8 10  1  0
 10 11  1  0
 11 12  2  0
 12 13  1  0
 13 14  2  0
 14 15  1  0
 15 16  2  0
  7 17  1  0
 17 18  1  0
 18  4  1  0
 16 11  1  0
  1 19  1  0
  1 20  1  0
  1 21  1  0
  2 22  1  0
  3 23  1  0
  3 24  1  0
  3 25  1  0
  4 26  1  0
  5 27  1  0
  5 28  1  0
  6 29  1  0
  6 30  1  0
  7 31  1  0
 10 32  1  0
 12 33  1  0
 13 34  1  0
 14 35  1  0
 15 36  1  0
 16 37  1  0
 17 38  1  0
 17 39  1  0
 18 40  1  0
 18 41  1  0
M  CHG  1   3   1
M  END
>  <EmbedRMS>  (203) 
0.24964892458419108

$$$$

     RDKit          3D

 39 40  0  0  0  0  0  0  0  0999 V2000
   14.0110    7.0511    1.2526 C   0  0  0  0  0  0  0  0  0  0  0  0
   13.6007    8.3248    1.9901 C   0  0  0  0  0  0  0  0  0  0  0  0
   14.7033    8.8921    2.7690 N   0  0  0  0  0  4  0  0  0  0  0  0
   12.2625    8.3270    2.7691 C   0  0  0  0  0  0  0  0  0  0  0  0
   11.1802    7.4398    2.1370 C   0  0  0  0  0  0  0  0  0  0  0  0
    9.7464    7.7250    2.5506 C   0  0  0  0  0  0  0  0  0  0  0  0
    9.4528    9.2006    2.6508 C   0  0  0  0  0  0  0  0  0  0  0  0
    7.9907    9.5272    2.7197 C   0  0  0  0  0  0  0  0  0  0  0  0
    7.4511    9.6605    1.5982 O   0  0  0  0  0  0  0  0  0  0  0  0
    7.2032    9.6917    3.9188 N   0  0  0  0  0  0  0  0  0  0  0  0
    5.8190   10.1244    3.8864 C   0  0  0  0  0  0  0  0  0  0  0  0
    5.0492   10.4501    2.7707 C   0  0  0  0  0  0  0  0  0  0  0  0
    3.8118   10.8137    3.2504 C   0  0  0  0  0  0  0  0  0  0  0  0
    3.7917   10.7296    4.5924 N   0  0  0  0  0  0  0  0  0  0  0  0
    5.0092   10.3116    4.9903 C   0  0  0  0  0  0  0  0  0  0  0  0
   10.3879   10.0193    3.4937 C   0  0  0  0  0  0  0  0  0  0  0  0
   11.8511    9.7804    3.1265 C   0  0  0  0  0  0  0  0  0  0  0  0
   13.2659    6.7648    0.4822 H   0  0  0  0  0  0  0  0  0  0  0  0
   14.9817    7.1940    0.7316 H   0  0  0  0  0  0  0  0  0  0  0  0
   14.1182    6.2183    1.9789 H   0  0  0  0  0  0  0  0  0  0  0  0
   13.4353    9.0292    1.1418 H   0  0  0  0  0  0  0  0  0  0  0  0
   14.5218    9.8930    3.0061 H   0  0  0  0  0  0  0  0  0  0  0  0
   15.5925    8.8665    2.2188 H   0  0  0  0  0  0  0  0  0  0  0  0
   14.8389    8.3426    3.6484 H   0  0  0  0  0  0  0  0  0  0  0  0
   12.4711    7.8390    3.7480 H   0  0  0  0  0  0  0  0  0  0  0  0
   11.2117    7.5939    1.0361 H   0  0  0  0  0  0  0  0  0  0  0  0
   11.4077    6.3669    2.3236 H   0  0  0  0  0  0  0  0  0  0  0  0
    9.0547    7.2379    1.8268 H   0  0  0  0  0  0  0  0  0  0  0  0
    9.5649    7.2656    3.5467 H   0  0  0  0  0  0  0  0  0  0  0  0
    9.7356    9.5600    1.6294 H   0  0  0  0  0  0  0  0  0  0  0  0
    7.6552    9.5149    4.8435 H   0  0  0  0  0  0  0  0  0  0  0  0
    5.3065   10.4537    1.7245 H   0  0  0  0  0  0  0  0  0  0  0  0
    2.9693   11.1301    2.6494 H   0  0  0  0  0  0  0  0  0  0  0  0
    2.9817   10.9503    5.2127 H   0  0  0  0  0  0  0  0  0  0  0  0
    5.2923   10.1545    6.0229 H   0  0  0  0  0  0  0  0  0  0  0  0
   10.1492   11.1022    3.3982 H   0  0  0  0  0  0  0  0  0  0  0  0
   10.2369    9.7340    4.5575 H   0  0  0  0  0  0  0  0  0  0  0  0
   12.4748   10.1510    3.9689 H   0  0  0  0  0  0  0  0  0  0  0  0
   12.0642   10.4412    2.2573 H   0  0  0  0  0  0  0  0  0  0  0  0
  1  2  1  0
  2  3  1  0
  2  4  1  0
  4  5  1  0
  5  6  1  0
  6  7  1  0
  7  8  1  0
  8  9  2  0
  8 10  1  0
 10 11  1  0
 11 12  1  0
 12 13  2  0
 13 14  1  0
 14 15  1  0
  7 16  1  0
 16 17  1  0
 17  4  1  0
 15 11  2  0
  1 18  1  0
  1 19  1  0
  1 20  1  0
  2 21  1  0
  3 22  1  0
  3 23  1  0
  3 24  1  0
  4 25  1  0
  5 26  1  0
  5 27  1  0
  6 28  1  0
  6 29  1  0
  7 30  1  0
 10 31  1  0
 12 32  1  0
 13 33  1  0
 14 34  1  0
 15 35  1  0
 16 36  1  0
 16 37  1  0
 17 38  1  0
 17 39  1  0
M  CHG  1   3   1
M  END
>  <EmbedRMS>  (204) 
0.3005329260886256

$$$$

     RDKit          3D

 42 43  0  0  0  0  0  0  0  0999 V2000
    5.3195   10.1269    6.4139 C   0  0  0  0  0  0  0  0  0  0  0  0
    4.9792   10.3195    4.9744 C   0  0  0  0  0  0  0  0  0  0  0  0
    3.7594   10.7463    4.4825 C   0  0  0  0  0  0  0  0  0  0  0  0
    3.8086   10.8209    3.1423 N   0  0  0  0  0  0  0  0  0  0  0  0
    5.0435   10.4532    2.7617 C   0  0  0  0  0  0  0  0  0  0  0  0
    5.8112   10.1281    3.8813 C   0  0  0  0  0  0  0  0  0  0  0  0
    7.2009    9.6998    3.9184 N   0  0  0  0  0  0  0  0  0  0  0  0
    7.9916    9.5355    2.7198 C   0  0  0  0  0  0  0  0  0  0  0  0
    7.4509    9.6633    1.5984 O   0  0  0  0  0  0  0  0  0  0  0  0
    9.4538    9.2013    2.6443 C   0  0  0  0  0  0  0  0  0  0  0  0
    9.7381    7.7217    2.5436 C   0  0  0  0  0  0  0  0  0  0  0  0
   11.1755    7.4157    2.1525 C   0  0  0  0  0  0  0  0  0  0  0  0
   12.2311    8.2933    2.8233 C   0  0  0  0  0  0  0  0  0  0  0  0
   13.7087    7.9212    2.4416 C   0  0  0  0  0  0  0  0  0  0  0  0
   13.9228    7.3287    1.0384 C   0  0  0  0  0  0  0  0  0  0  0  0
   14.6434    9.0272    2.6696 N   0  0  0  0  0  4  0  0  0  0  0  0
   11.8807    9.7841    3.0029 C   0  0  0  0  0  0  0  0  0  0  0  0
   10.4271   10.0502    3.4278 C   0  0  0  0  0  0  0  0  0  0  0  0
    6.1190   10.8397    6.7049 H   0  0  0  0  0  0  0  0  0  0  0  0
    4.4289   10.3031    7.0535 H   0  0  0  0  0  0  0  0  0  0  0  0
    5.6775    9.0889    6.5765 H   0  0  0  0  0  0  0  0  0  0  0  0
    2.8852   10.9917    5.0719 H   0  0  0  0  0  0  0  0  0  0  0  0
    3.0316   11.1198    2.5124 H   0  0  0  0  0  0  0  0  0  0  0  0
    5.3287   10.4524    1.7236 H   0  0  0  0  0  0  0  0  0  0  0  0
    7.6565    9.5276    4.8420 H   0  0  0  0  0  0  0  0  0  0  0  0
    9.7172    9.5343    1.6086 H   0  0  0  0  0  0  0  0  0  0  0  0
    9.5359    7.2644    3.5367 H   0  0  0  0  0  0  0  0  0  0  0  0
    9.0519    7.2414    1.8101 H   0  0  0  0  0  0  0  0  0  0  0  0
   11.3834    6.3422    2.3586 H   0  0  0  0  0  0  0  0  0  0  0  0
   11.2455    7.5661    1.0536 H   0  0  0  0  0  0  0  0  0  0  0  0
   12.1658    7.9484    3.8826 H   0  0  0  0  0  0  0  0  0  0  0  0
   14.0135    7.0970    3.1296 H   0  0  0  0  0  0  0  0  0  0  0  0
   13.3783    6.3681    0.9250 H   0  0  0  0  0  0  0  0  0  0  0  0
   13.5722    8.0454    0.2658 H   0  0  0  0  0  0  0  0  0  0  0  0
   14.9997    7.1191    0.8644 H   0  0  0  0  0  0  0  0  0  0  0  0
   15.6240    8.7100    2.4896 H   0  0  0  0  0  0  0  0  0  0  0  0
   14.4327    9.8284    2.0315 H   0  0  0  0  0  0  0  0  0  0  0  0
   14.6013    9.3360    3.6675 H   0  0  0  0  0  0  0  0  0  0  0  0
   12.0564   10.2973    2.0326 H   0  0  0  0  0  0  0  0  0  0  0  0
   12.5423   10.2594    3.7576 H   0  0  0  0  0  0  0  0  0  0  0  0
   10.1934   11.1297    3.2939 H   0  0  0  0  0  0  0  0  0  0  0  0
   10.3154    9.8086    4.5070 H   0  0  0  0  0  0  0  0  0  0  0  0
  1  2  1  0
  2  3  2  0
  3  4  1  0
  4  5  1  0
  5  6  2  0
  6  7  1  0
  7  8  1  0
  8  9  2  0
  8 10  1  0
 10 11  1  0
 11 12  1  0
 12 13  1  0
 13 14  1  0
 14 15  1  0
 14 16  1  0
 13 17  1  0
 17 18  1  0
  6  2  1  0
 18 10  1  0
  1 19  1  0
  1 20  1  0
  1 21  1  0
  3 22  1  0
  4 23  1  0
  5 24  1  0
  7 25  1  0
 10 26  1  0
 11 27  1  0
 11 28  1  0
 12 29  1  0
 12 30  1  0
 13 31  1  0
 14 32  1  0
 15 33  1  0
 15 34  1  0
 15 35  1  0
 16 36  1  0
 16 37  1  0
 16 38  1  0
 17 39  1  0
 17 40  1  0
 18 41  1  0
 18 42  1  0
M  CHG  1  16   1
M  END
>  <EmbedRMS>  (205) 
0.25960676527829957

$$$$

     RDKit          3D

 39 40  0  0  0  0  0  0  0  0999 V2000
   14.0110    7.0511    1.2526 C   0  0  0  0  0  0  0  0  0  0  0  0
   13.6007    8.3248    1.9901 C   0  0  0  0  0  0  0  0  0  0  0  0
   14.7033    8.8921    2.7690 N   0  0  0  0  0  4  0  0  0  0  0  0
   12.2625    8.3270    2.7691 C   0  0  0  0  0  0  0  0  0  0  0  0
   11.1802    7.4398    2.1370 C   0  0  0  0  0  0  0  0  0  0  0  0
    9.7464    7.7250    2.5506 C   0  0  0  0  0  0  0  0  0  0  0  0
    9.4528    9.2006    2.6508 C   0  0  0  0  0  0  0  0  0  0  0  0
    7.9907    9.5272    2.7197 C   0  0  0  0  0  0  0  0  0  0  0  0
    7.4511    9.6605    1.5982 O   0  0  0  0  0  0  0  0  0  0  0  0
    7.2032    9.6917    3.9188 N   0  0  0  0  0  0  0  0  0  0  0  0
    5.8190   10.1244    3.8864 C   0  0  0  0  0  0  0  0  0  0  0  0
    5.0492   10.4501    2.7707 C   0  0  0  0  0  0  0  0  0  0  0  0
    3.8118   10.8137    3.2504 C   0  0  0  0  0  0  0  0  0  0  0  0
    3.7917   10.7296    4.5924 N   0  0  0  0  0  0  0  0  0  0  0  0
    5.0092   10.3116    4.9903 C   0  0  0  0  0  0  0  0  0  0  0  0
   10.3879   10.0193    3.4937 C   0  0  0  0  0  0  0  0  0  0  0  0
   11.8511    9.7804    3.1265 C   0  0  0  0  0  0  0  0  0  0  0  0
   13.2659    6.7648    0.4822 H   0  0  0  0  0  0  0  0  0  0  0  0
   14.9817    7.1940    0.7316 H   0  0  0  0  0  0  0  0  0  0  0  0
   14.1182    6.2183    1.9789 H   0  0  0  0  0  0  0  0  0  0  0  0
   13.4353    9.0292    1.1418 H   0  0  0  0  0  0  0  0  0  0  0  0
   14.5218    9.8930    3.0061 H   0  0  0  0  0  0  0  0  0  0  0  0
   15.5925    8.8665    2.2188 H   0  0  0  0  0  0  0  0  0  0  0  0
   14.8389    8.3426    3.6484 H   0  0  0  0  0  0  0  0  0  0  0  0
   12.4711    7.8390    3.7480 H   0  0  0  0  0  0  0  0  0  0  0  0
   11.2117    7.5939    1.0361 H   0  0  0  0  0  0  0  0  0  0  0  0
   11.4077    6.3669    2.3236 H   0  0  0  0  0  0  0  0  0  0  0  0
    9.0547    7.2379    1.8268 H   0  0  0  0  0  0  0  0  0  0  0  0
    9.5649    7.2656    3.5467 H   0  0  0  0  0  0  0  0  0  0  0  0
    9.7356    9.5600    1.6294 H   0  0  0  0  0  0  0  0  0  0  0  0
    7.6552    9.5149    4.8435 H   0  0  0  0  0  0  0  0  0  0  0  0
    5.3065   10.4537    1.7245 H   0  0  0  0  0  0  0  0  0  0  0  0
    2.9693   11.1301    2.6494 H   0  0  0  0  0  0  0  0  0  0  0  0
    2.9817   10.9503    5.2127 H   0  0  0  0  0  0  0  0  0  0  0  0
    5.2923   10.1545    6.0229 H   0  0  0  0  0  0  0  0  0  0  0  0
   10.1492   11.1022    3.3982 H   0  0  0  0  0  0  0  0  0  0  0  0
   10.2369    9.7340    4.5575 H   0  0  0  0  0  0  0  0  0  0  0  0
   12.4748   10.1510    3.9689 H   0  0  0  0  0  0  0  0  0  0  0  0
   12.0642   10.4412    2.2573 H   0  0  0  0  0  0  0  0  0  0  0  0
  1  2  1  0
  2  3  1  0
  2  4  1  0
  4  5  1  0
  5  6  1  0
  6  7  1  0
  7  8  1  0
  8  9  2  0
  8 10  1  0
 10 11  1  0
 11 12  1  0
 12 13  2  0
 13 14  1  0
 14 15  1  0
  7 16  1  0
 16 17  1  0
 17  4  1  0
 15 11  2  0
  1 18  1  0
  1 19  1  0
  1 20  1  0
  2 21  1  0
  3 22  1  0
  3 23  1  0
  3 24  1  0
  4 25  1  0
  5 26  1  0
  5 27  1  0
  6 28  1  0
  6 29  1  0
  7 30  1  0
 10 31  1  0
 12 32  1  0
 13 33  1  0
 14 34  1  0
 15 35  1  0
 16 36  1  0
 16 37  1  0
 17 38  1  0
 17 39  1  0
M  CHG  1   3   1
M  END
>  <EmbedRMS>  (206) 
0.3005329260886256

$$$$

     RDKit          3D

 38 39  0  0  0  0  0  0  0  0999 V2000
   13.9322    7.3324    1.0260 C   0  0  0  0  0  0  0  0  0  0  0  0
   13.7092    7.9151    2.4297 C   0  0  0  0  0  0  0  0  0  0  0  0
   14.6476    9.0167    2.6730 N   0  0  0  0  0  4  0  0  0  0  0  0
   12.2318    8.2991    2.7953 C   0  0  0  0  0  0  0  0  0  0  0  0
   11.1456    7.3164    2.3189 C   0  0  0  0  0  0  0  0  0  0  0  0
    9.7825    7.9370    2.0722 C   0  0  0  0  0  0  0  0  0  0  0  0
    9.4192    8.9856    3.1169 C   0  0  0  0  0  0  0  0  0  0  0  0
    8.0088    9.4683    2.8771 C   0  0  0  0  0  0  0  0  0  0  0  0
    7.6065    9.6885    1.6993 O   0  0  0  0  0  0  0  0  0  0  0  0
    7.1456    9.6969    3.9970 N   0  0  0  0  0  0  0  0  0  0  0  0
    5.7865   10.1351    3.8931 C   0  0  0  0  0  0  0  0  0  0  0  0
    5.1642   10.4075    2.7258 N   0  0  0  0  0  0  0  0  0  0  0  0
    3.9252   10.7813    3.1041 C   0  0  0  0  0  0  0  0  0  0  0  0
    3.8256   10.7274    4.4771 C   0  0  0  0  0  0  0  0  0  0  0  0
    5.0031   10.3190    4.9706 N   0  0  0  0  0  0  0  0  0  0  0  0
   10.3922   10.1688    3.0610 C   0  0  0  0  0  0  0  0  0  0  0  0
   11.8844    9.7893    2.9955 C   0  0  0  0  0  0  0  0  0  0  0  0
   13.4423    7.9752    0.2641 H   0  0  0  0  0  0  0  0  0  0  0  0
   15.0166    7.2739    0.7926 H   0  0  0  0  0  0  0  0  0  0  0  0
   13.5356    6.2978    0.9563 H   0  0  0  0  0  0  0  0  0  0  0  0
   14.0063    7.0854    3.1158 H   0  0  0  0  0  0  0  0  0  0  0  0
   14.5392    9.3815    3.6465 H   0  0  0  0  0  0  0  0  0  0  0  0
   14.5085    9.7864    1.9793 H   0  0  0  0  0  0  0  0  0  0  0  0
   15.6308    8.6701    2.5846 H   0  0  0  0  0  0  0  0  0  0  0  0
   12.2349    8.0288    3.8797 H   0  0  0  0  0  0  0  0  0  0  0  0
   11.4295    6.8349    1.3646 H   0  0  0  0  0  0  0  0  0  0  0  0
   11.0303    6.4815    3.0491 H   0  0  0  0  0  0  0  0  0  0  0  0
    9.7861    8.4059    1.0617 H   0  0  0  0  0  0  0  0  0  0  0  0
    9.0176    7.1284    2.0638 H   0  0  0  0  0  0  0  0  0  0  0  0
    9.4825    8.5137    4.1231 H   0  0  0  0  0  0  0  0  0  0  0  0
    7.5245    9.5321    4.9567 H   0  0  0  0  0  0  0  0  0  0  0  0
    3.1416   11.0755    2.4190 H   0  0  0  0  0  0  0  0  0  0  0  0
    2.9557   10.9694    5.0733 H   0  0  0  0  0  0  0  0  0  0  0  0
    5.2533   10.1770    5.9743 H   0  0  0  0  0  0  0  0  0  0  0  0
   10.2173   10.8163    3.9489 H   0  0  0  0  0  0  0  0  0  0  0  0
   10.1522   10.7900    2.1677 H   0  0  0  0  0  0  0  0  0  0  0  0
   12.3146   10.3479    2.1373 H   0  0  0  0  0  0  0  0  0  0  0  0
   12.3895   10.1915    3.9035 H   0  0  0  0  0  0  0  0  0  0  0  0
  1  2  1  0
  2  3  1  0
  2  4  1  0
  4  5  1  0
  5  6  1  0
  6  7  1  0
  7  8  1  0
  8  9  2  0
  8 10  1  0
 10 11  1  0
 11 12  2  0
 12 13  1  0
 13 14  2  0
 14 15  1  0
  7 16  1  0
 16 17  1  0
 17  4  1  0
 15 11  1  0
  1 18  1  0
  1 19  1  0
  1 20  1  0
  2 21  1  0
  3 22  1  0
  3 23  1  0
  3 24  1  0
  4 25  1  0
  5 26  1  0
  5 27  1  0
  6 28  1  0
  6 29  1  0
  7 30  1  0
 10 31  1  0
 13 32  1  0
 14 33  1  0
 15 34  1  0
 16 35  1  0
 16 36  1  0
 17 37  1  0
 17 38  1  0
M  CHG  1   3   1
M  END
>  <EmbedRMS>  (207) 
0.16863194066678772

$$$$

     RDKit          3D

 43 44  0  0  0  0  0  0  0  0999 V2000
    5.2391   10.1540    6.3867 C   0  0  0  0  0  0  0  0  0  0  0  0
    4.9552   10.3323    4.9347 C   0  0  0  0  0  0  0  0  0  0  0  0
    3.7742   10.7459    4.4332 N   0  0  0  0  0  0  0  0  0  0  0  0
    3.9346   10.7896    3.1183 N   0  0  0  0  0  0  0  0  0  0  0  0
    2.8807   11.1633    2.1862 C   0  0  0  0  0  0  0  0  0  0  0  0
    5.1474   10.4132    2.7409 N   0  0  0  0  0  0  0  0  0  0  0  0
    5.8173   10.1233    3.8752 C   0  0  0  0  0  0  0  0  0  0  0  0
    7.1999    9.6919    3.9321 N   0  0  0  0  0  0  0  0  0  0  0  0
    7.9798    9.5400    2.7260 C   0  0  0  0  0  0  0  0  0  0  0  0
    7.4216    9.6823    1.6112 O   0  0  0  0  0  0  0  0  0  0  0  0
    9.4455    9.2140    2.6478 C   0  0  0  0  0  0  0  0  0  0  0  0
    9.7323    7.7446    2.3750 C   0  0  0  0  0  0  0  0  0  0  0  0
   11.1960    7.3508    2.5415 C   0  0  0  0  0  0  0  0  0  0  0  0
   12.1801    8.5092    2.2965 C   0  0  0  0  0  0  0  0  0  0  0  0
   13.6444    7.9631    2.3852 C   0  0  0  0  0  0  0  0  0  0  0  0
   14.0262    7.2305    1.0860 C   0  0  0  0  0  0  0  0  0  0  0  0
   14.6261    9.0246    2.6472 N   0  0  0  0  0  4  0  0  0  0  0  0
   11.8948    9.6382    3.3198 C   0  0  0  0  0  0  0  0  0  0  0  0
   10.4166   10.0745    3.4334 C   0  0  0  0  0  0  0  0  0  0  0  0
    6.0522   10.8440    6.6943 H   0  0  0  0  0  0  0  0  0  0  0  0
    4.3305   10.3750    6.9853 H   0  0  0  0  0  0  0  0  0  0  0  0
    5.5532    9.1070    6.5795 H   0  0  0  0  0  0  0  0  0  0  0  0
    2.3125   10.2581    1.8874 H   0  0  0  0  0  0  0  0  0  0  0  0
    2.1894   11.8884    2.6655 H   0  0  0  0  0  0  0  0  0  0  0  0
    3.3226   11.6337    1.2824 H   0  0  0  0  0  0  0  0  0  0  0  0
    7.6489    9.5131    4.8575 H   0  0  0  0  0  0  0  0  0  0  0  0
    9.7075    9.6228    1.6396 H   0  0  0  0  0  0  0  0  0  0  0  0
    9.3943    7.4770    1.3467 H   0  0  0  0  0  0  0  0  0  0  0  0
    9.1260    7.1264    3.0734 H   0  0  0  0  0  0  0  0  0  0  0  0
   11.3420    6.9709    3.5779 H   0  0  0  0  0  0  0  0  0  0  0  0
   11.3959    6.5008    1.8583 H   0  0  0  0  0  0  0  0  0  0  0  0
   12.0091    8.9231    1.2771 H   0  0  0  0  0  0  0  0  0  0  0  0
   13.7129    7.2282    3.2201 H   0  0  0  0  0  0  0  0  0  0  0  0
   13.9560    7.9173    0.2156 H   0  0  0  0  0  0  0  0  0  0  0  0
   13.3786    6.3505    0.9046 H   0  0  0  0  0  0  0  0  0  0  0  0
   15.0694    6.8550    1.1520 H   0  0  0  0  0  0  0  0  0  0  0  0
   15.5977    8.6420    2.5846 H   0  0  0  0  0  0  0  0  0  0  0  0
   14.5251    9.7980    1.9497 H   0  0  0  0  0  0  0  0  0  0  0  0
   14.5138    9.3996    3.6161 H   0  0  0  0  0  0  0  0  0  0  0  0
   12.2353    9.3020    4.3247 H   0  0  0  0  0  0  0  0  0  0  0  0
   12.4932   10.5358    3.0530 H   0  0  0  0  0  0  0  0  0  0  0  0
   10.3136   11.1414    3.1278 H   0  0  0  0  0  0  0  0  0  0  0  0
   10.1211   10.0303    4.5042 H   0  0  0  0  0  0  0  0  0  0  0  0
  1  2  1  0
  2  3  2  0
  3  4  1  0
  4  5  1  0
  4  6  1  0
  6  7  2  0
  7  8  1  0
  8  9  1  0
  9 10  2  0
  9 11  1  0
 11 12  1  0
 12 13  1  0
 13 14  1  0
 14 15  1  0
 15 16  1  0
 15 17  1  0
 14 18  1  0
 18 19  1  0
  7  2  1  0
 19 11  1  0
  1 20  1  0
  1 21  1  0
  1 22  1  0
  5 23  1  0
  5 24  1  0
  5 25  1  0
  8 26  1  0
 11 27  1  0
 12 28  1  0
 12 29  1  0
 13 30  1  0
 13 31  1  0
 14 32  1  0
 15 33  1  0
 16 34  1  0
 16 35  1  0
 16 36  1  0
 17 37  1  0
 17 38  1  0
 17 39  1  0
 18 40  1  0
 18 41  1  0
 19 42  1  0
 19 43  1  0
M  CHG  1  17   1
M  END
>  <EmbedRMS>  (208) 
0.16952440923283876

$$$$

     RDKit          3D

 40 41  0  0  0  0  0  0  0  0999 V2000
   13.9332    7.3332    1.0251 C   0  0  0  0  0  0  0  0  0  0  0  0
   13.7125    7.9146    2.4297 C   0  0  0  0  0  0  0  0  0  0  0  0
   14.6504    9.0165    2.6726 N   0  0  0  0  0  4  0  0  0  0  0  0
   12.2364    8.2979    2.7979 C   0  0  0  0  0  0  0  0  0  0  0  0
   11.1515    7.3120    2.3262 C   0  0  0  0  0  0  0  0  0  0  0  0
    9.7912    7.9324    2.0765 C   0  0  0  0  0  0  0  0  0  0  0  0
    9.4261    8.9806    3.1220 C   0  0  0  0  0  0  0  0  0  0  0  0
    8.0225    9.4639    2.8667 C   0  0  0  0  0  0  0  0  0  0  0  0
    7.6546    9.6768    1.6802 O   0  0  0  0  0  0  0  0  0  0  0  0
    7.1435    9.7011    3.9767 N   0  0  0  0  0  0  0  0  0  0  0  0
    5.7719   10.1423    3.9218 C   0  0  0  0  0  0  0  0  0  0  0  0
    5.0682   10.2866    5.1272 C   0  0  0  0  0  0  0  0  0  0  0  0
    3.7425   10.7162    5.1245 C   0  0  0  0  0  0  0  0  0  0  0  0
    3.1199   11.0021    3.9115 C   0  0  0  0  0  0  0  0  0  0  0  0
    3.8030   10.8612    2.7487 N   0  0  0  0  0  0  0  0  0  0  0  0
    5.0935   10.4449    2.7201 C   0  0  0  0  0  0  0  0  0  0  0  0
   10.3969   10.1658    3.0679 C   0  0  0  0  0  0  0  0  0  0  0  0
   11.8884    9.7884    2.9926 C   0  0  0  0  0  0  0  0  0  0  0  0
   13.4390    7.9746    0.2649 H   0  0  0  0  0  0  0  0  0  0  0  0
   13.5402    6.2972    0.9560 H   0  0  0  0  0  0  0  0  0  0  0  0
   15.0172    7.2785    0.7884 H   0  0  0  0  0  0  0  0  0  0  0  0
   14.0108    7.0845    3.1148 H   0  0  0  0  0  0  0  0  0  0  0  0
   14.5446    9.3791    3.6472 H   0  0  0  0  0  0  0  0  0  0  0  0
   14.5091    9.7874    1.9809 H   0  0  0  0  0  0  0  0  0  0  0  0
   15.6338    8.6709    2.5809 H   0  0  0  0  0  0  0  0  0  0  0  0
   12.2424    8.0318    3.8833 H   0  0  0  0  0  0  0  0  0  0  0  0
   11.4353    6.8245    1.3751 H   0  0  0  0  0  0  0  0  0  0  0  0
   11.0353    6.4818    3.0616 H   0  0  0  0  0  0  0  0  0  0  0  0
    9.8005    8.4008    1.0657 H   0  0  0  0  0  0  0  0  0  0  0  0
    9.0262    7.1237    2.0652 H   0  0  0  0  0  0  0  0  0  0  0  0
    9.4833    8.5087    4.1284 H   0  0  0  0  0  0  0  0  0  0  0  0
    7.5457    9.5319    4.9268 H   0  0  0  0  0  0  0  0  0  0  0  0
    5.5478   10.0665    6.0729 H   0  0  0  0  0  0  0  0  0  0  0  0
    3.2017   10.8271    6.0555 H   0  0  0  0  0  0  0  0  0  0  0  0
    2.0913   11.3366    3.8945 H   0  0  0  0  0  0  0  0  0  0  0  0
    5.5409   10.3704    1.7502 H   0  0  0  0  0  0  0  0  0  0  0  0
   10.1534   10.7936    2.1801 H   0  0  0  0  0  0  0  0  0  0  0  0
   10.2256   10.8070    3.9610 H   0  0  0  0  0  0  0  0  0  0  0  0
   12.3112   10.3420    2.1274 H   0  0  0  0  0  0  0  0  0  0  0  0
   12.4001   10.1967    3.8942 H   0  0  0  0  0  0  0  0  0  0  0  0
  1  2  1  0
  2  3  1  0
  2  4  1  0
  4  5  1  0
  5  6  1  0
  6  7  1  0
  7  8  1  0
  8  9  2  0
  8 10  1  0
 10 11  1  0
 11 12  2  0
 12 13  1  0
 13 14  2  0
 14 15  1  0
 15 16  2  0
  7 17  1  0
 17 18  1  0
 18  4  1  0
 16 11  1  0
  1 19  1  0
  1 20  1  0
  1 21  1  0
  2 22  1  0
  3 23  1  0
  3 24  1  0
  3 25  1  0
  4 26  1  0
  5 27  1  0
  5 28  1  0
  6 29  1  0
  6 30  1  0
  7 31  1  0
 10 32  1  0
 12 33  1  0
 13 34  1  0
 14 35  1  0
 16 36  1  0
 17 37  1  0
 17 38  1  0
 18 39  1  0
 18 40  1  0
M  CHG  1   3   1
M  END
>  <EmbedRMS>  (209) 
0.16496192233382964

$$$$

     RDKit          3D

 44 45  0  0  0  0  0  0  0  0999 V2000
   14.0107    7.0507    1.2528 C   0  0  0  0  0  0  0  0  0  0  0  0
   13.6001    8.3244    1.9899 C   0  0  0  0  0  0  0  0  0  0  0  0
   14.7023    8.8917    2.7695 N   0  0  0  0  0  4  0  0  0  0  0  0
   12.2609    8.3273    2.7676 C   0  0  0  0  0  0  0  0  0  0  0  0
   11.1786    7.4404    2.1351 C   0  0  0  0  0  0  0  0  0  0  0  0
    9.7437    7.7263    2.5465 C   0  0  0  0  0  0  0  0  0  0  0  0
    9.4484    9.2018    2.6425 C   0  0  0  0  0  0  0  0  0  0  0  0
    7.9862    9.5278    2.7260 C   0  0  0  0  0  0  0  0  0  0  0  0
    7.4191    9.6844    1.6169 O   0  0  0  0  0  0  0  0  0  0  0  0
    7.2141    9.6851    3.9298 N   0  0  0  0  0  0  0  0  0  0  0  0
    5.8145   10.1221    3.8055 C   0  0  0  0  0  0  0  0  0  0  0  0
    5.1470   10.2613    5.1399 C   0  0  0  0  0  0  0  0  0  0  0  0
    4.4698    9.1706    5.7071 C   0  0  0  0  0  0  0  0  0  0  0  0
    3.8614    9.2968    6.9587 C   0  0  0  0  0  0  0  0  0  0  0  0
    3.9277   10.5097    7.6502 C   0  0  0  0  0  0  0  0  0  0  0  0
    4.5995   11.5997    7.0894 C   0  0  0  0  0  0  0  0  0  0  0  0
    5.2092   11.4776    5.8378 C   0  0  0  0  0  0  0  0  0  0  0  0
   10.3852   10.0199    3.4864 C   0  0  0  0  0  0  0  0  0  0  0  0
   11.8489    9.7808    3.1224 C   0  0  0  0  0  0  0  0  0  0  0  0
   13.2661    6.7643    0.4821 H   0  0  0  0  0  0  0  0  0  0  0  0
   14.1173    6.2180    1.9794 H   0  0  0  0  0  0  0  0  0  0  0  0
   14.9818    7.1933    0.7325 H   0  0  0  0  0  0  0  0  0  0  0  0
   13.4358    9.0287    1.1412 H   0  0  0  0  0  0  0  0  0  0  0  0
   14.8375    8.3420    3.6488 H   0  0  0  0  0  0  0  0  0  0  0  0
   15.5918    8.8665    2.2197 H   0  0  0  0  0  0  0  0  0  0  0  0
   14.5204    9.8925    3.0070 H   0  0  0  0  0  0  0  0  0  0  0  0
   12.4682    7.8402    3.7472 H   0  0  0  0  0  0  0  0  0  0  0  0
   11.2114    7.5937    1.0342 H   0  0  0  0  0  0  0  0  0  0  0  0
   11.4054    6.3675    2.3226 H   0  0  0  0  0  0  0  0  0  0  0  0
    9.5615    7.2690    3.5435 H   0  0  0  0  0  0  0  0  0  0  0  0
    9.0528    7.2375    1.8233 H   0  0  0  0  0  0  0  0  0  0  0  0
    9.7212    9.5611    1.6190 H   0  0  0  0  0  0  0  0  0  0  0  0
    7.6562    9.5238    4.8629 H   0  0  0  0  0  0  0  0  0  0  0  0
    5.7793   11.0969    3.2708 H   0  0  0  0  0  0  0  0  0  0  0  0
    5.2537    9.3880    3.1857 H   0  0  0  0  0  0  0  0  0  0  0  0
    4.4183    8.2233    5.1846 H   0  0  0  0  0  0  0  0  0  0  0  0
    3.3412    8.4537    7.3946 H   0  0  0  0  0  0  0  0  0  0  0  0
    3.4574   10.6053    8.6204 H   0  0  0  0  0  0  0  0  0  0  0  0
    4.6501   12.5380    7.6265 H   0  0  0  0  0  0  0  0  0  0  0  0
    5.7334   12.3267    5.4168 H   0  0  0  0  0  0  0  0  0  0  0  0
   10.1475   11.1030    3.3905 H   0  0  0  0  0  0  0  0  0  0  0  0
   10.2328    9.7355    4.5504 H   0  0  0  0  0  0  0  0  0  0  0  0
   12.4712   10.1524    3.9655 H   0  0  0  0  0  0  0  0  0  0  0  0
   12.0633   10.4405    2.2527 H   0  0  0  0  0  0  0  0  0  0  0  0
  1  2  1  0
  2  3  1  0
  2  4  1  0
  4  5  1  0
  5  6  1  0
  6  7  1  0
  7  8  1  0
  8  9  2  0
  8 10  1  0
 10 11  1  0
 11 12  1  0
 12 13  2  0
 13 14  1  0
 14 15  2  0
 15 16  1  0
 16 17  2  0
  7 18  1  0
 18 19  1  0
 19  4  1  0
 17 12  1  0
  1 20  1  0
  1 21  1  0
  1 22  1  0
  2 23  1  0
  3 24  1  0
  3 25  1  0
  3 26  1  0
  4 27  1  0
  5 28  1  0
  5 29  1  0
  6 30  1  0
  6 31  1  0
  7 32  1  0
 10 33  1  0
 11 34  1  0
 11 35  1  0
 13 36  1  0
 14 37  1  0
 15 38  1  0
 16 39  1  0
 17 40  1  0
 18 41  1  0
 18 42  1  0
 19 43  1  0
 19 44  1  0
M  CHG  1   3   1
M  END
>  <EmbedRMS>  (210) 
0.2846631031672363

$$$$

     RDKit          3D

 44 45  0  0  0  0  0  0  0  0999 V2000
   14.0106    7.0506    1.2529 C   0  0  0  0  0  0  0  0  0  0  0  0
   13.6001    8.3244    1.9899 C   0  0  0  0  0  0  0  0  0  0  0  0
   14.7022    8.8917    2.7695 N   0  0  0  0  0  4  0  0  0  0  0  0
   12.2608    8.3275    2.7676 C   0  0  0  0  0  0  0  0  0  0  0  0
   11.1783    7.4408    2.1351 C   0  0  0  0  0  0  0  0  0  0  0  0
    9.7434    7.7273    2.5461 C   0  0  0  0  0  0  0  0  0  0  0  0
    9.4484    9.2031    2.6420 C   0  0  0  0  0  0  0  0  0  0  0  0
    7.9862    9.5293    2.7260 C   0  0  0  0  0  0  0  0  0  0  0  0
    7.4178    9.6826    1.6172 O   0  0  0  0  0  0  0  0  0  0  0  0
    7.2162    9.6914    3.9303 N   0  0  0  0  0  0  0  0  0  0  0  0
    5.8078   10.0987    3.8073 C   0  0  0  0  0  0  0  0  0  0  0  0
    5.1545   10.2653    5.1404 C   0  0  0  0  0  0  0  0  0  0  0  0
    4.4410    9.3005    5.8244 C   0  0  0  0  0  0  0  0  0  0  0  0
    4.0350    9.7900    7.0130 N   0  0  0  0  0  0  0  0  0  0  0  0
    4.4801   11.0584    7.1034 C   0  0  0  0  0  0  0  0  0  0  0  0
    5.1753   11.3772    5.9590 C   0  0  0  0  0  0  0  0  0  0  0  0
    5.8080   12.6293    5.6970 N   0  0  0  0  0  0  0  0  0  0  0  0
   10.3854   10.0205    3.4864 C   0  0  0  0  0  0  0  0  0  0  0  0
   11.8490    9.7810    3.1224 C   0  0  0  0  0  0  0  0  0  0  0  0
   14.9816    7.1933    0.7324 H   0  0  0  0  0  0  0  0  0  0  0  0
   14.1174    6.2180    1.9796 H   0  0  0  0  0  0  0  0  0  0  0  0
   13.2659    6.7641    0.4823 H   0  0  0  0  0  0  0  0  0  0  0  0
   13.4358    9.0286    1.1412 H   0  0  0  0  0  0  0  0  0  0  0  0
   14.8375    8.3418    3.6487 H   0  0  0  0  0  0  0  0  0  0  0  0
   15.5917    8.8666    2.2196 H   0  0  0  0  0  0  0  0  0  0  0  0
   14.5204    9.8924    3.0070 H   0  0  0  0  0  0  0  0  0  0  0  0
   12.4681    7.8404    3.7472 H   0  0  0  0  0  0  0  0  0  0  0  0
   11.2114    7.5939    1.0341 H   0  0  0  0  0  0  0  0  0  0  0  0
   11.4048    6.3678    2.3228 H   0  0  0  0  0  0  0  0  0  0  0  0
    9.5608    7.2701    3.5431 H   0  0  0  0  0  0  0  0  0  0  0  0
    9.0525    7.2387    1.8227 H   0  0  0  0  0  0  0  0  0  0  0  0
    9.7210    9.5625    1.6185 H   0  0  0  0  0  0  0  0  0  0  0  0
    7.6650    9.5507    4.8635 H   0  0  0  0  0  0  0  0  0  0  0  0
    5.7392   11.0509    3.2394 H   0  0  0  0  0  0  0  0  0  0  0  0
    5.2537    9.3260    3.2312 H   0  0  0  0  0  0  0  0  0  0  0  0
    4.2382    8.2945    5.4803 H   0  0  0  0  0  0  0  0  0  0  0  0
    3.4817    9.2775    7.7347 H   0  0  0  0  0  0  0  0  0  0  0  0
    4.3116   11.7073    7.9530 H   0  0  0  0  0  0  0  0  0  0  0  0
    6.3519   12.7920    4.8213 H   0  0  0  0  0  0  0  0  0  0  0  0
    6.3521   12.7924    4.8214 H   0  0  0  0  0  0  0  0  0  0  0  0
   10.1480   11.1037    3.3910 H   0  0  0  0  0  0  0  0  0  0  0  0
   10.2330    9.7357    4.5502 H   0  0  0  0  0  0  0  0  0  0  0  0
   12.4714   10.1526    3.9654 H   0  0  0  0  0  0  0  0  0  0  0  0
   12.0635   10.4407    2.2527 H   0  0  0  0  0  0  0  0  0  0  0  0
  1  2  1  0
  2  3  1  0
  2  4  1  0
  4  5  1  0
  5  6  1  0
  6  7  1  0
  7  8  1  0
  8  9  2  0
  8 10  1  0
 10 11  1  0
 11 12  1  0
 12 13  2  0
 13 14  1  0
 14 15  1  0
 15 16  2  0
 16 17  1  0
  7 18  1  0
 18 19  1  0
 19  4  1  0
 16 12  1  0
  1 20  1  0
  1 21  1  0
  1 22  1  0
  2 23  1  0
  3 24  1  0
  3 25  1  0
  3 26  1  0
  4 27  1  0
  5 28  1  0
  5 29  1  0
  6 30  1  0
  6 31  1  0
  7 32  1  0
 10 33  1  0
 11 34  1  0
 11 35  1  0
 13 36  1  0
 14 37  1  0
 15 38  1  0
 17 39  1  0
 17 40  1  0
 18 41  1  0
 18 42  1  0
 19 43  1  0
 19 44  1  0
M  CHG  1   3   1
M  END
>  <EmbedRMS>  (211) 
0.2848972241218716

$$$$

     RDKit          3D

 39 40  0  0  0  0  0  0  0  0999 V2000
   14.0110    7.0511    1.2526 C   0  0  0  0  0  0  0  0  0  0  0  0
   13.6007    8.3248    1.9901 C   0  0  0  0  0  0  0  0  0  0  0  0
   14.7033    8.8921    2.7690 N   0  0  0  0  0  4  0  0  0  0  0  0
   12.2625    8.3270    2.7691 C   0  0  0  0  0  0  0  0  0  0  0  0
   11.1802    7.4398    2.1370 C   0  0  0  0  0  0  0  0  0  0  0  0
    9.7464    7.7250    2.5506 C   0  0  0  0  0  0  0  0  0  0  0  0
    9.4528    9.2006    2.6508 C   0  0  0  0  0  0  0  0  0  0  0  0
    7.9907    9.5272    2.7197 C   0  0  0  0  0  0  0  0  0  0  0  0
    7.4511    9.6605    1.5982 O   0  0  0  0  0  0  0  0  0  0  0  0
    7.2032    9.6917    3.9188 N   0  0  0  0  0  0  0  0  0  0  0  0
    5.8190   10.1244    3.8864 C   0  0  0  0  0  0  0  0  0  0  0  0
    5.0492   10.4501    2.7707 C   0  0  0  0  0  0  0  0  0  0  0  0
    3.8118   10.8137    3.2504 C   0  0  0  0  0  0  0  0  0  0  0  0
    3.7917   10.7296    4.5924 N   0  0  0  0  0  0  0  0  0  0  0  0
    5.0092   10.3116    4.9903 C   0  0  0  0  0  0  0  0  0  0  0  0
   10.3879   10.0193    3.4937 C   0  0  0  0  0  0  0  0  0  0  0  0
   11.8511    9.7804    3.1265 C   0  0  0  0  0  0  0  0  0  0  0  0
   13.2659    6.7648    0.4822 H   0  0  0  0  0  0  0  0  0  0  0  0
   14.9817    7.1940    0.7316 H   0  0  0  0  0  0  0  0  0  0  0  0
   14.1182    6.2183    1.9789 H   0  0  0  0  0  0  0  0  0  0  0  0
   13.4353    9.0292    1.1418 H   0  0  0  0  0  0  0  0  0  0  0  0
   14.5218    9.8930    3.0061 H   0  0  0  0  0  0  0  0  0  0  0  0
   15.5925    8.8665    2.2188 H   0  0  0  0  0  0  0  0  0  0  0  0
   14.8389    8.3426    3.6484 H   0  0  0  0  0  0  0  0  0  0  0  0
   12.4711    7.8390    3.7480 H   0  0  0  0  0  0  0  0  0  0  0  0
   11.2117    7.5939    1.0361 H   0  0  0  0  0  0  0  0  0  0  0  0
   11.4077    6.3669    2.3236 H   0  0  0  0  0  0  0  0  0  0  0  0
    9.0547    7.2379    1.8268 H   0  0  0  0  0  0  0  0  0  0  0  0
    9.5649    7.2656    3.5467 H   0  0  0  0  0  0  0  0  0  0  0  0
    9.7356    9.5600    1.6294 H   0  0  0  0  0  0  0  0  0  0  0  0
    7.6552    9.5149    4.8435 H   0  0  0  0  0  0  0  0  0  0  0  0
    5.3065   10.4537    1.7245 H   0  0  0  0  0  0  0  0  0  0  0  0
    2.9693   11.1301    2.6494 H   0  0  0  0  0  0  0  0  0  0  0  0
    2.9817   10.9503    5.2127 H   0  0  0  0  0  0  0  0  0  0  0  0
    5.2923   10.1545    6.0229 H   0  0  0  0  0  0  0  0  0  0  0  0
   10.1492   11.1022    3.3982 H   0  0  0  0  0  0  0  0  0  0  0  0
   10.2369    9.7340    4.5575 H   0  0  0  0  0  0  0  0  0  0  0  0
   12.4748   10.1510    3.9689 H   0  0  0  0  0  0  0  0  0  0  0  0
   12.0642   10.4412    2.2573 H   0  0  0  0  0  0  0  0  0  0  0  0
  1  2  1  0
  2  3  1  0
  2  4  1  0
  4  5  1  0
  5  6  1  0
  6  7  1  0
  7  8  1  0
  8  9  2  0
  8 10  1  0
 10 11  1  0
 11 12  1  0
 12 13  2  0
 13 14  1  0
 14 15  1  0
  7 16  1  0
 16 17  1  0
 17  4  1  0
 15 11  2  0
  1 18  1  0
  1 19  1  0
  1 20  1  0
  2 21  1  0
  3 22  1  0
  3 23  1  0
  3 24  1  0
  4 25  1  0
  5 26  1  0
  5 27  1  0
  6 28  1  0
  6 29  1  0
  7 30  1  0
 10 31  1  0
 12 32  1  0
 13 33  1  0
 14 34  1  0
 15 35  1  0
 16 36  1  0
 16 37  1  0
 17 38  1  0
 17 39  1  0
M  CHG  1   3   1
M  END
>  <EmbedRMS>  (212) 
0.3005329260886256

$$$$

     RDKit          3D

 40 40  0  0  0  0  0  0  0  0999 V2000
   13.9238    7.3281    1.0387 C   0  0  0  0  0  0  0  0  0  0  0  0
   13.7084    7.9210    2.4415 C   0  0  0  0  0  0  0  0  0  0  0  0
   14.6430    9.0270    2.6700 N   0  0  0  0  0  4  0  0  0  0  0  0
   12.2304    8.2933    2.8214 C   0  0  0  0  0  0  0  0  0  0  0  0
   11.1757    7.4148    2.1501 C   0  0  0  0  0  0  0  0  0  0  0  0
    9.7374    7.7229    2.5356 C   0  0  0  0  0  0  0  0  0  0  0  0
    9.4532    9.2029    2.6242 C   0  0  0  0  0  0  0  0  0  0  0  0
    7.9930    9.5336    2.7195 C   0  0  0  0  0  0  0  0  0  0  0  0
    7.4143    9.6778    1.6162 O   0  0  0  0  0  0  0  0  0  0  0  0
    7.2348    9.6886    3.9308 N   0  0  0  0  0  0  0  0  0  0  0  0
    5.8470   10.1702    3.8752 C   0  0  0  0  0  0  0  0  0  0  0  0
    5.8242   11.6584    3.6219 C   0  0  0  0  0  0  0  0  0  0  0  0
    5.7732   12.1629    2.2848 N   0  0  0  0  0  0  0  0  0  0  0  0
    5.9467   12.4947    4.6052 N   0  0  0  0  0  4  0  0  0  0  0  0
   10.4247   10.0504    3.4142 C   0  0  0  0  0  0  0  0  0  0  0  0
   11.8797    9.7840    2.9969 C   0  0  0  0  0  0  0  0  0  0  0  0
   13.3798    6.3671    0.9253 H   0  0  0  0  0  0  0  0  0  0  0  0
   15.0009    7.1186    0.8658 H   0  0  0  0  0  0  0  0  0  0  0  0
   13.5738    8.0443    0.2655 H   0  0  0  0  0  0  0  0  0  0  0  0
   14.0122    7.0971    3.1303 H   0  0  0  0  0  0  0  0  0  0  0  0
   14.4343    9.8271    2.0298 H   0  0  0  0  0  0  0  0  0  0  0  0
   14.5984    9.3376    3.6672 H   0  0  0  0  0  0  0  0  0  0  0  0
   15.6239    8.7089    2.4931 H   0  0  0  0  0  0  0  0  0  0  0  0
   12.1637    7.9502    3.8812 H   0  0  0  0  0  0  0  0  0  0  0  0
   11.2487    7.5623    1.0510 H   0  0  0  0  0  0  0  0  0  0  0  0
   11.3822    6.3417    2.3595 H   0  0  0  0  0  0  0  0  0  0  0  0
    9.0529    7.2381    1.8037 H   0  0  0  0  0  0  0  0  0  0  0  0
    9.5332    7.2722    3.5314 H   0  0  0  0  0  0  0  0  0  0  0  0
    9.7047    9.5352    1.5862 H   0  0  0  0  0  0  0  0  0  0  0  0
    7.6852    9.5007    4.8542 H   0  0  0  0  0  0  0  0  0  0  0  0
    5.3426    9.9455    4.8398 H   0  0  0  0  0  0  0  0  0  0  0  0
    5.2816    9.6309    3.0848 H   0  0  0  0  0  0  0  0  0  0  0  0
    5.6166   11.5231    1.4756 H   0  0  0  0  0  0  0  0  0  0  0  0
    5.8366   13.1897    2.1049 H   0  0  0  0  0  0  0  0  0  0  0  0
    6.0312   12.1734    5.5956 H   0  0  0  0  0  0  0  0  0  0  0  0
    6.0311   12.1729    5.5954 H   0  0  0  0  0  0  0  0  0  0  0  0
   10.3082    9.8086    4.4928 H   0  0  0  0  0  0  0  0  0  0  0  0
   10.1925   11.1302    3.2796 H   0  0  0  0  0  0  0  0  0  0  0  0
   12.5382   10.2606    3.7536 H   0  0  0  0  0  0  0  0  0  0  0  0
   12.0592   10.2954    2.0263 H   0  0  0  0  0  0  0  0  0  0  0  0
  1  2  1  0
  2  3  1  0
  2  4  1  0
  4  5  1  0
  5  6  1  0
  6  7  1  0
  7  8  1  0
  8  9  2  0
  8 10  1  0
 10 11  1  0
 11 12  1  0
 12 13  1  0
 12 14  2  3
  7 15  1  0
 15 16  1  0
 16  4  1  0
  1 17  1  0
  1 18  1  0
  1 19  1  0
  2 20  1  0
  3 21  1  0
  3 22  1  0
  3 23  1  0
  4 24  1  0
  5 25  1  0
  5 26  1  0
  6 27  1  0
  6 28  1  0
  7 29  1  0
 10 30  1  0
 11 31  1  0
 11 32  1  0
 13 33  1  0
 13 34  1  0
 14 35  1  0
 14 36  1  0
 15 37  1  0
 15 38  1  0
 16 39  1  0
 16 40  1  0
M  CHG  2   3   1  14   1
M  END
>  <EmbedRMS>  (213) 
0.2782345982766255

$$$$

     RDKit          3D

 45 45  0  0  0  0  0  0  0  0999 V2000
    6.6426   12.2821    2.6516 C   0  0  0  0  0  0  0  0  0  0  0  0
    5.6157   11.5113    3.0196 C   0  0  0  0  0  0  0  0  0  0  0  0
    4.2139   11.9100    2.6324 C   0  0  0  0  0  0  0  0  0  0  0  0
    5.8597   10.3523    3.9284 C   0  0  0  0  0  0  0  0  0  0  0  0
    4.8899    9.9517    4.7721 C   0  0  0  0  0  0  0  0  0  0  0  0
    5.0638    8.8198    5.7367 C   0  0  0  0  0  0  0  0  0  0  0  0
    7.1587    9.7297    4.0017 N   0  0  0  0  0  0  0  0  0  0  0  0
    8.0094    9.4770    2.8770 C   0  0  0  0  0  0  0  0  0  0  0  0
    7.5925    9.6699    1.6995 O   0  0  0  0  0  0  0  0  0  0  0  0
    9.4190    8.9882    3.1140 C   0  0  0  0  0  0  0  0  0  0  0  0
    9.7814    7.9392    2.0698 C   0  0  0  0  0  0  0  0  0  0  0  0
   11.1442    7.3173    2.3173 C   0  0  0  0  0  0  0  0  0  0  0  0
   12.2312    8.2990    2.7947 C   0  0  0  0  0  0  0  0  0  0  0  0
   13.7088    7.9146    2.4295 C   0  0  0  0  0  0  0  0  0  0  0  0
   13.9319    7.3320    1.0257 C   0  0  0  0  0  0  0  0  0  0  0  0
   14.6475    9.0159    2.6730 N   0  0  0  0  0  4  0  0  0  0  0  0
   11.8850    9.7892    2.9963 C   0  0  0  0  0  0  0  0  0  0  0  0
   10.3931   10.1701    3.0593 C   0  0  0  0  0  0  0  0  0  0  0  0
    6.5060   13.1634    2.0375 H   0  0  0  0  0  0  0  0  0  0  0  0
    6.5060   13.1634    2.0375 H   0  0  0  0  0  0  0  0  0  0  0  0
    4.2031   12.4754    1.6757 H   0  0  0  0  0  0  0  0  0  0  0  0
    3.5836   11.0078    2.4847 H   0  0  0  0  0  0  0  0  0  0  0  0
    3.7720   12.5450    3.4286 H   0  0  0  0  0  0  0  0  0  0  0  0
    3.9254   10.4428    4.7786 H   0  0  0  0  0  0  0  0  0  0  0  0
    5.3803    7.9015    5.1981 H   0  0  0  0  0  0  0  0  0  0  0  0
    5.8159    9.0848    6.5090 H   0  0  0  0  0  0  0  0  0  0  0  0
    4.0999    8.6139    6.2477 H   0  0  0  0  0  0  0  0  0  0  0  0
    7.5134    9.4348    4.9389 H   0  0  0  0  0  0  0  0  0  0  0  0
    9.4838    8.5152    4.1195 H   0  0  0  0  0  0  0  0  0  0  0  0
    9.7856    8.4081    1.0593 H   0  0  0  0  0  0  0  0  0  0  0  0
    9.0155    7.1315    2.0616 H   0  0  0  0  0  0  0  0  0  0  0  0
   11.4284    6.8358    1.3632 H   0  0  0  0  0  0  0  0  0  0  0  0
   11.0277    6.4824    3.0472 H   0  0  0  0  0  0  0  0  0  0  0  0
   12.2338    8.0276    3.8788 H   0  0  0  0  0  0  0  0  0  0  0  0
   14.0054    7.0847    3.1155 H   0  0  0  0  0  0  0  0  0  0  0  0
   13.5346    6.2977    0.9557 H   0  0  0  0  0  0  0  0  0  0  0  0
   13.4427    7.9752    0.2638 H   0  0  0  0  0  0  0  0  0  0  0  0
   15.0164    7.2729    0.7928 H   0  0  0  0  0  0  0  0  0  0  0  0
   14.5093    9.7854    1.9790 H   0  0  0  0  0  0  0  0  0  0  0  0
   14.5387    9.3811    3.6464 H   0  0  0  0  0  0  0  0  0  0  0  0
   15.6306    8.6688    2.5853 H   0  0  0  0  0  0  0  0  0  0  0  0
   12.3172   10.3488    2.1397 H   0  0  0  0  0  0  0  0  0  0  0  0
   12.3886   10.1897    3.9059 H   0  0  0  0  0  0  0  0  0  0  0  0
   10.1546   10.7911    2.1654 H   0  0  0  0  0  0  0  0  0  0  0  0
   10.2174   10.8183    3.9465 H   0  0  0  0  0  0  0  0  0  0  0  0
  1  2  2  3
  2  3  1  0
  2  4  1  0
  4  5  2  3
  5  6  1  0
  4  7  1  0
  7  8  1  0
  8  9  2  0
  8 10  1  0
 10 11  1  0
 11 12  1  0
 12 13  1  0
 13 14  1  0
 14 15  1  0
 14 16  1  0
 13 17  1  0
 17 18  1  0
 18 10  1  0
  1 19  1  0
  1 20  1  0
  3 21  1  0
  3 22  1  0
  3 23  1  0
  5 24  1  0
  6 25  1  0
  6 26  1  0
  6 27  1  0
  7 28  1  0
 10 29  1  0
 11 30  1  0
 11 31  1  0
 12 32  1  0
 12 33  1  0
 13 34  1  0
 14 35  1  0
 15 36  1  0
 15 37  1  0
 15 38  1  0
 16 39  1  0
 16 40  1  0
 16 41  1  0
 17 42  1  0
 17 43  1  0
 18 44  1  0
 18 45  1  0
M  CHG  1  16   1
M  END
>  <EmbedRMS>  (214) 
0.16480955270904202

$$$$

     RDKit          3D

 37 38  0  0  0  0  0  0  0  0999 V2000
   13.9219    7.3285    1.0387 C   0  0  0  0  0  0  0  0  0  0  0  0
   13.7067    7.9214    2.4415 C   0  0  0  0  0  0  0  0  0  0  0  0
   14.6417    9.0271    2.6701 N   0  0  0  0  0  4  0  0  0  0  0  0
   12.2285    8.2939    2.8220 C   0  0  0  0  0  0  0  0  0  0  0  0
   11.1727    7.4167    2.1509 C   0  0  0  0  0  0  0  0  0  0  0  0
    9.7341    7.7234    2.5396 C   0  0  0  0  0  0  0  0  0  0  0  0
    9.4472    9.2032    2.6372 C   0  0  0  0  0  0  0  0  0  0  0  0
    7.9834    9.5376    2.7259 C   0  0  0  0  0  0  0  0  0  0  0  0
    7.4227    9.6849    1.6132 O   0  0  0  0  0  0  0  0  0  0  0  0
    7.2074    9.6922    3.9340 N   0  0  0  0  0  0  0  0  0  0  0  0
    5.8246   10.1226    3.8837 C   0  0  0  0  0  0  0  0  0  0  0  0
    5.1592   10.4084    2.7447 N   0  0  0  0  0  0  0  0  0  0  0  0
    3.9363   10.7774    3.0931 N   0  0  0  0  0  0  0  0  0  0  0  0
    3.8762   10.7120    4.4376 C   0  0  0  0  0  0  0  0  0  0  0  0
    5.0469   10.3040    4.9654 N   0  0  0  0  0  0  0  0  0  0  0  0
   10.4233   10.0510    3.4212 C   0  0  0  0  0  0  0  0  0  0  0  0
   11.8776    9.7845    2.9986 C   0  0  0  0  0  0  0  0  0  0  0  0
   13.5726    8.0452    0.2656 H   0  0  0  0  0  0  0  0  0  0  0  0
   13.3769    6.3682    0.9250 H   0  0  0  0  0  0  0  0  0  0  0  0
   14.9989    7.1181    0.8659 H   0  0  0  0  0  0  0  0  0  0  0  0
   14.0105    7.0973    3.1301 H   0  0  0  0  0  0  0  0  0  0  0  0
   14.5981    9.3366    3.6677 H   0  0  0  0  0  0  0  0  0  0  0  0
   14.4319    9.8280    2.0314 H   0  0  0  0  0  0  0  0  0  0  0  0
   15.6224    8.7094    2.4916 H   0  0  0  0  0  0  0  0  0  0  0  0
   12.1622    7.9502    3.8816 H   0  0  0  0  0  0  0  0  0  0  0  0
   11.2442    7.5662    1.0519 H   0  0  0  0  0  0  0  0  0  0  0  0
   11.3799    6.3432    2.3578 H   0  0  0  0  0  0  0  0  0  0  0  0
    9.0487    7.2417    1.8064 H   0  0  0  0  0  0  0  0  0  0  0  0
    9.5311    7.2676    3.5333 H   0  0  0  0  0  0  0  0  0  0  0  0
    9.7019    9.5362    1.5999 H   0  0  0  0  0  0  0  0  0  0  0  0
    7.6589    9.5181    4.8593 H   0  0  0  0  0  0  0  0  0  0  0  0
    2.9978   10.9574    5.0195 H   0  0  0  0  0  0  0  0  0  0  0  0
    5.2901   10.1663    5.9712 H   0  0  0  0  0  0  0  0  0  0  0  0
   10.3109    9.8101    4.5005 H   0  0  0  0  0  0  0  0  0  0  0  0
   10.1908   11.1307    3.2870 H   0  0  0  0  0  0  0  0  0  0  0  0
   12.5384   10.2613    3.7530 H   0  0  0  0  0  0  0  0  0  0  0  0
   12.0539   10.2958    2.0274 H   0  0  0  0  0  0  0  0  0  0  0  0
  1  2  1  0
  2  3  1  0
  2  4  1  0
  4  5  1  0
  5  6  1  0
  6  7  1  0
  7  8  1  0
  8  9  2  0
  8 10  1  0
 10 11  1  0
 11 12  2  0
 12 13  1  0
 13 14  2  0
 14 15  1  0
  7 16  1  0
 16 17  1  0
 17  4  1  0
 15 11  1  0
  1 18  1  0
  1 19  1  0
  1 20  1  0
  2 21  1  0
  3 22  1  0
  3 23  1  0
  3 24  1  0
  4 25  1  0
  5 26  1  0
  5 27  1  0
  6 28  1  0
  6 29  1  0
  7 30  1  0
 10 31  1  0
 14 32  1  0
 15 33  1  0
 16 34  1  0
 16 35  1  0
 17 36  1  0
 17 37  1  0
M  CHG  1   3   1
M  END
>  <EmbedRMS>  (215) 
0.2677829583944835

$$$$

     RDKit          3D

 34 34  0  0  0  0  0  0  0  0999 V2000
    5.8329   10.1084    3.8848 C   0  0  0  0  0  0  0  0  0  0  0  0
    7.2300    9.6721    3.9456 N   0  0  0  0  0  0  0  0  0  0  0  0
    7.9825    9.5176    2.7336 C   0  0  0  0  0  0  0  0  0  0  0  0
    7.4038    9.6808    1.6309 O   0  0  0  0  0  0  0  0  0  0  0  0
    9.4450    9.1949    2.6523 C   0  0  0  0  0  0  0  0  0  0  0  0
    9.7659    7.7145    2.4310 C   0  0  0  0  0  0  0  0  0  0  0  0
   11.2645    7.3643    2.5394 C   0  0  0  0  0  0  0  0  0  0  0  0
   12.1440    8.5865    2.2316 C   0  0  0  0  0  0  0  0  0  0  0  0
   13.6550    8.3396    1.9330 C   0  0  0  0  0  0  0  0  0  0  0  0
   14.0142    7.0445    1.2245 C   0  0  0  0  0  0  0  0  0  0  0  0
   14.6175    8.7737    2.9400 N   0  0  0  0  0  4  0  0  0  0  0  0
   11.8902    9.6847    3.2842 C   0  0  0  0  0  0  0  0  0  0  0  0
   10.4057   10.0818    3.4290 C   0  0  0  0  0  0  0  0  0  0  0  0
    5.7674   11.1015    3.3922 H   0  0  0  0  0  0  0  0  0  0  0  0
    5.4215   10.1915    4.9127 H   0  0  0  0  0  0  0  0  0  0  0  0
    5.2299    9.3684    3.3173 H   0  0  0  0  0  0  0  0  0  0  0  0
    7.6848    9.4991    4.8697 H   0  0  0  0  0  0  0  0  0  0  0  0
    9.6804    9.5858    1.6329 H   0  0  0  0  0  0  0  0  0  0  0  0
    9.2153    7.1145    3.1879 H   0  0  0  0  0  0  0  0  0  0  0  0
    9.3849    7.3947    1.4340 H   0  0  0  0  0  0  0  0  0  0  0  0
   11.4945    7.0012    3.5653 H   0  0  0  0  0  0  0  0  0  0  0  0
   11.4746    6.5314    1.8369 H   0  0  0  0  0  0  0  0  0  0  0  0
   11.7511    8.9795    1.2646 H   0  0  0  0  0  0  0  0  0  0  0  0
   13.8453    9.0650    1.1029 H   0  0  0  0  0  0  0  0  0  0  0  0
   15.0594    7.0787    0.8480 H   0  0  0  0  0  0  0  0  0  0  0  0
   13.3413    6.8737    0.3566 H   0  0  0  0  0  0  0  0  0  0  0  0
   13.9245    6.1932    1.9314 H   0  0  0  0  0  0  0  0  0  0  0  0
   15.5929    8.5546    2.6319 H   0  0  0  0  0  0  0  0  0  0  0  0
   14.5663    9.8048    3.1021 H   0  0  0  0  0  0  0  0  0  0  0  0
   14.4328    8.2662    3.8350 H   0  0  0  0  0  0  0  0  0  0  0  0
   12.2711    9.3420    4.2714 H   0  0  0  0  0  0  0  0  0  0  0  0
   12.4559   10.5993    3.0033 H   0  0  0  0  0  0  0  0  0  0  0  0
   10.1327   10.0263    4.5050 H   0  0  0  0  0  0  0  0  0  0  0  0
   10.2681   11.1447    3.1242 H   0  0  0  0  0  0  0  0  0  0  0  0
  1  2  1  0
  2  3  1  0
  3  4  2  0
  3  5  1  0
  5  6  1  0
  6  7  1  0
  7  8  1  0
  8  9  1  0
  9 10  1  0
  9 11  1  0
  8 12  1  0
 12 13  1  0
 13  5  1  0
  1 14  1  0
  1 15  1  0
  1 16  1  0
  2 17  1  0
  5 18  1  0
  6 19  1  0
  6 20  1  0
  7 21  1  0
  7 22  1  0
  8 23  1  0
  9 24  1  0
 10 25  1  0
 10 26  1  0
 10 27  1  0
 11 28  1  0
 11 29  1  0
 11 30  1  0
 12 31  1  0
 12 32  1  0
 13 33  1  0
 13 34  1  0
M  CHG  1  11   1
M  END
>  <EmbedRMS>  (216) 
0.29639754771625826

$$$$

     RDKit          3D

 37 38  0  0  0  0  0  0  0  0999 V2000
   13.9235    7.3287    1.0383 C   0  0  0  0  0  0  0  0  0  0  0  0
   13.7098    7.9211    2.4415 C   0  0  0  0  0  0  0  0  0  0  0  0
   14.6443    9.0272    2.6694 N   0  0  0  0  0  4  0  0  0  0  0  0
   12.2325    8.2929    2.8236 C   0  0  0  0  0  0  0  0  0  0  0  0
   11.1771    7.4148    2.1531 C   0  0  0  0  0  0  0  0  0  0  0  0
    9.7401    7.7207    2.5441 C   0  0  0  0  0  0  0  0  0  0  0  0
    9.4572    9.2004    2.6440 C   0  0  0  0  0  0  0  0  0  0  0  0
    7.9962    9.5344    2.7137 C   0  0  0  0  0  0  0  0  0  0  0  0
    7.4604    9.6567    1.5906 O   0  0  0  0  0  0  0  0  0  0  0  0
    7.2001    9.7023    3.9071 N   0  0  0  0  0  0  0  0  0  0  0  0
    5.8435   10.1214    3.8525 N   0  0  0  0  0  0  0  0  0  0  0  0
    5.0825   10.4462    2.7798 C   0  0  0  0  0  0  0  0  0  0  0  0
    3.8482   10.8133    3.1585 N   0  0  0  0  0  0  0  0  0  0  0  0
    3.8053   10.7315    4.4798 N   0  0  0  0  0  0  0  0  0  0  0  0
    5.0182   10.3131    4.8968 C   0  0  0  0  0  0  0  0  0  0  0  0
   10.4286   10.0498    3.4285 C   0  0  0  0  0  0  0  0  0  0  0  0
   11.8822    9.7839    3.0040 C   0  0  0  0  0  0  0  0  0  0  0  0
   15.0004    7.1195    0.8638 H   0  0  0  0  0  0  0  0  0  0  0  0
   13.3795    6.3678    0.9251 H   0  0  0  0  0  0  0  0  0  0  0  0
   13.5723    8.0453    0.2658 H   0  0  0  0  0  0  0  0  0  0  0  0
   14.0150    7.0969    3.1295 H   0  0  0  0  0  0  0  0  0  0  0  0
   15.6249    8.7102    2.4892 H   0  0  0  0  0  0  0  0  0  0  0  0
   14.6024    9.3360    3.6673 H   0  0  0  0  0  0  0  0  0  0  0  0
   14.4334    9.8284    2.0313 H   0  0  0  0  0  0  0  0  0  0  0  0
   12.1676    7.9479    3.8829 H   0  0  0  0  0  0  0  0  0  0  0  0
   11.2471    7.5647    1.0541 H   0  0  0  0  0  0  0  0  0  0  0  0
   11.3852    6.3414    2.3596 H   0  0  0  0  0  0  0  0  0  0  0  0
    9.5379    7.2639    3.5375 H   0  0  0  0  0  0  0  0  0  0  0  0
    9.0540    7.2402    1.8107 H   0  0  0  0  0  0  0  0  0  0  0  0
    9.7241    9.5327    1.6088 H   0  0  0  0  0  0  0  0  0  0  0  0
    7.6472    9.5316    4.8355 H   0  0  0  0  0  0  0  0  0  0  0  0
    5.3730   10.4515    1.7450 H   0  0  0  0  0  0  0  0  0  0  0  0
    5.2883   10.1560    5.9328 H   0  0  0  0  0  0  0  0  0  0  0  0
   10.3163    9.8079    4.5076 H   0  0  0  0  0  0  0  0  0  0  0  0
   10.1946   11.1292    3.2942 H   0  0  0  0  0  0  0  0  0  0  0  0
   12.5435   10.2587    3.7593 H   0  0  0  0  0  0  0  0  0  0  0  0
   12.0584   10.2977    2.0341 H   0  0  0  0  0  0  0  0  0  0  0  0
  1  2  1  0
  2  3  1  0
  2  4  1  0
  4  5  1  0
  5  6  1  0
  6  7  1  0
  7  8  1  0
  8  9  2  0
  8 10  1  0
 10 11  1  0
 11 12  1  0
 12 13  2  0
 13 14  1  0
 14 15  2  0
  7 16  1  0
 16 17  1  0
 17  4  1  0
 15 11  1  0
  1 18  1  0
  1 19  1  0
  1 20  1  0
  2 21  1  0
  3 22  1  0
  3 23  1  0
  3 24  1  0
  4 25  1  0
  5 26  1  0
  5 27  1  0
  6 28  1  0
  6 29  1  0
  7 30  1  0
 10 31  1  0
 12 32  1  0
 15 33  1  0
 16 34  1  0
 16 35  1  0
 17 36  1  0
 17 37  1  0
M  CHG  1   3   1
M  END
>  <EmbedRMS>  (217) 
0.2678703586981328

$$$$

     RDKit          3D

 43 44  0  0  0  0  0  0  0  0999 V2000
    5.9315    4.6515    5.9669 C   0  0  0  0  0  0  0  0  0  0  0  0
    6.9031    5.7828    5.9173 C   0  0  0  0  0  0  0  0  0  0  0  0
    6.5099    7.1032    5.6059 C   0  0  0  0  0  0  0  0  0  0  0  0
    7.5714    7.9973    5.6335 C   0  0  0  0  0  0  0  0  0  0  0  0
    7.5353    9.4584    5.3456 C   0  0  0  0  0  0  0  0  0  0  0  0
    7.1668    9.6965    3.9552 N   0  0  0  0  0  0  0  0  0  0  0  0
    7.9749    9.5268    2.7698 C   0  0  0  0  0  0  0  0  0  0  0  0
    7.4112    9.6849    1.6588 O   0  0  0  0  0  0  0  0  0  0  0  0
    9.4442    9.2012    2.6737 C   0  0  0  0  0  0  0  0  0  0  0  0
    9.7429    7.7295    2.4992 C   0  0  0  0  0  0  0  0  0  0  0  0
   11.1860    7.4469    2.1144 C   0  0  0  0  0  0  0  0  0  0  0  0
   12.2652    8.3302    2.7568 C   0  0  0  0  0  0  0  0  0  0  0  0
   13.6085    8.3217    1.9872 C   0  0  0  0  0  0  0  0  0  0  0  0
   14.0177    7.0459    1.2536 C   0  0  0  0  0  0  0  0  0  0  0  0
   14.7080    8.8883    2.7710 N   0  0  0  0  0  4  0  0  0  0  0  0
   11.8556    9.7858    3.0884 C   0  0  0  0  0  0  0  0  0  0  0  0
   10.4098   10.0004    3.5064 C   0  0  0  0  0  0  0  0  0  0  0  0
    8.9050    7.1042    6.0657 S   0  0  0  0  0  0  0  0  0  0  0  0
    8.2191    5.5989    6.2053 N   0  0  0  0  0  0  0  0  0  0  0  0
    5.2850    4.6681    5.0643 H   0  0  0  0  0  0  0  0  0  0  0  0
    6.4701    3.6809    6.0015 H   0  0  0  0  0  0  0  0  0  0  0  0
    5.2979    4.7465    6.8732 H   0  0  0  0  0  0  0  0  0  0  0  0
    5.4940    7.3881    5.3636 H   0  0  0  0  0  0  0  0  0  0  0  0
    6.7655    9.9129    6.0060 H   0  0  0  0  0  0  0  0  0  0  0  0
    8.4874    9.9558    5.5990 H   0  0  0  0  0  0  0  0  0  0  0  0
    6.1804   10.0061    3.7974 H   0  0  0  0  0  0  0  0  0  0  0  0
    9.7022    9.5932    1.6584 H   0  0  0  0  0  0  0  0  0  0  0  0
    9.5301    7.2058    3.4466 H   0  0  0  0  0  0  0  0  0  0  0  0
    9.0683    7.2885    1.7310 H   0  0  0  0  0  0  0  0  0  0  0  0
   11.4108    6.3732    2.2999 H   0  0  0  0  0  0  0  0  0  0  0  0
   11.2331    7.6040    1.0146 H   0  0  0  0  0  0  0  0  0  0  0  0
   12.4612    7.8500    3.7421 H   0  0  0  0  0  0  0  0  0  0  0  0
   13.4519    9.0242    1.1355 H   0  0  0  0  0  0  0  0  0  0  0  0
   14.1156    6.2132    1.9815 H   0  0  0  0  0  0  0  0  0  0  0  0
   14.9929    7.1832    0.7397 H   0  0  0  0  0  0  0  0  0  0  0  0
   13.2780    6.7618    0.4772 H   0  0  0  0  0  0  0  0  0  0  0  0
   14.8226    8.3557    3.6636 H   0  0  0  0  0  0  0  0  0  0  0  0
   14.5393    9.8970    2.9833 H   0  0  0  0  0  0  0  0  0  0  0  0
   15.6052    8.8382    2.2358 H   0  0  0  0  0  0  0  0  0  0  0  0
   12.5028   10.1855    3.8992 H   0  0  0  0  0  0  0  0  0  0  0  0
   12.0242   10.4266    2.1949 H   0  0  0  0  0  0  0  0  0  0  0  0
   10.3386    9.6558    4.5555 H   0  0  0  0  0  0  0  0  0  0  0  0
   10.1581   11.0838    3.4722 H   0  0  0  0  0  0  0  0  0  0  0  0
  1  2  1  0
  2  3  1  0
  3  4  2  0
  4  5  1  0
  5  6  1  0
  6  7  1  0
  7  8  2  0
  7  9  1  0
  9 10  1  0
 10 11  1  0
 11 12  1  0
 12 13  1  0
 13 14  1  0
 13 15  1  0
 12 16  1  0
 16 17  1  0
  4 18  1  0
 18 19  1  0
 19  2  2  0
 17  9  1  0
  1 20  1  0
  1 21  1  0
  1 22  1  0
  3 23  1  0
  5 24  1  0
  5 25  1  0
  6 26  1  0
  9 27  1  0
 10 28  1  0
 10 29  1  0
 11 30  1  0
 11 31  1  0
 12 32  1  0
 13 33  1  0
 14 34  1  0
 14 35  1  0
 14 36  1  0
 15 37  1  0
 15 38  1  0
 15 39  1  0
 16 40  1  0
 16 41  1  0
 17 42  1  0
 17 43  1  0
M  CHG  1  15   1
M  END
>  <EmbedRMS>  (218) 
0.28167996706824416

$$$$
