
     RDKit          3D

 40 41  0  0  0  0  0  0  0  0999 V2000
   13.9332    7.3332    1.0251 C   0  0  0  0  0  0  0  0  0  0  0  0
   13.7125    7.9146    2.4297 C   0  0  0  0  0  0  0  0  0  0  0  0
   14.6504    9.0165    2.6726 N   0  0  0  0  0  4  0  0  0  0  0  0
   12.2364    8.2979    2.7979 C   0  0  0  0  0  0  0  0  0  0  0  0
   11.1515    7.3120    2.3262 C   0  0  0  0  0  0  0  0  0  0  0  0
    9.7912    7.9324    2.0765 C   0  0  0  0  0  0  0  0  0  0  0  0
    9.4261    8.9806    3.1220 C   0  0  0  0  0  0  0  0  0  0  0  0
    8.0225    9.4639    2.8667 C   0  0  0  0  0  0  0  0  0  0  0  0
    7.6546    9.6768    1.6802 O   0  0  0  0  0  0  0  0  0  0  0  0
    7.1435    9.7011    3.9767 N   0  0  0  0  0  0  0  0  0  0  0  0
    5.7719   10.1423    3.9218 C   0  0  0  0  0  0  0  0  0  0  0  0
    5.0682   10.2866    5.1272 C   0  0  0  0  0  0  0  0  0  0  0  0
    3.7425   10.7162    5.1245 C   0  0  0  0  0  0  0  0  0  0  0  0
    3.1199   11.0021    3.9115 C   0  0  0  0  0  0  0  0  0  0  0  0
    3.8030   10.8612    2.7487 N   0  0  0  0  0  0  0  0  0  0  0  0
    5.0935   10.4449    2.7201 C   0  0  0  0  0  0  0  0  0  0  0  0
   10.3969   10.1658    3.0679 C   0  0  0  0  0  0  0  0  0  0  0  0
   11.8884    9.7884    2.9926 C   0  0  0  0  0  0  0  0  0  0  0  0
   13.4390    7.9746    0.2649 H   0  0  0  0  0  0  0  0  0  0  0  0
   13.5402    6.2972    0.9560 H   0  0  0  0  0  0  0  0  0  0  0  0
   15.0172    7.2785    0.7884 H   0  0  0  0  0  0  0  0  0  0  0  0
   14.0108    7.0845    3.1148 H   0  0  0  0  0  0  0  0  0  0  0  0
   14.5446    9.3791    3.6472 H   0  0  0  0  0  0  0  0  0  0  0  0
   14.5091    9.7874    1.9809 H   0  0  0  0  0  0  0  0  0  0  0  0
   15.6338    8.6709    2.5809 H   0  0  0  0  0  0  0  0  0  0  0  0
   12.2424    8.0318    3.8833 H   0  0  0  0  0  0  0  0  0  0  0  0
   11.4353    6.8245    1.3751 H   0  0  0  0  0  0  0  0  0  0  0  0
   11.0353    6.4818    3.0616 H   0  0  0  0  0  0  0  0  0  0  0  0
    9.8005    8.4008    1.0657 H   0  0  0  0  0  0  0  0  0  0  0  0
    9.0262    7.1237    2.0652 H   0  0  0  0  0  0  0  0  0  0  0  0
    9.4833    8.5087    4.1284 H   0  0  0  0  0  0  0  0  0  0  0  0
    7.5457    9.5319    4.9268 H   0  0  0  0  0  0  0  0  0  0  0  0
    5.5478   10.0665    6.0729 H   0  0  0  0  0  0  0  0  0  0  0  0
    3.2017   10.8271    6.0555 H   0  0  0  0  0  0  0  0  0  0  0  0
    2.0913   11.3366    3.8945 H   0  0  0  0  0  0  0  0  0  0  0  0
    5.5409   10.3704    1.7502 H   0  0  0  0  0  0  0  0  0  0  0  0
   10.1534   10.7936    2.1801 H   0  0  0  0  0  0  0  0  0  0  0  0
   10.2256   10.8070    3.9610 H   0  0  0  0  0  0  0  0  0  0  0  0
   12.3112   10.3420    2.1274 H   0  0  0  0  0  0  0  0  0  0  0  0
   12.4001   10.1967    3.8942 H   0  0  0  0  0  0  0  0  0  0  0  0
  1  2  1  0
  2  3  1  0
  2  4  1  0
  4  5  1  0
  5  6  1  0
  6  7  1  0
  7  8  1  0
  8  9  2  0
  8 10  1  0
 10 11  1  0
 11 12  2  0
 12 13  1  0
 13 14  2  0
 14 15  1  0
 15 16  2  0
  7 17  1  0
 17 18  1  0
 18  4  1  0
 16 11  1  0
  1 19  1  0
  1 20  1  0
  1 21  1  0
  2 22  1  0
  3 23  1  0
  3 24  1  0
  3 25  1  0
  4 26  1  0
  5 27  1  0
  5 28  1  0
  6 29  1  0
  6 30  1  0
  7 31  1  0
 10 32  1  0
 12 33  1  0
 13 34  1  0
 14 35  1  0
 16 36  1  0
 17 37  1  0
 17 38  1  0
 18 39  1  0
 18 40  1  0
M  CHG  1   3   1
M  END
>  <EmbedRMS>  (1) 
0.16496192233382964

$$$$

     RDKit          3D

 40 41  0  0  0  0  0  0  0  0999 V2000
   14.0092    7.0506    1.2533 C   0  0  0  0  0  0  0  0  0  0  0  0
   13.5986    8.3245    1.9900 C   0  0  0  0  0  0  0  0  0  0  0  0
   14.7008    8.8919    2.7696 N   0  0  0  0  0  4  0  0  0  0  0  0
   12.2587    8.3280    2.7675 C   0  0  0  0  0  0  0  0  0  0  0  0
   11.1754    7.4414    2.1356 C   0  0  0  0  0  0  0  0  0  0  0  0
    9.7394    7.7279    2.5470 C   0  0  0  0  0  0  0  0  0  0  0  0
    9.4434    9.2038    2.6465 C   0  0  0  0  0  0  0  0  0  0  0  0
    7.9789    9.5345    2.7319 C   0  0  0  0  0  0  0  0  0  0  0  0
    7.4306    9.7485    1.6249 O   0  0  0  0  0  0  0  0  0  0  0  0
    7.1983    9.6523    3.9397 N   0  0  0  0  0  0  0  0  0  0  0  0
    5.7594    9.8221    3.9027 C   0  0  0  0  0  0  0  0  0  0  0  0
    5.0867   10.6481    4.7314 N   0  0  0  0  0  0  0  0  0  0  0  0
    3.8003   10.4497    4.3579 C   0  0  0  0  0  0  0  0  0  0  0  0
    3.6839    9.5415    3.3695 N   0  0  0  0  0  0  0  0  0  0  0  0
    4.9135    9.1464    3.0926 N   0  0  0  0  0  0  0  0  0  0  0  0
    5.2083    8.0709    2.1518 C   0  0  0  0  0  0  0  0  0  0  0  0
   10.3839   10.0206    3.4879 C   0  0  0  0  0  0  0  0  0  0  0  0
   11.8469    9.7816    3.1206 C   0  0  0  0  0  0  0  0  0  0  0  0
   13.2638    6.7634    0.4836 H   0  0  0  0  0  0  0  0  0  0  0  0
   14.9797    7.1934    0.7320 H   0  0  0  0  0  0  0  0  0  0  0  0
   14.1169    6.2183    1.9803 H   0  0  0  0  0  0  0  0  0  0  0  0
   13.4346    9.0284    1.1411 H   0  0  0  0  0  0  0  0  0  0  0  0
   14.5195    9.8931    3.0058 H   0  0  0  0  0  0  0  0  0  0  0  0
   15.5906    8.8656    2.2202 H   0  0  0  0  0  0  0  0  0  0  0  0
   14.8353    8.3431    3.6495 H   0  0  0  0  0  0  0  0  0  0  0  0
   12.4657    7.8417    3.7475 H   0  0  0  0  0  0  0  0  0  0  0  0
   11.4018    6.3685    2.3233 H   0  0  0  0  0  0  0  0  0  0  0  0
   11.2083    7.5943    1.0347 H   0  0  0  0  0  0  0  0  0  0  0  0
    9.0478    7.2416    1.8227 H   0  0  0  0  0  0  0  0  0  0  0  0
    9.5561    7.2685    3.5428 H   0  0  0  0  0  0  0  0  0  0  0  0
    9.7180    9.5615    1.6228 H   0  0  0  0  0  0  0  0  0  0  0  0
    7.6954    9.7719    4.8498 H   0  0  0  0  0  0  0  0  0  0  0  0
    2.9587   10.9571    4.8095 H   0  0  0  0  0  0  0  0  0  0  0  0
    6.1335    7.5316    2.4442 H   0  0  0  0  0  0  0  0  0  0  0  0
    4.3765    7.3351    2.1552 H   0  0  0  0  0  0  0  0  0  0  0  0
    5.3026    8.4810    1.1253 H   0  0  0  0  0  0  0  0  0  0  0  0
   10.2349    9.7353    4.5520 H   0  0  0  0  0  0  0  0  0  0  0  0
   10.1464   11.1039    3.3936 H   0  0  0  0  0  0  0  0  0  0  0  0
   12.0589   10.4399    2.2493 H   0  0  0  0  0  0  0  0  0  0  0  0
   12.4709   10.1551    3.9616 H   0  0  0  0  0  0  0  0  0  0  0  0
  1  2  1  0
  2  3  1  0
  2  4  1  0
  4  5  1  0
  5  6  1  0
  6  7  1  0
  7  8  1  0
  8  9  2  0
  8 10  1  0
 10 11  1  0
 11 12  2  0
 12 13  1  0
 13 14  2  0
 14 15  1  0
 15 16  1  0
  7 17  1  0
 17 18  1  0
 18  4  1  0
 15 11  1  0
  1 19  1  0
  1 20  1  0
  1 21  1  0
  2 22  1  0
  3 23  1  0
  3 24  1  0
  3 25  1  0
  4 26  1  0
  5 27  1  0
  5 28  1  0
  6 29  1  0
  6 30  1  0
  7 31  1  0
 10 32  1  0
 13 33  1  0
 16 34  1  0
 16 35  1  0
 16 36  1  0
 17 37  1  0
 17 38  1  0
 18 39  1  0
 18 40  1  0
M  CHG  1   3   1
M  END
>  <EmbedRMS>  (2) 
0.293000697254303

$$$$

     RDKit          3D

 43 44  0  0  0  0  0  0  0  0999 V2000
    1.7012   11.4570    4.0099 C   0  0  0  0  0  0  0  0  0  0  0  0
    3.1205   10.9980    3.9690 C   0  0  0  0  0  0  0  0  0  0  0  0
    3.7773   10.8698    2.7462 C   0  0  0  0  0  0  0  0  0  0  0  0
    5.0995   10.4431    2.7208 C   0  0  0  0  0  0  0  0  0  0  0  0
    5.7743   10.1414    3.9223 C   0  0  0  0  0  0  0  0  0  0  0  0
    7.1454    9.7003    3.9780 N   0  0  0  0  0  0  0  0  0  0  0  0
    8.0236    9.4634    2.8675 C   0  0  0  0  0  0  0  0  0  0  0  0
    7.6553    9.6765    1.6811 O   0  0  0  0  0  0  0  0  0  0  0  0
    9.4270    8.9803    3.1222 C   0  0  0  0  0  0  0  0  0  0  0  0
    9.7916    7.9322    2.0765 C   0  0  0  0  0  0  0  0  0  0  0  0
   11.1518    7.3119    2.3260 C   0  0  0  0  0  0  0  0  0  0  0  0
   12.2367    8.2979    2.7978 C   0  0  0  0  0  0  0  0  0  0  0  0
   13.7128    7.9146    2.4297 C   0  0  0  0  0  0  0  0  0  0  0  0
   13.9334    7.3332    1.0251 C   0  0  0  0  0  0  0  0  0  0  0  0
   14.6506    9.0165    2.6726 N   0  0  0  0  0  4  0  0  0  0  0  0
   11.8888    9.7883    2.9926 C   0  0  0  0  0  0  0  0  0  0  0  0
   10.3974   10.1657    3.0678 C   0  0  0  0  0  0  0  0  0  0  0  0
    5.0685   10.2864    5.1267 C   0  0  0  0  0  0  0  0  0  0  0  0
    3.7766   10.7054    5.1230 N   0  0  0  0  0  0  0  0  0  0  0  0
    1.0620   10.7535    3.4360 H   0  0  0  0  0  0  0  0  0  0  0  0
    1.6214   12.4712    3.5650 H   0  0  0  0  0  0  0  0  0  0  0  0
    1.3343   11.4977    5.0575 H   0  0  0  0  0  0  0  0  0  0  0  0
    3.2661   11.1007    1.8191 H   0  0  0  0  0  0  0  0  0  0  0  0
    5.5421   10.3708    1.7474 H   0  0  0  0  0  0  0  0  0  0  0  0
    7.5474    9.5310    4.9283 H   0  0  0  0  0  0  0  0  0  0  0  0
    9.4846    8.5083    4.1286 H   0  0  0  0  0  0  0  0  0  0  0  0
    9.8008    8.4007    1.0657 H   0  0  0  0  0  0  0  0  0  0  0  0
    9.0266    7.1235    2.0653 H   0  0  0  0  0  0  0  0  0  0  0  0
   11.0357    6.4816    3.0613 H   0  0  0  0  0  0  0  0  0  0  0  0
   11.4356    6.8245    1.3748 H   0  0  0  0  0  0  0  0  0  0  0  0
   12.2426    8.0316    3.8833 H   0  0  0  0  0  0  0  0  0  0  0  0
   14.0111    7.0844    3.1147 H   0  0  0  0  0  0  0  0  0  0  0  0
   13.4391    7.9746    0.2649 H   0  0  0  0  0  0  0  0  0  0  0  0
   13.5405    6.2972    0.9559 H   0  0  0  0  0  0  0  0  0  0  0  0
   15.0174    7.2786    0.7883 H   0  0  0  0  0  0  0  0  0  0  0  0
   14.5448    9.3791    3.6472 H   0  0  0  0  0  0  0  0  0  0  0  0
   15.6340    8.6709    2.5809 H   0  0  0  0  0  0  0  0  0  0  0  0
   14.5093    9.7874    1.9809 H   0  0  0  0  0  0  0  0  0  0  0  0
   12.4003   10.1965    3.8942 H   0  0  0  0  0  0  0  0  0  0  0  0
   12.3117   10.3420    2.1275 H   0  0  0  0  0  0  0  0  0  0  0  0
   10.2260   10.8071    3.9607 H   0  0  0  0  0  0  0  0  0  0  0  0
   10.1538   10.7932    2.1798 H   0  0  0  0  0  0  0  0  0  0  0  0
    5.5464   10.0667    6.0726 H   0  0  0  0  0  0  0  0  0  0  0  0
  1  2  1  0
  2  3  2  0
  3  4  1  0
  4  5  2  0
  5  6  1  0
  6  7  1  0
  7  8  2  0
  7  9  1  0
  9 10  1  0
 10 11  1  0
 11 12  1  0
 12 13  1  0
 13 14  1  0
 13 15  1  0
 12 16  1  0
 16 17  1  0
  5 18  1  0
 18 19  2  0
 19  2  1  0
 17  9  1  0
  1 20  1  0
  1 21  1  0
  1 22  1  0
  3 23  1  0
  4 24  1  0
  6 25  1  0
  9 26  1  0
 10 27  1  0
 10 28  1  0
 11 29  1  0
 11 30  1  0
 12 31  1  0
 13 32  1  0
 14 33  1  0
 14 34  1  0
 14 35  1  0
 15 36  1  0
 15 37  1  0
 15 38  1  0
 16 39  1  0
 16 40  1  0
 17 41  1  0
 17 42  1  0
 18 43  1  0
M  CHG  1  15   1
M  END
>  <EmbedRMS>  (3) 
0.1605149994458257

$$$$

     RDKit          3D

 43 43  0  0  0  0  0  0  0  0999 V2000
   13.9328    7.3327    1.0256 C   0  0  0  0  0  0  0  0  0  0  0  0
   13.7106    7.9150    2.4296 C   0  0  0  0  0  0  0  0  0  0  0  0
   14.6487    9.0167    2.6729 N   0  0  0  0  0  4  0  0  0  0  0  0
   12.2335    8.2987    2.7960 C   0  0  0  0  0  0  0  0  0  0  0  0
   11.1478    7.3148    2.3210 C   0  0  0  0  0  0  0  0  0  0  0  0
    9.7861    7.9355    2.0722 C   0  0  0  0  0  0  0  0  0  0  0  0
    9.4221    8.9837    3.1170 C   0  0  0  0  0  0  0  0  0  0  0  0
    8.0145    9.4662    2.8713 C   0  0  0  0  0  0  0  0  0  0  0  0
    7.6210    9.6843    1.6909 O   0  0  0  0  0  0  0  0  0  0  0  0
    7.1437    9.6979    3.9867 N   0  0  0  0  0  0  0  0  0  0  0  0
    5.7457   10.1462    3.8800 C   0  0  0  0  0  0  0  0  0  0  0  0
    4.9165    9.1275    3.0776 C   0  0  0  0  0  0  0  0  0  0  0  0
    5.1534   10.2537    5.2959 C   0  0  0  0  0  0  0  0  0  0  0  0
    5.6801   11.5317    3.2137 C   0  0  0  0  0  0  0  0  0  0  0  0
   10.3939   10.1678    3.0629 C   0  0  0  0  0  0  0  0  0  0  0  0
   11.8859    9.7890    2.9942 C   0  0  0  0  0  0  0  0  0  0  0  0
   13.4412    7.9749    0.2643 H   0  0  0  0  0  0  0  0  0  0  0  0
   13.5378    6.2975    0.9561 H   0  0  0  0  0  0  0  0  0  0  0  0
   15.0171    7.2758    0.7911 H   0  0  0  0  0  0  0  0  0  0  0  0
   14.0080    7.0851    3.1154 H   0  0  0  0  0  0  0  0  0  0  0  0
   14.5411    9.3807    3.6468 H   0  0  0  0  0  0  0  0  0  0  0  0
   14.5089    9.7867    1.9799 H   0  0  0  0  0  0  0  0  0  0  0  0
   15.6320    8.6704    2.5834 H   0  0  0  0  0  0  0  0  0  0  0  0
   12.2375    8.0299    3.8807 H   0  0  0  0  0  0  0  0  0  0  0  0
   11.4321    6.8306    1.3683 H   0  0  0  0  0  0  0  0  0  0  0  0
   11.0316    6.4819    3.0534 H   0  0  0  0  0  0  0  0  0  0  0  0
    9.7922    8.4045    1.0617 H   0  0  0  0  0  0  0  0  0  0  0  0
    9.0209    7.1271    2.0623 H   0  0  0  0  0  0  0  0  0  0  0  0
    9.4831    8.5112    4.1229 H   0  0  0  0  0  0  0  0  0  0  0  0
    7.5444    9.5331    4.9389 H   0  0  0  0  0  0  0  0  0  0  0  0
    3.8395    9.4025    3.0917 H   0  0  0  0  0  0  0  0  0  0  0  0
    5.0261    8.1122    3.5158 H   0  0  0  0  0  0  0  0  0  0  0  0
    5.2343    9.0851    2.0162 H   0  0  0  0  0  0  0  0  0  0  0  0
    5.1892    9.2679    5.8084 H   0  0  0  0  0  0  0  0  0  0  0  0
    4.0943   10.5901    5.2604 H   0  0  0  0  0  0  0  0  0  0  0  0
    5.7304   10.9832    5.9047 H   0  0  0  0  0  0  0  0  0  0  0  0
    5.9946   11.4920    2.1513 H   0  0  0  0  0  0  0  0  0  0  0  0
    6.3424   12.2468    3.7476 H   0  0  0  0  0  0  0  0  0  0  0  0
    4.6419   11.9283    3.2382 H   0  0  0  0  0  0  0  0  0  0  0  0
   10.2197   10.8123    3.9529 H   0  0  0  0  0  0  0  0  0  0  0  0
   10.1527   10.7919    2.1718 H   0  0  0  0  0  0  0  0  0  0  0  0
   12.3135   10.3458    2.1334 H   0  0  0  0  0  0  0  0  0  0  0  0
   12.3931   10.1935    3.8999 H   0  0  0  0  0  0  0  0  0  0  0  0
  1  2  1  0
  2  3  1  0
  2  4  1  0
  4  5  1  0
  5  6  1  0
  6  7  1  0
  7  8  1  0
  8  9  2  0
  8 10  1  0
 10 11  1  0
 11 12  1  0
 11 13  1  0
 11 14  1  0
  7 15  1  0
 15 16  1  0
 16  4  1  0
  1 17  1  0
  1 18  1  0
  1 19  1  0
  2 20  1  0
  3 21  1  0
  3 22  1  0
  3 23  1  0
  4 24  1  0
  5 25  1  0
  5 26  1  0
  6 27  1  0
  6 28  1  0
  7 29  1  0
 10 30  1  0
 12 31  1  0
 12 32  1  0
 12 33  1  0
 13 34  1  0
 13 35  1  0
 13 36  1  0
 14 37  1  0
 14 38  1  0
 14 39  1  0
 15 40  1  0
 15 41  1  0
 16 42  1  0
 16 43  1  0
M  CHG  1   3   1
M  END
>  <EmbedRMS>  (4) 
0.17423024192686873

$$$$

     RDKit          3D

 42 42  0  0  0  0  0  0  0  0999 V2000
    8.6750    8.1658    7.0703 C   0  0  0  0  0  0  0  0  0  0  0  0
    8.3763    8.4580    5.8022 C   0  0  0  0  0  0  0  0  0  0  0  0
    7.3143    9.3915    5.3537 C   0  0  0  0  0  0  0  0  0  0  0  0
    6.4078    9.8578    6.2465 C   0  0  0  0  0  0  0  0  0  0  0  0
    5.2565   10.7471    5.8877 C   0  0  0  0  0  0  0  0  0  0  0  0
    7.1493    9.7152    3.9495 N   0  0  0  0  0  0  0  0  0  0  0  0
    7.9765    9.4983    2.7821 C   0  0  0  0  0  0  0  0  0  0  0  0
    7.4301    9.6608    1.6607 O   0  0  0  0  0  0  0  0  0  0  0  0
    9.4445    9.1811    2.6937 C   0  0  0  0  0  0  0  0  0  0  0  0
    9.7537    7.7156    2.4382 C   0  0  0  0  0  0  0  0  0  0  0  0
   11.2038    7.4507    2.0892 C   0  0  0  0  0  0  0  0  0  0  0  0
   12.2683    8.3270    2.7571 C   0  0  0  0  0  0  0  0  0  0  0  0
   13.6145    8.3244    1.9914 C   0  0  0  0  0  0  0  0  0  0  0  0
   14.0289    7.0506    1.2546 C   0  0  0  0  0  0  0  0  0  0  0  0
   14.7105    8.8911    2.7788 N   0  0  0  0  0  4  0  0  0  0  0  0
   11.8580    9.7797    3.1035 C   0  0  0  0  0  0  0  0  0  0  0  0
   10.4067   10.0105    3.5026 C   0  0  0  0  0  0  0  0  0  0  0  0
    9.4522    7.4407    7.2763 H   0  0  0  0  0  0  0  0  0  0  0  0
    8.2207    8.6429    7.9236 H   0  0  0  0  0  0  0  0  0  0  0  0
    8.9290    7.9270    5.0689 H   0  0  0  0  0  0  0  0  0  0  0  0
    6.4522    9.5905    7.2899 H   0  0  0  0  0  0  0  0  0  0  0  0
    5.6232   11.6730    5.3961 H   0  0  0  0  0  0  0  0  0  0  0  0
    4.7085   11.0385    6.8086 H   0  0  0  0  0  0  0  0  0  0  0  0
    4.5465   10.2109    5.2233 H   0  0  0  0  0  0  0  0  0  0  0  0
    6.2337   10.1339    3.6758 H   0  0  0  0  0  0  0  0  0  0  0  0
    9.6986    9.5966    1.6856 H   0  0  0  0  0  0  0  0  0  0  0  0
    9.1148    7.3426    1.6051 H   0  0  0  0  0  0  0  0  0  0  0  0
    9.4972    7.0769    3.2974 H   0  0  0  0  0  0  0  0  0  0  0  0
   11.2718    7.6249    0.9927 H   0  0  0  0  0  0  0  0  0  0  0  0
   11.4331    6.3748    2.2587 H   0  0  0  0  0  0  0  0  0  0  0  0
   12.4573    7.8339    3.7373 H   0  0  0  0  0  0  0  0  0  0  0  0
   13.4588    9.0294    1.1415 H   0  0  0  0  0  0  0  0  0  0  0  0
   14.1162    6.2135    1.9787 H   0  0  0  0  0  0  0  0  0  0  0  0
   13.3003    6.7723    0.4659 H   0  0  0  0  0  0  0  0  0  0  0  0
   15.0110    7.1880    0.7539 H   0  0  0  0  0  0  0  0  0  0  0  0
   14.5373    9.8979    2.9966 H   0  0  0  0  0  0  0  0  0  0  0  0
   15.6086    8.8475    2.2446 H   0  0  0  0  0  0  0  0  0  0  0  0
   14.8256    8.3542    3.6688 H   0  0  0  0  0  0  0  0  0  0  0  0
   12.4979   10.1655    3.9267 H   0  0  0  0  0  0  0  0  0  0  0  0
   12.0458   10.4293    2.2200 H   0  0  0  0  0  0  0  0  0  0  0  0
   10.1603   11.0919    3.4053 H   0  0  0  0  0  0  0  0  0  0  0  0
   10.3056    9.7529    4.5738 H   0  0  0  0  0  0  0  0  0  0  0  0
  1  2  2  3
  2  3  1  0
  3  4  2  3
  4  5  1  0
  3  6  1  0
  6  7  1  0
  7  8  2  0
  7  9  1  0
  9 10  1  0
 10 11  1  0
 11 12  1  0
 12 13  1  0
 13 14  1  0
 13 15  1  0
 12 16  1  0
 16 17  1  0
 17  9  1  0
  1 18  1  0
  1 19  1  0
  2 20  1  0
  4 21  1  0
  5 22  1  0
  5 23  1  0
  5 24  1  0
  6 25  1  0
  9 26  1  0
 10 27  1  0
 10 28  1  0
 11 29  1  0
 11 30  1  0
 12 31  1  0
 13 32  1  0
 14 33  1  0
 14 34  1  0
 14 35  1  0
 15 36  1  0
 15 37  1  0
 15 38  1  0
 16 39  1  0
 16 40  1  0
 17 41  1  0
 17 42  1  0
M  CHG  1  15   1
M  END
>  <EmbedRMS>  (5) 
0.29216731409503444

$$$$

     RDKit          3D

 40 41  0  0  0  0  0  0  0  0999 V2000
   13.9332    7.3332    1.0251 C   0  0  0  0  0  0  0  0  0  0  0  0
   13.7125    7.9146    2.4297 C   0  0  0  0  0  0  0  0  0  0  0  0
   14.6504    9.0165    2.6726 N   0  0  0  0  0  4  0  0  0  0  0  0
   12.2364    8.2979    2.7979 C   0  0  0  0  0  0  0  0  0  0  0  0
   11.1515    7.3120    2.3262 C   0  0  0  0  0  0  0  0  0  0  0  0
    9.7912    7.9324    2.0765 C   0  0  0  0  0  0  0  0  0  0  0  0
    9.4261    8.9806    3.1220 C   0  0  0  0  0  0  0  0  0  0  0  0
    8.0225    9.4639    2.8667 C   0  0  0  0  0  0  0  0  0  0  0  0
    7.6546    9.6768    1.6802 O   0  0  0  0  0  0  0  0  0  0  0  0
    7.1435    9.7011    3.9767 N   0  0  0  0  0  0  0  0  0  0  0  0
    5.7719   10.1423    3.9218 C   0  0  0  0  0  0  0  0  0  0  0  0
    5.0682   10.2866    5.1272 C   0  0  0  0  0  0  0  0  0  0  0  0
    3.7425   10.7162    5.1245 C   0  0  0  0  0  0  0  0  0  0  0  0
    3.1199   11.0021    3.9115 C   0  0  0  0  0  0  0  0  0  0  0  0
    3.8030   10.8612    2.7487 N   0  0  0  0  0  0  0  0  0  0  0  0
    5.0935   10.4449    2.7201 C   0  0  0  0  0  0  0  0  0  0  0  0
   10.3969   10.1658    3.0679 C   0  0  0  0  0  0  0  0  0  0  0  0
   11.8884    9.7884    2.9926 C   0  0  0  0  0  0  0  0  0  0  0  0
   13.4390    7.9746    0.2649 H   0  0  0  0  0  0  0  0  0  0  0  0
   13.5402    6.2972    0.9560 H   0  0  0  0  0  0  0  0  0  0  0  0
   15.0172    7.2785    0.7884 H   0  0  0  0  0  0  0  0  0  0  0  0
   14.0108    7.0845    3.1148 H   0  0  0  0  0  0  0  0  0  0  0  0
   14.5446    9.3791    3.6472 H   0  0  0  0  0  0  0  0  0  0  0  0
   14.5091    9.7874    1.9809 H   0  0  0  0  0  0  0  0  0  0  0  0
   15.6338    8.6709    2.5809 H   0  0  0  0  0  0  0  0  0  0  0  0
   12.2424    8.0318    3.8833 H   0  0  0  0  0  0  0  0  0  0  0  0
   11.4353    6.8245    1.3751 H   0  0  0  0  0  0  0  0  0  0  0  0
   11.0353    6.4818    3.0616 H   0  0  0  0  0  0  0  0  0  0  0  0
    9.8005    8.4008    1.0657 H   0  0  0  0  0  0  0  0  0  0  0  0
    9.0262    7.1237    2.0652 H   0  0  0  0  0  0  0  0  0  0  0  0
    9.4833    8.5087    4.1284 H   0  0  0  0  0  0  0  0  0  0  0  0
    7.5457    9.5319    4.9268 H   0  0  0  0  0  0  0  0  0  0  0  0
    5.5478   10.0665    6.0729 H   0  0  0  0  0  0  0  0  0  0  0  0
    3.2017   10.8271    6.0555 H   0  0  0  0  0  0  0  0  0  0  0  0
    2.0913   11.3366    3.8945 H   0  0  0  0  0  0  0  0  0  0  0  0
    5.5409   10.3704    1.7502 H   0  0  0  0  0  0  0  0  0  0  0  0
   10.1534   10.7936    2.1801 H   0  0  0  0  0  0  0  0  0  0  0  0
   10.2256   10.8070    3.9610 H   0  0  0  0  0  0  0  0  0  0  0  0
   12.3112   10.3420    2.1274 H   0  0  0  0  0  0  0  0  0  0  0  0
   12.4001   10.1967    3.8942 H   0  0  0  0  0  0  0  0  0  0  0  0
  1  2  1  0
  2  3  1  0
  2  4  1  0
  4  5  1  0
  5  6  1  0
  6  7  1  0
  7  8  1  0
  8  9  2  0
  8 10  1  0
 10 11  1  0
 11 12  2  0
 12 13  1  0
 13 14  2  0
 14 15  1  0
 15 16  2  0
  7 17  1  0
 17 18  1  0
 18  4  1  0
 16 11  1  0
  1 19  1  0
  1 20  1  0
  1 21  1  0
  2 22  1  0
  3 23  1  0
  3 24  1  0
  3 25  1  0
  4 26  1  0
  5 27  1  0
  5 28  1  0
  6 29  1  0
  6 30  1  0
  7 31  1  0
 10 32  1  0
 12 33  1  0
 13 34  1  0
 14 35  1  0
 16 36  1  0
 17 37  1  0
 17 38  1  0
 18 39  1  0
 18 40  1  0
M  CHG  1   3   1
M  END
>  <EmbedRMS>  (6) 
0.16496192233382964

$$$$

     RDKit          3D

 41 41  0  0  0  0  0  0  0  0999 V2000
    6.7770   12.3654    2.7126 C   0  0  0  0  0  0  0  0  0  0  0  0
    5.6974   11.5291    3.3298 C   0  0  0  0  0  0  0  0  0  0  0  0
    5.9071   10.3345    3.9183 C   0  0  0  0  0  0  0  0  0  0  0  0
    4.7582    9.7050    4.6113 C   0  0  0  0  0  0  0  0  0  0  0  0
    4.8526    8.5607    5.2060 N   0  0  0  0  0  0  0  0  0  0  0  0
    7.2208    9.7158    3.9414 N   0  0  0  0  0  0  0  0  0  0  0  0
    7.9775    9.5190    2.7303 C   0  0  0  0  0  0  0  0  0  0  0  0
    7.3964    9.6239    1.6236 O   0  0  0  0  0  0  0  0  0  0  0  0
    9.4425    9.2007    2.6418 C   0  0  0  0  0  0  0  0  0  0  0  0
    9.7426    7.7259    2.5455 C   0  0  0  0  0  0  0  0  0  0  0  0
   11.1775    7.4420    2.1332 C   0  0  0  0  0  0  0  0  0  0  0  0
   12.2590    8.3281    2.7672 C   0  0  0  0  0  0  0  0  0  0  0  0
   13.5991    8.3250    1.9902 C   0  0  0  0  0  0  0  0  0  0  0  0
   14.0099    7.0513    1.2530 C   0  0  0  0  0  0  0  0  0  0  0  0
   14.7010    8.8918    2.7704 N   0  0  0  0  0  4  0  0  0  0  0  0
   11.8456    9.7814    3.1211 C   0  0  0  0  0  0  0  0  0  0  0  0
   10.3808   10.0207    3.4839 C   0  0  0  0  0  0  0  0  0  0  0  0
    7.6955   12.3494    3.3368 H   0  0  0  0  0  0  0  0  0  0  0  0
    6.4283   13.4173    2.6458 H   0  0  0  0  0  0  0  0  0  0  0  0
    7.0012   12.0278    1.6823 H   0  0  0  0  0  0  0  0  0  0  0  0
    4.7076   11.9716    3.3608 H   0  0  0  0  0  0  0  0  0  0  0  0
    3.8001   10.2103    4.6298 H   0  0  0  0  0  0  0  0  0  0  0  0
    5.7349    8.0037    5.2308 H   0  0  0  0  0  0  0  0  0  0  0  0
    7.6110    9.3650    4.8441 H   0  0  0  0  0  0  0  0  0  0  0  0
    9.7090    9.5627    1.6178 H   0  0  0  0  0  0  0  0  0  0  0  0
    9.5621    7.2682    3.5427 H   0  0  0  0  0  0  0  0  0  0  0  0
    9.0524    7.2349    1.8230 H   0  0  0  0  0  0  0  0  0  0  0  0
   11.2101    7.5976    1.0326 H   0  0  0  0  0  0  0  0  0  0  0  0
   11.4051    6.3689    2.3187 H   0  0  0  0  0  0  0  0  0  0  0  0
   12.4654    7.8411    3.7469 H   0  0  0  0  0  0  0  0  0  0  0  0
   13.4354    9.0295    1.1417 H   0  0  0  0  0  0  0  0  0  0  0  0
   14.1161    6.2184    1.9794 H   0  0  0  0  0  0  0  0  0  0  0  0
   13.2655    6.7652    0.4819 H   0  0  0  0  0  0  0  0  0  0  0  0
   14.9812    7.1940    0.7331 H   0  0  0  0  0  0  0  0  0  0  0  0
   15.5904    8.8679    2.2205 H   0  0  0  0  0  0  0  0  0  0  0  0
   14.5184    9.8921    3.0094 H   0  0  0  0  0  0  0  0  0  0  0  0
   14.8365    8.3409    3.6489 H   0  0  0  0  0  0  0  0  0  0  0  0
   12.4672   10.1539    3.9643 H   0  0  0  0  0  0  0  0  0  0  0  0
   12.0602   10.4406    2.2511 H   0  0  0  0  0  0  0  0  0  0  0  0
   10.2276    9.7391    4.5485 H   0  0  0  0  0  0  0  0  0  0  0  0
   10.1427   11.1035    3.3855 H   0  0  0  0  0  0  0  0  0  0  0  0
  1  2  1  0
  2  3  2  3
  3  4  1  0
  4  5  2  3
  3  6  1  0
  6  7  1  0
  7  8  2  0
  7  9  1  0
  9 10  1  0
 10 11  1  0
 11 12  1  0
 12 13  1  0
 13 14  1  0
 13 15  1  0
 12 16  1  0
 16 17  1  0
 17  9  1  0
  1 18  1  0
  1 19  1  0
  1 20  1  0
  2 21  1  0
  4 22  1  0
  5 23  1  0
  6 24  1  0
  9 25  1  0
 10 26  1  0
 10 27  1  0
 11 28  1  0
 11 29  1  0
 12 30  1  0
 13 31  1  0
 14 32  1  0
 14 33  1  0
 14 34  1  0
 15 35  1  0
 15 36  1  0
 15 37  1  0
 16 38  1  0
 16 39  1  0
 17 40  1  0
 17 41  1  0
M  CHG  1  15   1
M  END
>  <EmbedRMS>  (7) 
0.3022183700925627

$$$$

     RDKit          3D

 40 41  0  0  0  0  0  0  0  0999 V2000
   13.9332    7.3332    1.0251 C   0  0  0  0  0  0  0  0  0  0  0  0
   13.7125    7.9146    2.4297 C   0  0  0  0  0  0  0  0  0  0  0  0
   14.6504    9.0165    2.6726 N   0  0  0  0  0  4  0  0  0  0  0  0
   12.2364    8.2979    2.7979 C   0  0  0  0  0  0  0  0  0  0  0  0
   11.1515    7.3120    2.3262 C   0  0  0  0  0  0  0  0  0  0  0  0
    9.7912    7.9324    2.0765 C   0  0  0  0  0  0  0  0  0  0  0  0
    9.4261    8.9806    3.1220 C   0  0  0  0  0  0  0  0  0  0  0  0
    8.0225    9.4639    2.8667 C   0  0  0  0  0  0  0  0  0  0  0  0
    7.6546    9.6768    1.6802 O   0  0  0  0  0  0  0  0  0  0  0  0
    7.1435    9.7011    3.9767 N   0  0  0  0  0  0  0  0  0  0  0  0
    5.7719   10.1423    3.9218 C   0  0  0  0  0  0  0  0  0  0  0  0
    5.0682   10.2866    5.1272 C   0  0  0  0  0  0  0  0  0  0  0  0
    3.7425   10.7162    5.1245 C   0  0  0  0  0  0  0  0  0  0  0  0
    3.1199   11.0021    3.9115 C   0  0  0  0  0  0  0  0  0  0  0  0
    3.8030   10.8612    2.7487 N   0  0  0  0  0  0  0  0  0  0  0  0
    5.0935   10.4449    2.7201 C   0  0  0  0  0  0  0  0  0  0  0  0
   10.3969   10.1658    3.0679 C   0  0  0  0  0  0  0  0  0  0  0  0
   11.8884    9.7884    2.9926 C   0  0  0  0  0  0  0  0  0  0  0  0
   13.4390    7.9746    0.2649 H   0  0  0  0  0  0  0  0  0  0  0  0
   13.5402    6.2972    0.9560 H   0  0  0  0  0  0  0  0  0  0  0  0
   15.0172    7.2785    0.7884 H   0  0  0  0  0  0  0  0  0  0  0  0
   14.0108    7.0845    3.1148 H   0  0  0  0  0  0  0  0  0  0  0  0
   14.5446    9.3791    3.6472 H   0  0  0  0  0  0  0  0  0  0  0  0
   14.5091    9.7874    1.9809 H   0  0  0  0  0  0  0  0  0  0  0  0
   15.6338    8.6709    2.5809 H   0  0  0  0  0  0  0  0  0  0  0  0
   12.2424    8.0318    3.8833 H   0  0  0  0  0  0  0  0  0  0  0  0
   11.4353    6.8245    1.3751 H   0  0  0  0  0  0  0  0  0  0  0  0
   11.0353    6.4818    3.0616 H   0  0  0  0  0  0  0  0  0  0  0  0
    9.8005    8.4008    1.0657 H   0  0  0  0  0  0  0  0  0  0  0  0
    9.0262    7.1237    2.0652 H   0  0  0  0  0  0  0  0  0  0  0  0
    9.4833    8.5087    4.1284 H   0  0  0  0  0  0  0  0  0  0  0  0
    7.5457    9.5319    4.9268 H   0  0  0  0  0  0  0  0  0  0  0  0
    5.5478   10.0665    6.0729 H   0  0  0  0  0  0  0  0  0  0  0  0
    3.2017   10.8271    6.0555 H   0  0  0  0  0  0  0  0  0  0  0  0
    2.0913   11.3366    3.8945 H   0  0  0  0  0  0  0  0  0  0  0  0
    5.5409   10.3704    1.7502 H   0  0  0  0  0  0  0  0  0  0  0  0
   10.1534   10.7936    2.1801 H   0  0  0  0  0  0  0  0  0  0  0  0
   10.2256   10.8070    3.9610 H   0  0  0  0  0  0  0  0  0  0  0  0
   12.3112   10.3420    2.1274 H   0  0  0  0  0  0  0  0  0  0  0  0
   12.4001   10.1967    3.8942 H   0  0  0  0  0  0  0  0  0  0  0  0
  1  2  1  0
  2  3  1  0
  2  4  1  0
  4  5  1  0
  5  6  1  0
  6  7  1  0
  7  8  1  0
  8  9  2  0
  8 10  1  0
 10 11  1  0
 11 12  2  0
 12 13  1  0
 13 14  2  0
 14 15  1  0
 15 16  2  0
  7 17  1  0
 17 18  1  0
 18  4  1  0
 16 11  1  0
  1 19  1  0
  1 20  1  0
  1 21  1  0
  2 22  1  0
  3 23  1  0
  3 24  1  0
  3 25  1  0
  4 26  1  0
  5 27  1  0
  5 28  1  0
  6 29  1  0
  6 30  1  0
  7 31  1  0
 10 32  1  0
 12 33  1  0
 13 34  1  0
 14 35  1  0
 16 36  1  0
 17 37  1  0
 17 38  1  0
 18 39  1  0
 18 40  1  0
M  CHG  1   3   1
M  END
>  <EmbedRMS>  (8) 
0.16496192233382964

$$$$

     RDKit          3D

 42 42  0  0  0  0  0  0  0  0999 V2000
    5.6442    9.9863    6.4267 C   0  0  0  0  0  0  0  0  0  0  0  0
    5.0643   10.2686    5.2531 C   0  0  0  0  0  0  0  0  0  0  0  0
    3.6248   10.7451    5.2920 C   0  0  0  0  0  0  0  0  0  0  0  0
    5.7993   10.1398    3.9420 C   0  0  0  0  0  0  0  0  0  0  0  0
    5.1203   10.4652    2.8175 C   0  0  0  0  0  0  0  0  0  0  0  0
    7.2071    9.7252    3.9020 N   0  0  0  0  0  0  0  0  0  0  0  0
    7.9946    9.5364    2.7026 C   0  0  0  0  0  0  0  0  0  0  0  0
    7.4640    9.6168    1.5746 O   0  0  0  0  0  0  0  0  0  0  0  0
    9.4581    9.2141    2.6473 C   0  0  0  0  0  0  0  0  0  0  0  0
    9.7401    7.7439    2.3770 C   0  0  0  0  0  0  0  0  0  0  0  0
   11.2019    7.3496    2.5443 C   0  0  0  0  0  0  0  0  0  0  0  0
   12.1849    8.5085    2.2981 C   0  0  0  0  0  0  0  0  0  0  0  0
   13.6484    7.9627    2.3855 C   0  0  0  0  0  0  0  0  0  0  0  0
   14.0286    7.2303    1.0858 C   0  0  0  0  0  0  0  0  0  0  0  0
   14.6296    9.0247    2.6464 N   0  0  0  0  0  4  0  0  0  0  0  0
   11.9007    9.6393    3.3209 C   0  0  0  0  0  0  0  0  0  0  0  0
   10.4224   10.0728    3.4398 C   0  0  0  0  0  0  0  0  0  0  0  0
    5.1004   10.0952    7.3570 H   0  0  0  0  0  0  0  0  0  0  0  0
    6.6506    9.6241    6.5348 H   0  0  0  0  0  0  0  0  0  0  0  0
    2.9775   10.0382    4.7315 H   0  0  0  0  0  0  0  0  0  0  0  0
    3.2212   10.8080    6.3258 H   0  0  0  0  0  0  0  0  0  0  0  0
    3.5504   11.7614    4.8508 H   0  0  0  0  0  0  0  0  0  0  0  0
    5.5158   10.5446    1.8288 H   0  0  0  0  0  0  0  0  0  0  0  0
    4.0804   10.7514    2.8275 H   0  0  0  0  0  0  0  0  0  0  0  0
    7.7400    9.5824    4.7820 H   0  0  0  0  0  0  0  0  0  0  0  0
    9.7358    9.6231    1.6427 H   0  0  0  0  0  0  0  0  0  0  0  0
    9.4030    7.4758    1.3485 H   0  0  0  0  0  0  0  0  0  0  0  0
    9.1325    7.1277    3.0763 H   0  0  0  0  0  0  0  0  0  0  0  0
   11.4017    6.4986    1.8624 H   0  0  0  0  0  0  0  0  0  0  0  0
   11.3477    6.9713    3.5814 H   0  0  0  0  0  0  0  0  0  0  0  0
   12.0138    8.9215    1.2783 H   0  0  0  0  0  0  0  0  0  0  0  0
   13.7180    7.2278    3.2204 H   0  0  0  0  0  0  0  0  0  0  0  0
   13.9575    7.9171    0.2155 H   0  0  0  0  0  0  0  0  0  0  0  0
   13.3813    6.3500    0.9049 H   0  0  0  0  0  0  0  0  0  0  0  0
   15.0720    6.8550    1.1506 H   0  0  0  0  0  0  0  0  0  0  0  0
   14.5186    9.3996    3.6156 H   0  0  0  0  0  0  0  0  0  0  0  0
   15.6013    8.6424    2.5826 H   0  0  0  0  0  0  0  0  0  0  0  0
   14.5276    9.7980    1.9491 H   0  0  0  0  0  0  0  0  0  0  0  0
   12.2458    9.3059    4.3252 H   0  0  0  0  0  0  0  0  0  0  0  0
   12.4962   10.5376    3.0498 H   0  0  0  0  0  0  0  0  0  0  0  0
   10.3162   11.1415    3.1418 H   0  0  0  0  0  0  0  0  0  0  0  0
   10.1291   10.0191    4.5104 H   0  0  0  0  0  0  0  0  0  0  0  0
  1  2  2  3
  2  3  1  0
  2  4  1  0
  4  5  2  3
  4  6  1  0
  6  7  1  0
  7  8  2  0
  7  9  1  0
  9 10  1  0
 10 11  1  0
 11 12  1  0
 12 13  1  0
 13 14  1  0
 13 15  1  0
 12 16  1  0
 16 17  1  0
 17  9  1  0
  1 18  1  0
  1 19  1  0
  3 20  1  0
  3 21  1  0
  3 22  1  0
  5 23  1  0
  5 24  1  0
  6 25  1  0
  9 26  1  0
 10 27  1  0
 10 28  1  0
 11 29  1  0
 11 30  1  0
 12 31  1  0
 13 32  1  0
 14 33  1  0
 14 34  1  0
 14 35  1  0
 15 36  1  0
 15 37  1  0
 15 38  1  0
 16 39  1  0
 16 40  1  0
 17 41  1  0
 17 42  1  0
M  CHG  1  15   1
M  END
>  <EmbedRMS>  (9) 
0.18263911859618057

$$$$

     RDKit          3D

 39 40  0  0  0  0  0  0  0  0999 V2000
   14.0110    7.0511    1.2526 C   0  0  0  0  0  0  0  0  0  0  0  0
   13.6007    8.3248    1.9901 C   0  0  0  0  0  0  0  0  0  0  0  0
   14.7033    8.8921    2.7690 N   0  0  0  0  0  4  0  0  0  0  0  0
   12.2625    8.3270    2.7691 C   0  0  0  0  0  0  0  0  0  0  0  0
   11.1802    7.4398    2.1370 C   0  0  0  0  0  0  0  0  0  0  0  0
    9.7464    7.7250    2.5506 C   0  0  0  0  0  0  0  0  0  0  0  0
    9.4528    9.2006    2.6508 C   0  0  0  0  0  0  0  0  0  0  0  0
    7.9907    9.5272    2.7197 C   0  0  0  0  0  0  0  0  0  0  0  0
    7.4511    9.6605    1.5982 O   0  0  0  0  0  0  0  0  0  0  0  0
    7.2032    9.6917    3.9188 N   0  0  0  0  0  0  0  0  0  0  0  0
    5.8190   10.1244    3.8864 C   0  0  0  0  0  0  0  0  0  0  0  0
    5.0492   10.4501    2.7707 C   0  0  0  0  0  0  0  0  0  0  0  0
    3.8118   10.8137    3.2504 C   0  0  0  0  0  0  0  0  0  0  0  0
    3.7917   10.7296    4.5924 N   0  0  0  0  0  0  0  0  0  0  0  0
    5.0092   10.3116    4.9903 C   0  0  0  0  0  0  0  0  0  0  0  0
   10.3879   10.0193    3.4937 C   0  0  0  0  0  0  0  0  0  0  0  0
   11.8511    9.7804    3.1265 C   0  0  0  0  0  0  0  0  0  0  0  0
   13.2659    6.7648    0.4822 H   0  0  0  0  0  0  0  0  0  0  0  0
   14.9817    7.1940    0.7316 H   0  0  0  0  0  0  0  0  0  0  0  0
   14.1182    6.2183    1.9789 H   0  0  0  0  0  0  0  0  0  0  0  0
   13.4353    9.0292    1.1418 H   0  0  0  0  0  0  0  0  0  0  0  0
   14.5218    9.8930    3.0061 H   0  0  0  0  0  0  0  0  0  0  0  0
   15.5925    8.8665    2.2188 H   0  0  0  0  0  0  0  0  0  0  0  0
   14.8389    8.3426    3.6484 H   0  0  0  0  0  0  0  0  0  0  0  0
   12.4711    7.8390    3.7480 H   0  0  0  0  0  0  0  0  0  0  0  0
   11.2117    7.5939    1.0361 H   0  0  0  0  0  0  0  0  0  0  0  0
   11.4077    6.3669    2.3236 H   0  0  0  0  0  0  0  0  0  0  0  0
    9.0547    7.2379    1.8268 H   0  0  0  0  0  0  0  0  0  0  0  0
    9.5649    7.2656    3.5467 H   0  0  0  0  0  0  0  0  0  0  0  0
    9.7356    9.5600    1.6294 H   0  0  0  0  0  0  0  0  0  0  0  0
    7.6552    9.5149    4.8435 H   0  0  0  0  0  0  0  0  0  0  0  0
    5.3065   10.4537    1.7245 H   0  0  0  0  0  0  0  0  0  0  0  0
    2.9693   11.1301    2.6494 H   0  0  0  0  0  0  0  0  0  0  0  0
    2.9817   10.9503    5.2127 H   0  0  0  0  0  0  0  0  0  0  0  0
    5.2923   10.1545    6.0229 H   0  0  0  0  0  0  0  0  0  0  0  0
   10.1492   11.1022    3.3982 H   0  0  0  0  0  0  0  0  0  0  0  0
   10.2369    9.7340    4.5575 H   0  0  0  0  0  0  0  0  0  0  0  0
   12.4748   10.1510    3.9689 H   0  0  0  0  0  0  0  0  0  0  0  0
   12.0642   10.4412    2.2573 H   0  0  0  0  0  0  0  0  0  0  0  0
  1  2  1  0
  2  3  1  0
  2  4  1  0
  4  5  1  0
  5  6  1  0
  6  7  1  0
  7  8  1  0
  8  9  2  0
  8 10  1  0
 10 11  1  0
 11 12  1  0
 12 13  2  0
 13 14  1  0
 14 15  1  0
  7 16  1  0
 16 17  1  0
 17  4  1  0
 15 11  2  0
  1 18  1  0
  1 19  1  0
  1 20  1  0
  2 21  1  0
  3 22  1  0
  3 23  1  0
  3 24  1  0
  4 25  1  0
  5 26  1  0
  5 27  1  0
  6 28  1  0
  6 29  1  0
  7 30  1  0
 10 31  1  0
 12 32  1  0
 13 33  1  0
 14 34  1  0
 15 35  1  0
 16 36  1  0
 16 37  1  0
 17 38  1  0
 17 39  1  0
M  CHG  1   3   1
M  END
>  <EmbedRMS>  (10) 
0.3005329260886256

$$$$

     RDKit          3D

 39 40  0  0  0  0  0  0  0  0999 V2000
   14.0110    7.0511    1.2526 C   0  0  0  0  0  0  0  0  0  0  0  0
   13.6007    8.3248    1.9901 C   0  0  0  0  0  0  0  0  0  0  0  0
   14.7033    8.8921    2.7690 N   0  0  0  0  0  4  0  0  0  0  0  0
   12.2625    8.3270    2.7691 C   0  0  0  0  0  0  0  0  0  0  0  0
   11.1802    7.4398    2.1370 C   0  0  0  0  0  0  0  0  0  0  0  0
    9.7464    7.7250    2.5506 C   0  0  0  0  0  0  0  0  0  0  0  0
    9.4528    9.2006    2.6508 C   0  0  0  0  0  0  0  0  0  0  0  0
    7.9907    9.5272    2.7197 C   0  0  0  0  0  0  0  0  0  0  0  0
    7.4511    9.6605    1.5982 O   0  0  0  0  0  0  0  0  0  0  0  0
    7.2032    9.6917    3.9188 N   0  0  0  0  0  0  0  0  0  0  0  0
    5.8190   10.1244    3.8864 C   0  0  0  0  0  0  0  0  0  0  0  0
    5.0492   10.4501    2.7707 C   0  0  0  0  0  0  0  0  0  0  0  0
    3.8118   10.8137    3.2504 C   0  0  0  0  0  0  0  0  0  0  0  0
    3.7917   10.7296    4.5924 N   0  0  0  0  0  0  0  0  0  0  0  0
    5.0092   10.3116    4.9903 C   0  0  0  0  0  0  0  0  0  0  0  0
   10.3879   10.0193    3.4937 C   0  0  0  0  0  0  0  0  0  0  0  0
   11.8511    9.7804    3.1265 C   0  0  0  0  0  0  0  0  0  0  0  0
   13.2659    6.7648    0.4822 H   0  0  0  0  0  0  0  0  0  0  0  0
   14.9817    7.1940    0.7316 H   0  0  0  0  0  0  0  0  0  0  0  0
   14.1182    6.2183    1.9789 H   0  0  0  0  0  0  0  0  0  0  0  0
   13.4353    9.0292    1.1418 H   0  0  0  0  0  0  0  0  0  0  0  0
   14.5218    9.8930    3.0061 H   0  0  0  0  0  0  0  0  0  0  0  0
   15.5925    8.8665    2.2188 H   0  0  0  0  0  0  0  0  0  0  0  0
   14.8389    8.3426    3.6484 H   0  0  0  0  0  0  0  0  0  0  0  0
   12.4711    7.8390    3.7480 H   0  0  0  0  0  0  0  0  0  0  0  0
   11.2117    7.5939    1.0361 H   0  0  0  0  0  0  0  0  0  0  0  0
   11.4077    6.3669    2.3236 H   0  0  0  0  0  0  0  0  0  0  0  0
    9.0547    7.2379    1.8268 H   0  0  0  0  0  0  0  0  0  0  0  0
    9.5649    7.2656    3.5467 H   0  0  0  0  0  0  0  0  0  0  0  0
    9.7356    9.5600    1.6294 H   0  0  0  0  0  0  0  0  0  0  0  0
    7.6552    9.5149    4.8435 H   0  0  0  0  0  0  0  0  0  0  0  0
    5.3065   10.4537    1.7245 H   0  0  0  0  0  0  0  0  0  0  0  0
    2.9693   11.1301    2.6494 H   0  0  0  0  0  0  0  0  0  0  0  0
    2.9817   10.9503    5.2127 H   0  0  0  0  0  0  0  0  0  0  0  0
    5.2923   10.1545    6.0229 H   0  0  0  0  0  0  0  0  0  0  0  0
   10.1492   11.1022    3.3982 H   0  0  0  0  0  0  0  0  0  0  0  0
   10.2369    9.7340    4.5575 H   0  0  0  0  0  0  0  0  0  0  0  0
   12.4748   10.1510    3.9689 H   0  0  0  0  0  0  0  0  0  0  0  0
   12.0642   10.4412    2.2573 H   0  0  0  0  0  0  0  0  0  0  0  0
  1  2  1  0
  2  3  1  0
  2  4  1  0
  4  5  1  0
  5  6  1  0
  6  7  1  0
  7  8  1  0
  8  9  2  0
  8 10  1  0
 10 11  1  0
 11 12  1  0
 12 13  2  0
 13 14  1  0
 14 15  1  0
  7 16  1  0
 16 17  1  0
 17  4  1  0
 15 11  2  0
  1 18  1  0
  1 19  1  0
  1 20  1  0
  2 21  1  0
  3 22  1  0
  3 23  1  0
  3 24  1  0
  4 25  1  0
  5 26  1  0
  5 27  1  0
  6 28  1  0
  6 29  1  0
  7 30  1  0
 10 31  1  0
 12 32  1  0
 13 33  1  0
 14 34  1  0
 15 35  1  0
 16 36  1  0
 16 37  1  0
 17 38  1  0
 17 39  1  0
M  CHG  1   3   1
M  END
>  <EmbedRMS>  (11) 
0.3005329260886256

$$$$

     RDKit          3D

 42 43  0  0  0  0  0  0  0  0999 V2000
   14.0286    7.0398    1.2341 C   0  0  0  0  0  0  0  0  0  0  0  0
   13.6699    8.3365    1.9395 C   0  0  0  0  0  0  0  0  0  0  0  0
   14.6139    8.7685    2.9623 N   0  0  0  0  0  4  0  0  0  0  0  0
   12.1586    8.5895    2.2120 C   0  0  0  0  0  0  0  0  0  0  0  0
   11.2422    7.3764    2.4527 C   0  0  0  0  0  0  0  0  0  0  0  0
    9.7904    7.8228    2.2129 C   0  0  0  0  0  0  0  0  0  0  0  0
    9.4138    8.9822    3.1541 C   0  0  0  0  0  0  0  0  0  0  0  0
    8.0178    9.4630    2.8766 C   0  0  0  0  0  0  0  0  0  0  0  0
    7.6416    9.6721    1.6902 O   0  0  0  0  0  0  0  0  0  0  0  0
    7.1430    9.7038    3.9846 N   0  0  0  0  0  0  0  0  0  0  0  0
    5.7838   10.1375    3.8904 C   0  0  0  0  0  0  0  0  0  0  0  0
    5.0600   10.4450    2.7482 C   0  0  0  0  0  0  0  0  0  0  0  0
    3.8087   10.8163    3.1943 C   0  0  0  0  0  0  0  0  0  0  0  0
    3.7554   10.7299    4.5381 N   0  0  0  0  0  0  0  0  0  0  0  0
    2.6152   11.0742    5.3740 C   0  0  0  0  0  0  0  0  0  0  0  0
    4.9607   10.3304    4.9762 C   0  0  0  0  0  0  0  0  0  0  0  0
   10.4074   10.1577    3.0881 C   0  0  0  0  0  0  0  0  0  0  0  0
   11.8568    9.6806    3.2543 C   0  0  0  0  0  0  0  0  0  0  0  0
   15.0836    7.0605    0.8852 H   0  0  0  0  0  0  0  0  0  0  0  0
   13.9086    6.1867    1.9344 H   0  0  0  0  0  0  0  0  0  0  0  0
   13.3774    6.8822    0.3472 H   0  0  0  0  0  0  0  0  0  0  0  0
   13.8836    9.0584    1.1114 H   0  0  0  0  0  0  0  0  0  0  0  0
   14.5968    9.8058    3.0880 H   0  0  0  0  0  0  0  0  0  0  0  0
   14.3782    8.3019    3.8675 H   0  0  0  0  0  0  0  0  0  0  0  0
   15.5901    8.5020    2.6974 H   0  0  0  0  0  0  0  0  0  0  0  0
   11.8031    9.0083    1.2374 H   0  0  0  0  0  0  0  0  0  0  0  0
   11.4648    6.5560    1.7402 H   0  0  0  0  0  0  0  0  0  0  0  0
   11.3719    6.9862    3.4860 H   0  0  0  0  0  0  0  0  0  0  0  0
    9.1152    6.9599    2.4039 H   0  0  0  0  0  0  0  0  0  0  0  0
    9.6606    8.1212    1.1485 H   0  0  0  0  0  0  0  0  0  0  0  0
    9.4499    8.5765    4.1903 H   0  0  0  0  0  0  0  0  0  0  0  0
    7.5190    9.5487    4.9475 H   0  0  0  0  0  0  0  0  0  0  0  0
    5.3736   10.4218    1.7158 H   0  0  0  0  0  0  0  0  0  0  0  0
    2.9844   11.1327    2.5678 H   0  0  0  0  0  0  0  0  0  0  0  0
    2.6239   10.4669    6.3042 H   0  0  0  0  0  0  0  0  0  0  0  0
    1.6671   10.8736    4.8308 H   0  0  0  0  0  0  0  0  0  0  0  0
    2.6622   12.1507    5.6405 H   0  0  0  0  0  0  0  0  0  0  0  0
    5.2241   10.1879    6.0169 H   0  0  0  0  0  0  0  0  0  0  0  0
   10.3038   10.6858    2.1135 H   0  0  0  0  0  0  0  0  0  0  0  0
   10.1731   10.8874    3.8939 H   0  0  0  0  0  0  0  0  0  0  0  0
   12.0225    9.2949    4.2841 H   0  0  0  0  0  0  0  0  0  0  0  0
   12.5094   10.5642    3.0943 H   0  0  0  0  0  0  0  0  0  0  0  0
  1  2  1  0
  2  3  1  0
  2  4  1  0
  4  5  1  0
  5  6  1  0
  6  7  1  0
  7  8  1  0
  8  9  2  0
  8 10  1  0
 10 11  1  0
 11 12  1  0
 12 13  2  0
 13 14  1  0
 14 15  1  0
 14 16  1  0
  7 17  1  0
 17 18  1  0
 18  4  1  0
 16 11  2  0
  1 19  1  0
  1 20  1  0
  1 21  1  0
  2 22  1  0
  3 23  1  0
  3 24  1  0
  3 25  1  0
  4 26  1  0
  5 27  1  0
  5 28  1  0
  6 29  1  0
  6 30  1  0
  7 31  1  0
 10 32  1  0
 12 33  1  0
 13 34  1  0
 15 35  1  0
 15 36  1  0
 15 37  1  0
 16 38  1  0
 17 39  1  0
 17 40  1  0
 18 41  1  0
 18 42  1  0
M  CHG  1   3   1
M  END
>  <EmbedRMS>  (12) 
0.18278266355164025

$$$$

     RDKit          3D

 43 44  0  0  0  0  0  0  0  0999 V2000
    1.7012   11.4570    4.0099 C   0  0  0  0  0  0  0  0  0  0  0  0
    3.1205   10.9980    3.9690 C   0  0  0  0  0  0  0  0  0  0  0  0
    3.7773   10.8698    2.7462 C   0  0  0  0  0  0  0  0  0  0  0  0
    5.0995   10.4431    2.7208 C   0  0  0  0  0  0  0  0  0  0  0  0
    5.7743   10.1414    3.9223 C   0  0  0  0  0  0  0  0  0  0  0  0
    7.1454    9.7003    3.9780 N   0  0  0  0  0  0  0  0  0  0  0  0
    8.0236    9.4634    2.8675 C   0  0  0  0  0  0  0  0  0  0  0  0
    7.6553    9.6765    1.6811 O   0  0  0  0  0  0  0  0  0  0  0  0
    9.4270    8.9803    3.1222 C   0  0  0  0  0  0  0  0  0  0  0  0
    9.7916    7.9322    2.0765 C   0  0  0  0  0  0  0  0  0  0  0  0
   11.1518    7.3119    2.3260 C   0  0  0  0  0  0  0  0  0  0  0  0
   12.2367    8.2979    2.7978 C   0  0  0  0  0  0  0  0  0  0  0  0
   13.7128    7.9146    2.4297 C   0  0  0  0  0  0  0  0  0  0  0  0
   13.9334    7.3332    1.0251 C   0  0  0  0  0  0  0  0  0  0  0  0
   14.6506    9.0165    2.6726 N   0  0  0  0  0  4  0  0  0  0  0  0
   11.8888    9.7883    2.9926 C   0  0  0  0  0  0  0  0  0  0  0  0
   10.3974   10.1657    3.0678 C   0  0  0  0  0  0  0  0  0  0  0  0
    5.0685   10.2864    5.1267 C   0  0  0  0  0  0  0  0  0  0  0  0
    3.7766   10.7054    5.1230 N   0  0  0  0  0  0  0  0  0  0  0  0
    1.0620   10.7535    3.4360 H   0  0  0  0  0  0  0  0  0  0  0  0
    1.6214   12.4712    3.5650 H   0  0  0  0  0  0  0  0  0  0  0  0
    1.3343   11.4977    5.0575 H   0  0  0  0  0  0  0  0  0  0  0  0
    3.2661   11.1007    1.8191 H   0  0  0  0  0  0  0  0  0  0  0  0
    5.5421   10.3708    1.7474 H   0  0  0  0  0  0  0  0  0  0  0  0
    7.5474    9.5310    4.9283 H   0  0  0  0  0  0  0  0  0  0  0  0
    9.4846    8.5083    4.1286 H   0  0  0  0  0  0  0  0  0  0  0  0
    9.8008    8.4007    1.0657 H   0  0  0  0  0  0  0  0  0  0  0  0
    9.0266    7.1235    2.0653 H   0  0  0  0  0  0  0  0  0  0  0  0
   11.0357    6.4816    3.0613 H   0  0  0  0  0  0  0  0  0  0  0  0
   11.4356    6.8245    1.3748 H   0  0  0  0  0  0  0  0  0  0  0  0
   12.2426    8.0316    3.8833 H   0  0  0  0  0  0  0  0  0  0  0  0
   14.0111    7.0844    3.1147 H   0  0  0  0  0  0  0  0  0  0  0  0
   13.4391    7.9746    0.2649 H   0  0  0  0  0  0  0  0  0  0  0  0
   13.5405    6.2972    0.9559 H   0  0  0  0  0  0  0  0  0  0  0  0
   15.0174    7.2786    0.7883 H   0  0  0  0  0  0  0  0  0  0  0  0
   14.5448    9.3791    3.6472 H   0  0  0  0  0  0  0  0  0  0  0  0
   15.6340    8.6709    2.5809 H   0  0  0  0  0  0  0  0  0  0  0  0
   14.5093    9.7874    1.9809 H   0  0  0  0  0  0  0  0  0  0  0  0
   12.4003   10.1965    3.8942 H   0  0  0  0  0  0  0  0  0  0  0  0
   12.3117   10.3420    2.1275 H   0  0  0  0  0  0  0  0  0  0  0  0
   10.2260   10.8071    3.9607 H   0  0  0  0  0  0  0  0  0  0  0  0
   10.1538   10.7932    2.1798 H   0  0  0  0  0  0  0  0  0  0  0  0
    5.5464   10.0667    6.0726 H   0  0  0  0  0  0  0  0  0  0  0  0
  1  2  1  0
  2  3  2  0
  3  4  1  0
  4  5  2  0
  5  6  1  0
  6  7  1  0
  7  8  2  0
  7  9  1  0
  9 10  1  0
 10 11  1  0
 11 12  1  0
 12 13  1  0
 13 14  1  0
 13 15  1  0
 12 16  1  0
 16 17  1  0
  5 18  1  0
 18 19  2  0
 19  2  1  0
 17  9  1  0
  1 20  1  0
  1 21  1  0
  1 22  1  0
  3 23  1  0
  4 24  1  0
  6 25  1  0
  9 26  1  0
 10 27  1  0
 10 28  1  0
 11 29  1  0
 11 30  1  0
 12 31  1  0
 13 32  1  0
 14 33  1  0
 14 34  1  0
 14 35  1  0
 15 36  1  0
 15 37  1  0
 15 38  1  0
 16 39  1  0
 16 40  1  0
 17 41  1  0
 17 42  1  0
 18 43  1  0
M  CHG  1  15   1
M  END
>  <EmbedRMS>  (13) 
0.1605149994458257

$$$$

     RDKit          3D

 42 42  0  0  0  0  0  0  0  0999 V2000
    8.6750    8.1658    7.0703 C   0  0  0  0  0  0  0  0  0  0  0  0
    8.3763    8.4580    5.8022 C   0  0  0  0  0  0  0  0  0  0  0  0
    7.3143    9.3915    5.3537 C   0  0  0  0  0  0  0  0  0  0  0  0
    6.4078    9.8578    6.2465 C   0  0  0  0  0  0  0  0  0  0  0  0
    5.2565   10.7471    5.8877 C   0  0  0  0  0  0  0  0  0  0  0  0
    7.1493    9.7152    3.9495 N   0  0  0  0  0  0  0  0  0  0  0  0
    7.9765    9.4983    2.7821 C   0  0  0  0  0  0  0  0  0  0  0  0
    7.4301    9.6608    1.6607 O   0  0  0  0  0  0  0  0  0  0  0  0
    9.4445    9.1811    2.6937 C   0  0  0  0  0  0  0  0  0  0  0  0
    9.7537    7.7156    2.4382 C   0  0  0  0  0  0  0  0  0  0  0  0
   11.2038    7.4507    2.0892 C   0  0  0  0  0  0  0  0  0  0  0  0
   12.2683    8.3270    2.7571 C   0  0  0  0  0  0  0  0  0  0  0  0
   13.6145    8.3244    1.9914 C   0  0  0  0  0  0  0  0  0  0  0  0
   14.0289    7.0506    1.2546 C   0  0  0  0  0  0  0  0  0  0  0  0
   14.7105    8.8911    2.7788 N   0  0  0  0  0  4  0  0  0  0  0  0
   11.8580    9.7797    3.1035 C   0  0  0  0  0  0  0  0  0  0  0  0
   10.4067   10.0105    3.5026 C   0  0  0  0  0  0  0  0  0  0  0  0
    9.4522    7.4407    7.2763 H   0  0  0  0  0  0  0  0  0  0  0  0
    8.2207    8.6429    7.9236 H   0  0  0  0  0  0  0  0  0  0  0  0
    8.9290    7.9270    5.0689 H   0  0  0  0  0  0  0  0  0  0  0  0
    6.4522    9.5905    7.2899 H   0  0  0  0  0  0  0  0  0  0  0  0
    5.6232   11.6730    5.3961 H   0  0  0  0  0  0  0  0  0  0  0  0
    4.7085   11.0385    6.8086 H   0  0  0  0  0  0  0  0  0  0  0  0
    4.5465   10.2109    5.2233 H   0  0  0  0  0  0  0  0  0  0  0  0
    6.2337   10.1339    3.6758 H   0  0  0  0  0  0  0  0  0  0  0  0
    9.6986    9.5966    1.6856 H   0  0  0  0  0  0  0  0  0  0  0  0
    9.1148    7.3426    1.6051 H   0  0  0  0  0  0  0  0  0  0  0  0
    9.4972    7.0769    3.2974 H   0  0  0  0  0  0  0  0  0  0  0  0
   11.2718    7.6249    0.9927 H   0  0  0  0  0  0  0  0  0  0  0  0
   11.4331    6.3748    2.2587 H   0  0  0  0  0  0  0  0  0  0  0  0
   12.4573    7.8339    3.7373 H   0  0  0  0  0  0  0  0  0  0  0  0
   13.4588    9.0294    1.1415 H   0  0  0  0  0  0  0  0  0  0  0  0
   14.1162    6.2135    1.9787 H   0  0  0  0  0  0  0  0  0  0  0  0
   13.3003    6.7723    0.4659 H   0  0  0  0  0  0  0  0  0  0  0  0
   15.0110    7.1880    0.7539 H   0  0  0  0  0  0  0  0  0  0  0  0
   14.5373    9.8979    2.9966 H   0  0  0  0  0  0  0  0  0  0  0  0
   15.6086    8.8475    2.2446 H   0  0  0  0  0  0  0  0  0  0  0  0
   14.8256    8.3542    3.6688 H   0  0  0  0  0  0  0  0  0  0  0  0
   12.4979   10.1655    3.9267 H   0  0  0  0  0  0  0  0  0  0  0  0
   12.0458   10.4293    2.2200 H   0  0  0  0  0  0  0  0  0  0  0  0
   10.1603   11.0919    3.4053 H   0  0  0  0  0  0  0  0  0  0  0  0
   10.3056    9.7529    4.5738 H   0  0  0  0  0  0  0  0  0  0  0  0
  1  2  2  3
  2  3  1  0
  3  4  2  3
  4  5  1  0
  3  6  1  0
  6  7  1  0
  7  8  2  0
  7  9  1  0
  9 10  1  0
 10 11  1  0
 11 12  1  0
 12 13  1  0
 13 14  1  0
 13 15  1  0
 12 16  1  0
 16 17  1  0
 17  9  1  0
  1 18  1  0
  1 19  1  0
  2 20  1  0
  4 21  1  0
  5 22  1  0
  5 23  1  0
  5 24  1  0
  6 25  1  0
  9 26  1  0
 10 27  1  0
 10 28  1  0
 11 29  1  0
 11 30  1  0
 12 31  1  0
 13 32  1  0
 14 33  1  0
 14 34  1  0
 14 35  1  0
 15 36  1  0
 15 37  1  0
 15 38  1  0
 16 39  1  0
 16 40  1  0
 17 41  1  0
 17 42  1  0
M  CHG  1  15   1
M  END
>  <EmbedRMS>  (14) 
0.29216731409503444

$$$$

     RDKit          3D

 41 41  0  0  0  0  0  0  0  0999 V2000
   14.0479    7.2195    1.1054 C   0  0  0  0  0  0  0  0  0  0  0  0
   13.6487    7.9559    2.3994 C   0  0  0  0  0  0  0  0  0  0  0  0
   14.6282    9.0159    2.6715 N   0  0  0  0  0  4  0  0  0  0  0  0
   12.1991    8.5125    2.2741 C   0  0  0  0  0  0  0  0  0  0  0  0
   11.1792    7.3664    2.4360 C   0  0  0  0  0  0  0  0  0  0  0  0
    9.7701    7.8723    2.1585 C   0  0  0  0  0  0  0  0  0  0  0  0
    9.4070    8.9945    3.1370 C   0  0  0  0  0  0  0  0  0  0  0  0
    8.0093    9.4798    2.8762 C   0  0  0  0  0  0  0  0  0  0  0  0
    7.6175    9.6932    1.6942 O   0  0  0  0  0  0  0  0  0  0  0  0
    7.1238    9.6899    3.9822 N   0  0  0  0  0  0  0  0  0  0  0  0
    5.7645   10.1853    3.8143 C   0  0  0  0  0  0  0  0  0  0  0  0
    5.7965   11.6683    3.5588 C   0  0  0  0  0  0  0  0  0  0  0  0
    5.6702   12.1220    2.3591 N   0  0  0  0  0  4  0  0  0  0  0  0
    6.0623   12.5758    4.6419 N   0  0  0  0  0  4  0  0  0  0  0  0
   10.4217   10.1489    3.0677 C   0  0  0  0  0  0  0  0  0  0  0  0
   11.8573    9.6383    3.2818 C   0  0  0  0  0  0  0  0  0  0  0  0
   13.4165    6.3272    0.9276 H   0  0  0  0  0  0  0  0  0  0  0  0
   15.0951    6.8573    1.1817 H   0  0  0  0  0  0  0  0  0  0  0  0
   13.9780    7.8976    0.2280 H   0  0  0  0  0  0  0  0  0  0  0  0
   13.6902    7.2253    3.2395 H   0  0  0  0  0  0  0  0  0  0  0  0
   15.5996    8.6298    2.6310 H   0  0  0  0  0  0  0  0  0  0  0  0
   14.4953    9.3938    3.6370 H   0  0  0  0  0  0  0  0  0  0  0  0
   14.5429    9.7864    1.9687 H   0  0  0  0  0  0  0  0  0  0  0  0
   12.0868    8.9476    1.2541 H   0  0  0  0  0  0  0  0  0  0  0  0
   11.2339    6.9397    3.4625 H   0  0  0  0  0  0  0  0  0  0  0  0
   11.3804    6.5458    1.7191 H   0  0  0  0  0  0  0  0  0  0  0  0
    9.7072    8.2316    1.1067 H   0  0  0  0  0  0  0  0  0  0  0  0
    9.0551    7.0285    2.2777 H   0  0  0  0  0  0  0  0  0  0  0  0
    9.4441    8.5686    4.1652 H   0  0  0  0  0  0  0  0  0  0  0  0
    7.4569    9.4886    4.9521 H   0  0  0  0  0  0  0  0  0  0  0  0
    5.2561    9.6368    2.9915 H   0  0  0  0  0  0  0  0  0  0  0  0
    5.1839    9.9920    4.7419 H   0  0  0  0  0  0  0  0  0  0  0  0
    5.7249   13.1346    2.1747 H   0  0  0  0  0  0  0  0  0  0  0  0
    5.5077   11.4885    1.5625 H   0  0  0  0  0  0  0  0  0  0  0  0
    6.9398   13.1067    4.4390 H   0  0  0  0  0  0  0  0  0  0  0  0
    6.1816   12.0565    5.5414 H   0  0  0  0  0  0  0  0  0  0  0  0
    5.2616   13.2410    4.7362 H   0  0  0  0  0  0  0  0  0  0  0  0
   10.3550   10.6521    2.0772 H   0  0  0  0  0  0  0  0  0  0  0  0
   10.1835   10.9014    3.8511 H   0  0  0  0  0  0  0  0  0  0  0  0
   11.9732    9.2664    4.3238 H   0  0  0  0  0  0  0  0  0  0  0  0
   12.5362   10.5055    3.1417 H   0  0  0  0  0  0  0  0  0  0  0  0
  1  2  1  0
  2  3  1  0
  2  4  1  0
  4  5  1  0
  5  6  1  0
  6  7  1  0
  7  8  1  0
  8  9  2  0
  8 10  1  0
 10 11  1  0
 11 12  1  0
 12 13  2  3
 12 14  1  0
  7 15  1  0
 15 16  1  0
 16  4  1  0
  1 17  1  0
  1 18  1  0
  1 19  1  0
  2 20  1  0
  3 21  1  0
  3 22  1  0
  3 23  1  0
  4 24  1  0
  5 25  1  0
  5 26  1  0
  6 27  1  0
  6 28  1  0
  7 29  1  0
 10 30  1  0
 11 31  1  0
 11 32  1  0
 13 33  1  0
 13 34  1  0
 14 35  1  0
 14 36  1  0
 14 37  1  0
 15 38  1  0
 15 39  1  0
 16 40  1  0
 16 41  1  0
M  CHG  3   3   1  13   1  14   1
M  END
>  <EmbedRMS>  (15) 
0.03078882717110932

$$$$

     RDKit          3D

 40 41  0  0  0  0  0  0  0  0999 V2000
   13.9329    7.3332    1.0252 C   0  0  0  0  0  0  0  0  0  0  0  0
   13.7122    7.9147    2.4298 C   0  0  0  0  0  0  0  0  0  0  0  0
   14.6502    9.0166    2.6726 N   0  0  0  0  0  4  0  0  0  0  0  0
   12.2360    8.2981    2.7981 C   0  0  0  0  0  0  0  0  0  0  0  0
   11.1510    7.3123    2.3266 C   0  0  0  0  0  0  0  0  0  0  0  0
    9.7902    7.9324    2.0780 C   0  0  0  0  0  0  0  0  0  0  0  0
    9.4250    8.9811    3.1236 C   0  0  0  0  0  0  0  0  0  0  0  0
    8.0213    9.4644    2.8678 C   0  0  0  0  0  0  0  0  0  0  0  0
    7.6543    9.6771    1.6809 O   0  0  0  0  0  0  0  0  0  0  0  0
    7.1400    9.7013    3.9767 N   0  0  0  0  0  0  0  0  0  0  0  0
    5.7711   10.1430    3.9231 C   0  0  0  0  0  0  0  0  0  0  0  0
    5.0989   10.4458    2.7188 C   0  0  0  0  0  0  0  0  0  0  0  0
    3.7748   10.8726    2.7577 C   0  0  0  0  0  0  0  0  0  0  0  0
    3.1197   10.9993    3.9785 C   0  0  0  0  0  0  0  0  0  0  0  0
    3.8044   10.6942    5.1536 C   0  0  0  0  0  0  0  0  0  0  0  0
    5.0971   10.2789    5.0996 N   0  0  0  0  0  0  0  0  0  0  0  0
   10.3964   10.1660    3.0685 C   0  0  0  0  0  0  0  0  0  0  0  0
   11.8879    9.7885    2.9929 C   0  0  0  0  0  0  0  0  0  0  0  0
   15.0168    7.2780    0.7887 H   0  0  0  0  0  0  0  0  0  0  0  0
   13.5394    6.2974    0.9561 H   0  0  0  0  0  0  0  0  0  0  0  0
   13.4390    7.9748    0.2650 H   0  0  0  0  0  0  0  0  0  0  0  0
   14.0105    7.0846    3.1149 H   0  0  0  0  0  0  0  0  0  0  0  0
   14.5086    9.7875    1.9809 H   0  0  0  0  0  0  0  0  0  0  0  0
   14.5444    9.3792    3.6472 H   0  0  0  0  0  0  0  0  0  0  0  0
   15.6334    8.6710    2.5808 H   0  0  0  0  0  0  0  0  0  0  0  0
   12.2420    8.0319    3.8835 H   0  0  0  0  0  0  0  0  0  0  0  0
   11.0355    6.4816    3.0615 H   0  0  0  0  0  0  0  0  0  0  0  0
   11.4344    6.8254    1.3750 H   0  0  0  0  0  0  0  0  0  0  0  0
    9.7987    8.4005    1.0671 H   0  0  0  0  0  0  0  0  0  0  0  0
    9.0254    7.1235    2.0674 H   0  0  0  0  0  0  0  0  0  0  0  0
    9.4815    8.5099    4.1304 H   0  0  0  0  0  0  0  0  0  0  0  0
    7.5298    9.5316    4.9316 H   0  0  0  0  0  0  0  0  0  0  0  0
    5.5392   10.3753    1.7440 H   0  0  0  0  0  0  0  0  0  0  0  0
    3.2528   11.1076    1.8387 H   0  0  0  0  0  0  0  0  0  0  0  0
    2.0900   11.3310    4.0154 H   0  0  0  0  0  0  0  0  0  0  0  0
    3.3088   10.7876    6.1107 H   0  0  0  0  0  0  0  0  0  0  0  0
   10.2254   10.8078    3.9612 H   0  0  0  0  0  0  0  0  0  0  0  0
   10.1526   10.7934    2.1804 H   0  0  0  0  0  0  0  0  0  0  0  0
   12.3997   10.1968    3.8943 H   0  0  0  0  0  0  0  0  0  0  0  0
   12.3106   10.3422    2.1276 H   0  0  0  0  0  0  0  0  0  0  0  0
  1  2  1  0
  2  3  1  0
  2  4  1  0
  4  5  1  0
  5  6  1  0
  6  7  1  0
  7  8  1  0
  8  9  2  0
  8 10  1  0
 10 11  1  0
 11 12  2  0
 12 13  1  0
 13 14  2  0
 14 15  1  0
 15 16  2  0
  7 17  1  0
 17 18  1  0
 18  4  1  0
 16 11  1  0
  1 19  1  0
  1 20  1  0
  1 21  1  0
  2 22  1  0
  3 23  1  0
  3 24  1  0
  3 25  1  0
  4 26  1  0
  5 27  1  0
  5 28  1  0
  6 29  1  0
  6 30  1  0
  7 31  1  0
 10 32  1  0
 12 33  1  0
 13 34  1  0
 14 35  1  0
 15 36  1  0
 17 37  1  0
 17 38  1  0
 18 39  1  0
 18 40  1  0
M  CHG  1   3   1
M  END
>  <EmbedRMS>  (16) 
0.16489371128598093

$$$$

     RDKit          3D

 45 45  0  0  0  0  0  0  0  0999 V2000
    6.6426   12.2821    2.6516 C   0  0  0  0  0  0  0  0  0  0  0  0
    5.6157   11.5113    3.0196 C   0  0  0  0  0  0  0  0  0  0  0  0
    4.2139   11.9100    2.6324 C   0  0  0  0  0  0  0  0  0  0  0  0
    5.8597   10.3523    3.9284 C   0  0  0  0  0  0  0  0  0  0  0  0
    4.8899    9.9517    4.7721 C   0  0  0  0  0  0  0  0  0  0  0  0
    5.0638    8.8198    5.7367 C   0  0  0  0  0  0  0  0  0  0  0  0
    7.1587    9.7297    4.0017 N   0  0  0  0  0  0  0  0  0  0  0  0
    8.0094    9.4770    2.8770 C   0  0  0  0  0  0  0  0  0  0  0  0
    7.5925    9.6699    1.6995 O   0  0  0  0  0  0  0  0  0  0  0  0
    9.4190    8.9882    3.1140 C   0  0  0  0  0  0  0  0  0  0  0  0
    9.7814    7.9392    2.0698 C   0  0  0  0  0  0  0  0  0  0  0  0
   11.1442    7.3173    2.3173 C   0  0  0  0  0  0  0  0  0  0  0  0
   12.2312    8.2990    2.7947 C   0  0  0  0  0  0  0  0  0  0  0  0
   13.7088    7.9146    2.4295 C   0  0  0  0  0  0  0  0  0  0  0  0
   13.9319    7.3320    1.0257 C   0  0  0  0  0  0  0  0  0  0  0  0
   14.6475    9.0159    2.6730 N   0  0  0  0  0  4  0  0  0  0  0  0
   11.8850    9.7892    2.9963 C   0  0  0  0  0  0  0  0  0  0  0  0
   10.3931   10.1701    3.0593 C   0  0  0  0  0  0  0  0  0  0  0  0
    6.5060   13.1634    2.0375 H   0  0  0  0  0  0  0  0  0  0  0  0
    6.5060   13.1634    2.0375 H   0  0  0  0  0  0  0  0  0  0  0  0
    4.2031   12.4754    1.6757 H   0  0  0  0  0  0  0  0  0  0  0  0
    3.5836   11.0078    2.4847 H   0  0  0  0  0  0  0  0  0  0  0  0
    3.7720   12.5450    3.4286 H   0  0  0  0  0  0  0  0  0  0  0  0
    3.9254   10.4428    4.7786 H   0  0  0  0  0  0  0  0  0  0  0  0
    5.3803    7.9015    5.1981 H   0  0  0  0  0  0  0  0  0  0  0  0
    5.8159    9.0848    6.5090 H   0  0  0  0  0  0  0  0  0  0  0  0
    4.0999    8.6139    6.2477 H   0  0  0  0  0  0  0  0  0  0  0  0
    7.5134    9.4348    4.9389 H   0  0  0  0  0  0  0  0  0  0  0  0
    9.4838    8.5152    4.1195 H   0  0  0  0  0  0  0  0  0  0  0  0
    9.7856    8.4081    1.0593 H   0  0  0  0  0  0  0  0  0  0  0  0
    9.0155    7.1315    2.0616 H   0  0  0  0  0  0  0  0  0  0  0  0
   11.4284    6.8358    1.3632 H   0  0  0  0  0  0  0  0  0  0  0  0
   11.0277    6.4824    3.0472 H   0  0  0  0  0  0  0  0  0  0  0  0
   12.2338    8.0276    3.8788 H   0  0  0  0  0  0  0  0  0  0  0  0
   14.0054    7.0847    3.1155 H   0  0  0  0  0  0  0  0  0  0  0  0
   13.5346    6.2977    0.9557 H   0  0  0  0  0  0  0  0  0  0  0  0
   13.4427    7.9752    0.2638 H   0  0  0  0  0  0  0  0  0  0  0  0
   15.0164    7.2729    0.7928 H   0  0  0  0  0  0  0  0  0  0  0  0
   14.5093    9.7854    1.9790 H   0  0  0  0  0  0  0  0  0  0  0  0
   14.5387    9.3811    3.6464 H   0  0  0  0  0  0  0  0  0  0  0  0
   15.6306    8.6688    2.5853 H   0  0  0  0  0  0  0  0  0  0  0  0
   12.3172   10.3488    2.1397 H   0  0  0  0  0  0  0  0  0  0  0  0
   12.3886   10.1897    3.9059 H   0  0  0  0  0  0  0  0  0  0  0  0
   10.1546   10.7911    2.1654 H   0  0  0  0  0  0  0  0  0  0  0  0
   10.2174   10.8183    3.9465 H   0  0  0  0  0  0  0  0  0  0  0  0
  1  2  2  3
  2  3  1  0
  2  4  1  0
  4  5  2  3
  5  6  1  0
  4  7  1  0
  7  8  1  0
  8  9  2  0
  8 10  1  0
 10 11  1  0
 11 12  1  0
 12 13  1  0
 13 14  1  0
 14 15  1  0
 14 16  1  0
 13 17  1  0
 17 18  1  0
 18 10  1  0
  1 19  1  0
  1 20  1  0
  3 21  1  0
  3 22  1  0
  3 23  1  0
  5 24  1  0
  6 25  1  0
  6 26  1  0
  6 27  1  0
  7 28  1  0
 10 29  1  0
 11 30  1  0
 11 31  1  0
 12 32  1  0
 12 33  1  0
 13 34  1  0
 14 35  1  0
 15 36  1  0
 15 37  1  0
 15 38  1  0
 16 39  1  0
 16 40  1  0
 16 41  1  0
 17 42  1  0
 17 43  1  0
 18 44  1  0
 18 45  1  0
M  CHG  1  16   1
M  END
>  <EmbedRMS>  (17) 
0.16480955270904202

$$$$

     RDKit          3D

 40 41  0  0  0  0  0  0  0  0999 V2000
   13.9332    7.3332    1.0251 C   0  0  0  0  0  0  0  0  0  0  0  0
   13.7125    7.9146    2.4297 C   0  0  0  0  0  0  0  0  0  0  0  0
   14.6504    9.0165    2.6726 N   0  0  0  0  0  4  0  0  0  0  0  0
   12.2364    8.2979    2.7979 C   0  0  0  0  0  0  0  0  0  0  0  0
   11.1515    7.3120    2.3262 C   0  0  0  0  0  0  0  0  0  0  0  0
    9.7912    7.9324    2.0765 C   0  0  0  0  0  0  0  0  0  0  0  0
    9.4261    8.9806    3.1220 C   0  0  0  0  0  0  0  0  0  0  0  0
    8.0225    9.4639    2.8667 C   0  0  0  0  0  0  0  0  0  0  0  0
    7.6546    9.6768    1.6802 O   0  0  0  0  0  0  0  0  0  0  0  0
    7.1435    9.7011    3.9767 N   0  0  0  0  0  0  0  0  0  0  0  0
    5.7719   10.1423    3.9218 C   0  0  0  0  0  0  0  0  0  0  0  0
    5.0682   10.2866    5.1272 C   0  0  0  0  0  0  0  0  0  0  0  0
    3.7425   10.7162    5.1245 C   0  0  0  0  0  0  0  0  0  0  0  0
    3.1199   11.0021    3.9115 C   0  0  0  0  0  0  0  0  0  0  0  0
    3.8030   10.8612    2.7487 N   0  0  0  0  0  0  0  0  0  0  0  0
    5.0935   10.4449    2.7201 C   0  0  0  0  0  0  0  0  0  0  0  0
   10.3969   10.1658    3.0679 C   0  0  0  0  0  0  0  0  0  0  0  0
   11.8884    9.7884    2.9926 C   0  0  0  0  0  0  0  0  0  0  0  0
   13.4390    7.9746    0.2649 H   0  0  0  0  0  0  0  0  0  0  0  0
   13.5402    6.2972    0.9560 H   0  0  0  0  0  0  0  0  0  0  0  0
   15.0172    7.2785    0.7884 H   0  0  0  0  0  0  0  0  0  0  0  0
   14.0108    7.0845    3.1148 H   0  0  0  0  0  0  0  0  0  0  0  0
   14.5446    9.3791    3.6472 H   0  0  0  0  0  0  0  0  0  0  0  0
   14.5091    9.7874    1.9809 H   0  0  0  0  0  0  0  0  0  0  0  0
   15.6338    8.6709    2.5809 H   0  0  0  0  0  0  0  0  0  0  0  0
   12.2424    8.0318    3.8833 H   0  0  0  0  0  0  0  0  0  0  0  0
   11.4353    6.8245    1.3751 H   0  0  0  0  0  0  0  0  0  0  0  0
   11.0353    6.4818    3.0616 H   0  0  0  0  0  0  0  0  0  0  0  0
    9.8005    8.4008    1.0657 H   0  0  0  0  0  0  0  0  0  0  0  0
    9.0262    7.1237    2.0652 H   0  0  0  0  0  0  0  0  0  0  0  0
    9.4833    8.5087    4.1284 H   0  0  0  0  0  0  0  0  0  0  0  0
    7.5457    9.5319    4.9268 H   0  0  0  0  0  0  0  0  0  0  0  0
    5.5478   10.0665    6.0729 H   0  0  0  0  0  0  0  0  0  0  0  0
    3.2017   10.8271    6.0555 H   0  0  0  0  0  0  0  0  0  0  0  0
    2.0913   11.3366    3.8945 H   0  0  0  0  0  0  0  0  0  0  0  0
    5.5409   10.3704    1.7502 H   0  0  0  0  0  0  0  0  0  0  0  0
   10.1534   10.7936    2.1801 H   0  0  0  0  0  0  0  0  0  0  0  0
   10.2256   10.8070    3.9610 H   0  0  0  0  0  0  0  0  0  0  0  0
   12.3112   10.3420    2.1274 H   0  0  0  0  0  0  0  0  0  0  0  0
   12.4001   10.1967    3.8942 H   0  0  0  0  0  0  0  0  0  0  0  0
  1  2  1  0
  2  3  1  0
  2  4  1  0
  4  5  1  0
  5  6  1  0
  6  7  1  0
  7  8  1  0
  8  9  2  0
  8 10  1  0
 10 11  1  0
 11 12  2  0
 12 13  1  0
 13 14  2  0
 14 15  1  0
 15 16  2  0
  7 17  1  0
 17 18  1  0
 18  4  1  0
 16 11  1  0
  1 19  1  0
  1 20  1  0
  1 21  1  0
  2 22  1  0
  3 23  1  0
  3 24  1  0
  3 25  1  0
  4 26  1  0
  5 27  1  0
  5 28  1  0
  6 29  1  0
  6 30  1  0
  7 31  1  0
 10 32  1  0
 12 33  1  0
 13 34  1  0
 14 35  1  0
 16 36  1  0
 17 37  1  0
 17 38  1  0
 18 39  1  0
 18 40  1  0
M  CHG  1   3   1
M  END
>  <EmbedRMS>  (18) 
0.16496192233382964

$$$$

     RDKit          3D

 44 45  0  0  0  0  0  0  0  0999 V2000
   13.9839    7.0986    1.1859 C   0  0  0  0  0  0  0  0  0  0  0  0
   13.5805    8.3573    1.9538 C   0  0  0  0  0  0  0  0  0  0  0  0
   14.7109    8.8841    2.7307 N   0  0  0  0  0  4  0  0  0  0  0  0
   12.2751    8.3221    2.7731 C   0  0  0  0  0  0  0  0  0  0  0  0
   11.1580    7.3128    2.3949 C   0  0  0  0  0  0  0  0  0  0  0  0
    9.7984    7.9226    2.0841 C   0  0  0  0  0  0  0  0  0  0  0  0
    9.4144    8.9888    3.1081 C   0  0  0  0  0  0  0  0  0  0  0  0
    8.0087    9.4688    2.8654 C   0  0  0  0  0  0  0  0  0  0  0  0
    7.6068    9.6884    1.6882 O   0  0  0  0  0  0  0  0  0  0  0  0
    7.1357    9.6903    3.9796 N   0  0  0  0  0  0  0  0  0  0  0  0
    5.7735   10.1841    3.8210 C   0  0  0  0  0  0  0  0  0  0  0  0
    5.7940   11.6487    3.5371 C   0  0  0  0  0  0  0  0  0  0  0  0
    5.6451   12.2639    2.3095 C   0  0  0  0  0  0  0  0  0  0  0  0
    5.7724   13.5950    2.4709 N   0  0  0  0  0  0  0  0  0  0  0  0
    6.0119   13.8216    3.7540 N   0  0  0  0  0  0  0  0  0  0  0  0
    6.1879   15.1475    4.3266 C   0  0  0  0  0  0  0  0  0  0  0  0
    6.0316   12.6636    4.4370 C   0  0  0  0  0  0  0  0  0  0  0  0
   10.3958   10.1516    3.0079 C   0  0  0  0  0  0  0  0  0  0  0  0
   11.8313    9.7200    3.3035 C   0  0  0  0  0  0  0  0  0  0  0  0
   15.0005    7.2114    0.7529 H   0  0  0  0  0  0  0  0  0  0  0  0
   13.9863    6.2216    1.8671 H   0  0  0  0  0  0  0  0  0  0  0  0
   13.2932    6.9111    0.3372 H   0  0  0  0  0  0  0  0  0  0  0  0
   13.3809    9.1010    1.1484 H   0  0  0  0  0  0  0  0  0  0  0  0
   14.9939    8.1902    3.4607 H   0  0  0  0  0  0  0  0  0  0  0  0
   15.5287    9.0534    2.1006 H   0  0  0  0  0  0  0  0  0  0  0  0
   14.4915    9.7903    3.1975 H   0  0  0  0  0  0  0  0  0  0  0  0
   12.6568    7.8404    3.7044 H   0  0  0  0  0  0  0  0  0  0  0  0
   11.4413    6.6843    1.5308 H   0  0  0  0  0  0  0  0  0  0  0  0
   11.0041    6.5965    3.2356 H   0  0  0  0  0  0  0  0  0  0  0  0
    9.0353    7.1124    2.0792 H   0  0  0  0  0  0  0  0  0  0  0  0
    9.8279    8.3625    1.0617 H   0  0  0  0  0  0  0  0  0  0  0  0
    9.4744    8.5458    4.1279 H   0  0  0  0  0  0  0  0  0  0  0  0
    7.4794    9.4927    4.9466 H   0  0  0  0  0  0  0  0  0  0  0  0
    5.2059   10.0091    4.7602 H   0  0  0  0  0  0  0  0  0  0  0  0
    5.2575    9.6320    3.0058 H   0  0  0  0  0  0  0  0  0  0  0  0
    5.4567   11.7772    1.3618 H   0  0  0  0  0  0  0  0  0  0  0  0
    7.0448   15.1443    5.0332 H   0  0  0  0  0  0  0  0  0  0  0  0
    5.2656   15.4435    4.8689 H   0  0  0  0  0  0  0  0  0  0  0  0
    6.3905   15.8875    3.5235 H   0  0  0  0  0  0  0  0  0  0  0  0
    6.2088   12.5665    5.5007 H   0  0  0  0  0  0  0  0  0  0  0  0
   10.1033   10.9533    3.7223 H   0  0  0  0  0  0  0  0  0  0  0  0
   10.3528   10.5881    1.9842 H   0  0  0  0  0  0  0  0  0  0  0  0
   11.9665    9.7515    4.4091 H   0  0  0  0  0  0  0  0  0  0  0  0
   12.4756   10.5267    2.8958 H   0  0  0  0  0  0  0  0  0  0  0  0
  1  2  1  0
  2  3  1  0
  2  4  1  0
  4  5  1  0
  5  6  1  0
  6  7  1  0
  7  8  1  0
  8  9  2  0
  8 10  1  0
 10 11  1  0
 11 12  1  0
 12 13  1  0
 13 14  2  0
 14 15  1  0
 15 16  1  0
 15 17  1  0
  7 18  1  0
 18 19  1  0
 19  4  1  0
 17 12  2  0
  1 20  1  0
  1 21  1  0
  1 22  1  0
  2 23  1  0
  3 24  1  0
  3 25  1  0
  3 26  1  0
  4 27  1  0
  5 28  1  0
  5 29  1  0
  6 30  1  0
  6 31  1  0
  7 32  1  0
 10 33  1  0
 11 34  1  0
 11 35  1  0
 13 36  1  0
 16 37  1  0
 16 38  1  0
 16 39  1  0
 17 40  1  0
 18 41  1  0
 18 42  1  0
 19 43  1  0
 19 44  1  0
M  CHG  1   3   1
M  END
>  <EmbedRMS>  (19) 
0.19659211194601114

$$$$

     RDKit          3D

 42 42  0  0  0  0  0  0  0  0999 V2000
    5.6442    9.9863    6.4267 C   0  0  0  0  0  0  0  0  0  0  0  0
    5.0643   10.2686    5.2531 C   0  0  0  0  0  0  0  0  0  0  0  0
    3.6248   10.7451    5.2920 C   0  0  0  0  0  0  0  0  0  0  0  0
    5.7993   10.1398    3.9420 C   0  0  0  0  0  0  0  0  0  0  0  0
    5.1203   10.4652    2.8175 C   0  0  0  0  0  0  0  0  0  0  0  0
    7.2071    9.7252    3.9020 N   0  0  0  0  0  0  0  0  0  0  0  0
    7.9946    9.5364    2.7026 C   0  0  0  0  0  0  0  0  0  0  0  0
    7.4640    9.6168    1.5746 O   0  0  0  0  0  0  0  0  0  0  0  0
    9.4581    9.2141    2.6473 C   0  0  0  0  0  0  0  0  0  0  0  0
    9.7401    7.7439    2.3770 C   0  0  0  0  0  0  0  0  0  0  0  0
   11.2019    7.3496    2.5443 C   0  0  0  0  0  0  0  0  0  0  0  0
   12.1849    8.5085    2.2981 C   0  0  0  0  0  0  0  0  0  0  0  0
   13.6484    7.9627    2.3855 C   0  0  0  0  0  0  0  0  0  0  0  0
   14.0286    7.2303    1.0858 C   0  0  0  0  0  0  0  0  0  0  0  0
   14.6296    9.0247    2.6464 N   0  0  0  0  0  4  0  0  0  0  0  0
   11.9007    9.6393    3.3209 C   0  0  0  0  0  0  0  0  0  0  0  0
   10.4224   10.0728    3.4398 C   0  0  0  0  0  0  0  0  0  0  0  0
    5.1004   10.0952    7.3570 H   0  0  0  0  0  0  0  0  0  0  0  0
    6.6506    9.6241    6.5348 H   0  0  0  0  0  0  0  0  0  0  0  0
    2.9775   10.0382    4.7315 H   0  0  0  0  0  0  0  0  0  0  0  0
    3.2212   10.8080    6.3258 H   0  0  0  0  0  0  0  0  0  0  0  0
    3.5504   11.7614    4.8508 H   0  0  0  0  0  0  0  0  0  0  0  0
    5.5158   10.5446    1.8288 H   0  0  0  0  0  0  0  0  0  0  0  0
    4.0804   10.7514    2.8275 H   0  0  0  0  0  0  0  0  0  0  0  0
    7.7400    9.5824    4.7820 H   0  0  0  0  0  0  0  0  0  0  0  0
    9.7358    9.6231    1.6427 H   0  0  0  0  0  0  0  0  0  0  0  0
    9.4030    7.4758    1.3485 H   0  0  0  0  0  0  0  0  0  0  0  0
    9.1325    7.1277    3.0763 H   0  0  0  0  0  0  0  0  0  0  0  0
   11.4017    6.4986    1.8624 H   0  0  0  0  0  0  0  0  0  0  0  0
   11.3477    6.9713    3.5814 H   0  0  0  0  0  0  0  0  0  0  0  0
   12.0138    8.9215    1.2783 H   0  0  0  0  0  0  0  0  0  0  0  0
   13.7180    7.2278    3.2204 H   0  0  0  0  0  0  0  0  0  0  0  0
   13.9575    7.9171    0.2155 H   0  0  0  0  0  0  0  0  0  0  0  0
   13.3813    6.3500    0.9049 H   0  0  0  0  0  0  0  0  0  0  0  0
   15.0720    6.8550    1.1506 H   0  0  0  0  0  0  0  0  0  0  0  0
   14.5186    9.3996    3.6156 H   0  0  0  0  0  0  0  0  0  0  0  0
   15.6013    8.6424    2.5826 H   0  0  0  0  0  0  0  0  0  0  0  0
   14.5276    9.7980    1.9491 H   0  0  0  0  0  0  0  0  0  0  0  0
   12.2458    9.3059    4.3252 H   0  0  0  0  0  0  0  0  0  0  0  0
   12.4962   10.5376    3.0498 H   0  0  0  0  0  0  0  0  0  0  0  0
   10.3162   11.1415    3.1418 H   0  0  0  0  0  0  0  0  0  0  0  0
   10.1291   10.0191    4.5104 H   0  0  0  0  0  0  0  0  0  0  0  0
  1  2  2  3
  2  3  1  0
  2  4  1  0
  4  5  2  3
  4  6  1  0
  6  7  1  0
  7  8  2  0
  7  9  1  0
  9 10  1  0
 10 11  1  0
 11 12  1  0
 12 13  1  0
 13 14  1  0
 13 15  1  0
 12 16  1  0
 16 17  1  0
 17  9  1  0
  1 18  1  0
  1 19  1  0
  3 20  1  0
  3 21  1  0
  3 22  1  0
  5 23  1  0
  5 24  1  0
  6 25  1  0
  9 26  1  0
 10 27  1  0
 10 28  1  0
 11 29  1  0
 11 30  1  0
 12 31  1  0
 13 32  1  0
 14 33  1  0
 14 34  1  0
 14 35  1  0
 15 36  1  0
 15 37  1  0
 15 38  1  0
 16 39  1  0
 16 40  1  0
 17 41  1  0
 17 42  1  0
M  CHG  1  15   1
M  END
>  <EmbedRMS>  (20) 
0.18263911859618057

$$$$

     RDKit          3D

 43 43  0  0  0  0  0  0  0  0999 V2000
   14.0146    7.0445    1.2242 C   0  0  0  0  0  0  0  0  0  0  0  0
   13.6556    8.3395    1.9330 C   0  0  0  0  0  0  0  0  0  0  0  0
   14.6184    8.7734    2.9398 N   0  0  0  0  0  4  0  0  0  0  0  0
   12.1448    8.5863    2.2322 C   0  0  0  0  0  0  0  0  0  0  0  0
   11.2656    7.3637    2.5388 C   0  0  0  0  0  0  0  0  0  0  0  0
    9.7674    7.7141    2.4306 C   0  0  0  0  0  0  0  0  0  0  0  0
    9.4460    9.1937    2.6555 C   0  0  0  0  0  0  0  0  0  0  0  0
    7.9824    9.5124    2.7303 C   0  0  0  0  0  0  0  0  0  0  0  0
    7.4094    9.6586    1.6225 O   0  0  0  0  0  0  0  0  0  0  0  0
    7.2288    9.7003    3.9392 N   0  0  0  0  0  0  0  0  0  0  0  0
    5.8269   10.1416    3.8902 C   0  0  0  0  0  0  0  0  0  0  0  0
    5.6901   11.6481    4.1506 C   0  0  0  0  0  0  0  0  0  0  0  0
    6.2706   12.5267    3.0282 C   0  0  0  0  0  0  0  0  0  0  0  0
    7.7254   12.7003    3.1457 N   0  0  0  0  0  4  0  0  0  0  0  0
   10.4081   10.0817    3.4304 C   0  0  0  0  0  0  0  0  0  0  0  0
   11.8916    9.6821    3.2871 C   0  0  0  0  0  0  0  0  0  0  0  0
   13.3416    6.8740    0.3563 H   0  0  0  0  0  0  0  0  0  0  0  0
   15.0597    7.0786    0.8476 H   0  0  0  0  0  0  0  0  0  0  0  0
   13.9249    6.1931    1.9310 H   0  0  0  0  0  0  0  0  0  0  0  0
   13.8457    9.0650    1.1030 H   0  0  0  0  0  0  0  0  0  0  0  0
   15.5936    8.5532    2.6321 H   0  0  0  0  0  0  0  0  0  0  0  0
   14.5683    9.8046    3.1013 H   0  0  0  0  0  0  0  0  0  0  0  0
   14.4333    8.2666    3.8352 H   0  0  0  0  0  0  0  0  0  0  0  0
   11.7517    8.9811    1.2660 H   0  0  0  0  0  0  0  0  0  0  0  0
   11.4955    6.9994    3.5643 H   0  0  0  0  0  0  0  0  0  0  0  0
   11.4755    6.5316    1.8354 H   0  0  0  0  0  0  0  0  0  0  0  0
    9.3870    7.3965    1.4326 H   0  0  0  0  0  0  0  0  0  0  0  0
    9.2166    7.1122    3.1859 H   0  0  0  0  0  0  0  0  0  0  0  0
    9.6828    9.5863    1.6370 H   0  0  0  0  0  0  0  0  0  0  0  0
    7.7104    9.6295    4.8632 H   0  0  0  0  0  0  0  0  0  0  0  0
    5.3469    9.8723    2.9247 H   0  0  0  0  0  0  0  0  0  0  0  0
    5.2653    9.5996    4.6810 H   0  0  0  0  0  0  0  0  0  0  0  0
    6.1402   11.9102    5.1328 H   0  0  0  0  0  0  0  0  0  0  0  0
    4.6039   11.8721    4.2304 H   0  0  0  0  0  0  0  0  0  0  0  0
    5.7781   13.5236    3.0893 H   0  0  0  0  0  0  0  0  0  0  0  0
    6.0066   12.1048    2.0325 H   0  0  0  0  0  0  0  0  0  0  0  0
    8.2041   12.2189    2.3518 H   0  0  0  0  0  0  0  0  0  0  0  0
    7.9628   13.7170    3.0841 H   0  0  0  0  0  0  0  0  0  0  0  0
    8.1062   12.3346    4.0481 H   0  0  0  0  0  0  0  0  0  0  0  0
   10.1346   10.0323    4.5063 H   0  0  0  0  0  0  0  0  0  0  0  0
   10.2782   11.1433    3.1214 H   0  0  0  0  0  0  0  0  0  0  0  0
   12.4598   10.5963    3.0099 H   0  0  0  0  0  0  0  0  0  0  0  0
   12.2700    9.3360    4.2741 H   0  0  0  0  0  0  0  0  0  0  0  0
  1  2  1  0
  2  3  1  0
  2  4  1  0
  4  5  1  0
  5  6  1  0
  6  7  1  0
  7  8  1  0
  8  9  2  0
  8 10  1  0
 10 11  1  0
 11 12  1  0
 12 13  1  0
 13 14  1  0
  7 15  1  0
 15 16  1  0
 16  4  1  0
  1 17  1  0
  1 18  1  0
  1 19  1  0
  2 20  1  0
  3 21  1  0
  3 22  1  0
  3 23  1  0
  4 24  1  0
  5 25  1  0
  5 26  1  0
  6 27  1  0
  6 28  1  0
  7 29  1  0
 10 30  1  0
 11 31  1  0
 11 32  1  0
 12 33  1  0
 12 34  1  0
 13 35  1  0
 13 36  1  0
 14 37  1  0
 14 38  1  0
 14 39  1  0
 15 40  1  0
 15 41  1  0
 16 42  1  0
 16 43  1  0
M  CHG  2   3   1  14   1
M  END
>  <EmbedRMS>  (21) 
0.26685653268904913

$$$$

     RDKit          3D

 41 41  0  0  0  0  0  0  0  0999 V2000
   14.0128    7.0451    1.2246 C   0  0  0  0  0  0  0  0  0  0  0  0
   13.6534    8.3401    1.9332 C   0  0  0  0  0  0  0  0  0  0  0  0
   14.6165    8.7744    2.9395 N   0  0  0  0  0  4  0  0  0  0  0  0
   12.1420    8.5872    2.2327 C   0  0  0  0  0  0  0  0  0  0  0  0
   11.2631    7.3648    2.5405 C   0  0  0  0  0  0  0  0  0  0  0  0
    9.7641    7.7145    2.4333 C   0  0  0  0  0  0  0  0  0  0  0  0
    9.4407    9.1935    2.6636 C   0  0  0  0  0  0  0  0  0  0  0  0
    7.9759    9.5184    2.7373 C   0  0  0  0  0  0  0  0  0  0  0  0
    7.4055    9.6789    1.6302 O   0  0  0  0  0  0  0  0  0  0  0  0
    7.2040    9.6832    3.9346 N   0  0  0  0  0  0  0  0  0  0  0  0
    5.8641   10.1055    3.8043 N   0  0  0  0  0  0  0  0  0  0  0  0
    5.0841   10.3002    4.8217 C   0  0  0  0  0  0  0  0  0  0  0  0
    3.7250   10.7402    4.6402 N   0  0  0  0  0  0  0  0  0  0  0  0
    3.1736   10.9931    3.3107 C   0  0  0  0  0  0  0  0  0  0  0  0
    2.9039   10.9373    5.7626 N   0  0  0  0  0  0  0  0  0  0  0  0
   10.4042   10.0821    3.4346 C   0  0  0  0  0  0  0  0  0  0  0  0
   11.8889    9.6848    3.2863 C   0  0  0  0  0  0  0  0  0  0  0  0
   13.3395    6.8740    0.3571 H   0  0  0  0  0  0  0  0  0  0  0  0
   13.9237    6.1938    1.9316 H   0  0  0  0  0  0  0  0  0  0  0  0
   15.0578    7.0796    0.8475 H   0  0  0  0  0  0  0  0  0  0  0  0
   13.8429    9.0655    1.1030 H   0  0  0  0  0  0  0  0  0  0  0  0
   14.5651    9.8056    3.1016 H   0  0  0  0  0  0  0  0  0  0  0  0
   15.5918    8.5556    2.6309 H   0  0  0  0  0  0  0  0  0  0  0  0
   14.4325    8.2671    3.8348 H   0  0  0  0  0  0  0  0  0  0  0  0
   11.7481    8.9809    1.2663 H   0  0  0  0  0  0  0  0  0  0  0  0
   11.4729    6.5322    1.8376 H   0  0  0  0  0  0  0  0  0  0  0  0
   11.4938    7.0013    3.5661 H   0  0  0  0  0  0  0  0  0  0  0  0
    9.2137    7.1097    3.1865 H   0  0  0  0  0  0  0  0  0  0  0  0
    9.3838    7.3994    1.4344 H   0  0  0  0  0  0  0  0  0  0  0  0
    9.6779    9.5856    1.6451 H   0  0  0  0  0  0  0  0  0  0  0  0
    7.6358    9.5215    4.8725 H   0  0  0  0  0  0  0  0  0  0  0  0
    5.4574   10.1340    5.8255 H   0  0  0  0  0  0  0  0  0  0  0  0
    3.7613   11.7883    2.8055 H   0  0  0  0  0  0  0  0  0  0  0  0
    3.2128   10.0634    2.7049 H   0  0  0  0  0  0  0  0  0  0  0  0
    2.1160   11.3250    3.3845 H   0  0  0  0  0  0  0  0  0  0  0  0
    2.8597   10.0339    6.2873 H   0  0  0  0  0  0  0  0  0  0  0  0
    3.3700   11.6423    6.3784 H   0  0  0  0  0  0  0  0  0  0  0  0
   10.1334   10.0287    4.5113 H   0  0  0  0  0  0  0  0  0  0  0  0
   10.2657   11.1447    3.1286 H   0  0  0  0  0  0  0  0  0  0  0  0
   12.2714    9.3416    4.2727 H   0  0  0  0  0  0  0  0  0  0  0  0
   12.4541   10.5996    3.0053 H   0  0  0  0  0  0  0  0  0  0  0  0
  1  2  1  0
  2  3  1  0
  2  4  1  0
  4  5  1  0
  5  6  1  0
  6  7  1  0
  7  8  1  0
  8  9  2  0
  8 10  1  0
 10 11  1  0
 11 12  2  3
 12 13  1  0
 13 14  1  0
 13 15  1  0
  7 16  1  0
 16 17  1  0
 17  4  1  0
  1 18  1  0
  1 19  1  0
  1 20  1  0
  2 21  1  0
  3 22  1  0
  3 23  1  0
  3 24  1  0
  4 25  1  0
  5 26  1  0
  5 27  1  0
  6 28  1  0
  6 29  1  0
  7 30  1  0
 10 31  1  0
 12 32  1  0
 14 33  1  0
 14 34  1  0
 14 35  1  0
 15 36  1  0
 15 37  1  0
 16 38  1  0
 16 39  1  0
 17 40  1  0
 17 41  1  0
M  CHG  1   3   1
M  END
>  <EmbedRMS>  (22) 
0.2570984896337683

$$$$

     RDKit          3D

 41 42  0  0  0  0  0  0  0  0999 V2000
   14.0118    7.0517    1.2522 C   0  0  0  0  0  0  0  0  0  0  0  0
   13.6020    8.3253    1.9903 C   0  0  0  0  0  0  0  0  0  0  0  0
   14.7050    8.8924    2.7685 N   0  0  0  0  0  4  0  0  0  0  0  0
   12.2650    8.3268    2.7707 C   0  0  0  0  0  0  0  0  0  0  0  0
   11.1829    7.4398    2.1386 C   0  0  0  0  0  0  0  0  0  0  0  0
    9.7507    7.7237    2.5558 C   0  0  0  0  0  0  0  0  0  0  0  0
    9.4585    9.1992    2.6619 C   0  0  0  0  0  0  0  0  0  0  0  0
    7.9970    9.5227    2.7184 C   0  0  0  0  0  0  0  0  0  0  0  0
    7.4793    9.6180    1.5856 O   0  0  0  0  0  0  0  0  0  0  0  0
    7.1945    9.7055    3.9114 N   0  0  0  0  0  0  0  0  0  0  0  0
    5.7992   10.1412    3.9120 C   0  0  0  0  0  0  0  0  0  0  0  0
    5.0935   10.4753    2.7225 C   0  0  0  0  0  0  0  0  0  0  0  0
    3.7645   10.8831    2.7557 C   0  0  0  0  0  0  0  0  0  0  0  0
    3.1002   10.9987    3.9684 C   0  0  0  0  0  0  0  0  0  0  0  0
    3.7665   10.6986    5.1556 C   0  0  0  0  0  0  0  0  0  0  0  0
    5.1016   10.2701    5.1348 C   0  0  0  0  0  0  0  0  0  0  0  0
    5.7100    9.9913    6.3139 F   0  0  0  0  0  0  0  0  0  0  0  0
   10.3920   10.0186    3.5028 C   0  0  0  0  0  0  0  0  0  0  0  0
   11.8542    9.7803    3.1308 C   0  0  0  0  0  0  0  0  0  0  0  0
   14.9820    7.1947    0.7304 H   0  0  0  0  0  0  0  0  0  0  0  0
   13.2662    6.7654    0.4823 H   0  0  0  0  0  0  0  0  0  0  0  0
   14.1197    6.2188    1.9784 H   0  0  0  0  0  0  0  0  0  0  0  0
   13.4355    9.0301    1.1425 H   0  0  0  0  0  0  0  0  0  0  0  0
   14.5244    9.8936    3.0049 H   0  0  0  0  0  0  0  0  0  0  0  0
   15.5941    8.8659    2.2181 H   0  0  0  0  0  0  0  0  0  0  0  0
   14.8407    8.3434    3.6483 H   0  0  0  0  0  0  0  0  0  0  0  0
   12.4747    7.8376    3.7487 H   0  0  0  0  0  0  0  0  0  0  0  0
   11.4113    6.3667    2.3232 H   0  0  0  0  0  0  0  0  0  0  0  0
   11.2124    7.5957    1.0379 H   0  0  0  0  0  0  0  0  0  0  0  0
    9.5711    7.2611    3.5508 H   0  0  0  0  0  0  0  0  0  0  0  0
    9.0581    7.2382    1.8317 H   0  0  0  0  0  0  0  0  0  0  0  0
    9.7489    9.5605    1.6426 H   0  0  0  0  0  0  0  0  0  0  0  0
    7.6645    9.5287    4.8271 H   0  0  0  0  0  0  0  0  0  0  0  0
    5.5071   10.4901    1.7384 H   0  0  0  0  0  0  0  0  0  0  0  0
    3.2493   11.1334    1.8364 H   0  0  0  0  0  0  0  0  0  0  0  0
    2.0689   11.3264    3.9931 H   0  0  0  0  0  0  0  0  0  0  0  0
    3.2462   10.7946    6.1001 H   0  0  0  0  0  0  0  0  0  0  0  0
   10.2436    9.7323    4.5668 H   0  0  0  0  0  0  0  0  0  0  0  0
   10.1518   11.1013    3.4082 H   0  0  0  0  0  0  0  0  0  0  0  0
   12.4801   10.1499    3.9720 H   0  0  0  0  0  0  0  0  0  0  0  0
   12.0653   10.4421    2.2618 H   0  0  0  0  0  0  0  0  0  0  0  0
  1  2  1  0
  2  3  1  0
  2  4  1  0
  4  5  1  0
  5  6  1  0
  6  7  1  0
  7  8  1  0
  8  9  2  0
  8 10  1  0
 10 11  1  0
 11 12  2  0
 12 13  1  0
 13 14  2  0
 14 15  1  0
 15 16  2  0
 16 17  1  0
  7 18  1  0
 18 19  1  0
 19  4  1  0
 16 11  1  0
  1 20  1  0
  1 21  1  0
  1 22  1  0
  2 23  1  0
  3 24  1  0
  3 25  1  0
  3 26  1  0
  4 27  1  0
  5 28  1  0
  5 29  1  0
  6 30  1  0
  6 31  1  0
  7 32  1  0
 10 33  1  0
 12 34  1  0
 13 35  1  0
 14 36  1  0
 15 37  1  0
 18 38  1  0
 18 39  1  0
 19 40  1  0
 19 41  1  0
M  CHG  1   3   1
M  END
>  <EmbedRMS>  (23) 
0.2845218485686444

$$$$

     RDKit          3D

 38 39  0  0  0  0  0  0  0  0999 V2000
   13.9842    7.0987    1.1853 C   0  0  0  0  0  0  0  0  0  0  0  0
   13.5812    8.3572    1.9537 C   0  0  0  0  0  0  0  0  0  0  0  0
   14.7119    8.8839    2.7302 N   0  0  0  0  0  4  0  0  0  0  0  0
   12.2765    8.3213    2.7737 C   0  0  0  0  0  0  0  0  0  0  0  0
   11.1597    7.3114    2.3967 C   0  0  0  0  0  0  0  0  0  0  0  0
    9.8012    7.9211    2.0835 C   0  0  0  0  0  0  0  0  0  0  0  0
    9.4166    8.9879    3.1066 C   0  0  0  0  0  0  0  0  0  0  0  0
    8.0125    9.4689    2.8599 C   0  0  0  0  0  0  0  0  0  0  0  0
    7.6232    9.6834    1.6795 O   0  0  0  0  0  0  0  0  0  0  0  0
    7.1436    9.7001    3.9777 N   0  0  0  0  0  0  0  0  0  0  0  0
    5.7812   10.1373    3.8965 C   0  0  0  0  0  0  0  0  0  0  0  0
    5.0590   10.4418    2.7529 C   0  0  0  0  0  0  0  0  0  0  0  0
    3.8212   10.8093    3.2325 C   0  0  0  0  0  0  0  0  0  0  0  0
    3.8279   10.7216    4.5742 N   0  0  0  0  0  0  0  0  0  0  0  0
    5.0150   10.3141    4.9886 N   0  0  0  0  0  0  0  0  0  0  0  0
   10.3981   10.1506    3.0073 C   0  0  0  0  0  0  0  0  0  0  0  0
   11.8327    9.7188    3.3047 C   0  0  0  0  0  0  0  0  0  0  0  0
   13.2929    6.9111    0.3372 H   0  0  0  0  0  0  0  0  0  0  0  0
   15.0005    7.2120    0.7515 H   0  0  0  0  0  0  0  0  0  0  0  0
   13.9876    6.2216    1.8665 H   0  0  0  0  0  0  0  0  0  0  0  0
   13.3808    9.1011    1.1485 H   0  0  0  0  0  0  0  0  0  0  0  0
   14.9955    8.1898    3.4595 H   0  0  0  0  0  0  0  0  0  0  0  0
   14.4928    9.7899    3.1975 H   0  0  0  0  0  0  0  0  0  0  0  0
   15.5292    9.0536    2.0996 H   0  0  0  0  0  0  0  0  0  0  0  0
   12.6593    7.8397    3.7046 H   0  0  0  0  0  0  0  0  0  0  0  0
   11.4436    6.6805    1.5344 H   0  0  0  0  0  0  0  0  0  0  0  0
   11.0047    6.5972    3.2389 H   0  0  0  0  0  0  0  0  0  0  0  0
    9.8330    8.3602    1.0608 H   0  0  0  0  0  0  0  0  0  0  0  0
    9.0379    7.1111    2.0779 H   0  0  0  0  0  0  0  0  0  0  0  0
    9.4755    8.5442    4.1262 H   0  0  0  0  0  0  0  0  0  0  0  0
    7.5254    9.5361    4.9365 H   0  0  0  0  0  0  0  0  0  0  0  0
    5.3557   10.4142    1.7158 H   0  0  0  0  0  0  0  0  0  0  0  0
    2.9703   11.1209    2.6412 H   0  0  0  0  0  0  0  0  0  0  0  0
    3.0273   10.9388    5.2077 H   0  0  0  0  0  0  0  0  0  0  0  0
   10.1052   10.9525    3.7212 H   0  0  0  0  0  0  0  0  0  0  0  0
   10.3568   10.5867    1.9833 H   0  0  0  0  0  0  0  0  0  0  0  0
   12.4776   10.5259    2.8988 H   0  0  0  0  0  0  0  0  0  0  0  0
   11.9660    9.7492    4.4105 H   0  0  0  0  0  0  0  0  0  0  0  0
  1  2  1  0
  2  3  1  0
  2  4  1  0
  4  5  1  0
  5  6  1  0
  6  7  1  0
  7  8  1  0
  8  9  2  0
  8 10  1  0
 10 11  1  0
 11 12  1  0
 12 13  2  0
 13 14  1  0
 14 15  1  0
  7 16  1  0
 16 17  1  0
 17  4  1  0
 15 11  2  0
  1 18  1  0
  1 19  1  0
  1 20  1  0
  2 21  1  0
  3 22  1  0
  3 23  1  0
  3 24  1  0
  4 25  1  0
  5 26  1  0
  5 27  1  0
  6 28  1  0
  6 29  1  0
  7 30  1  0
 10 31  1  0
 12 32  1  0
 13 33  1  0
 14 34  1  0
 16 35  1  0
 16 36  1  0
 17 37  1  0
 17 38  1  0
M  CHG  1   3   1
M  END
>  <EmbedRMS>  (24) 
0.20783527019262546

$$$$

     RDKit          3D

 41 42  0  0  0  0  0  0  0  0999 V2000
   14.0155    7.0452    1.2243 C   0  0  0  0  0  0  0  0  0  0  0  0
   13.6577    8.3402    1.9340 C   0  0  0  0  0  0  0  0  0  0  0  0
   14.6213    8.7734    2.9399 N   0  0  0  0  0  4  0  0  0  0  0  0
   12.1479    8.5868    2.2358 C   0  0  0  0  0  0  0  0  0  0  0  0
   11.2708    7.3634    2.5450 C   0  0  0  0  0  0  0  0  0  0  0  0
    9.7738    7.7130    2.4384 C   0  0  0  0  0  0  0  0  0  0  0  0
    9.4545    9.1902    2.6817 C   0  0  0  0  0  0  0  0  0  0  0  0
    7.9930    9.5119    2.7236 C   0  0  0  0  0  0  0  0  0  0  0  0
    7.4746    9.6077    1.5899 O   0  0  0  0  0  0  0  0  0  0  0  0
    7.1920    9.7025    3.9130 N   0  0  0  0  0  0  0  0  0  0  0  0
    5.8002   10.1396    3.9098 C   0  0  0  0  0  0  0  0  0  0  0  0
    5.1136   10.2622    5.1332 C   0  0  0  0  0  0  0  0  0  0  0  0
    3.7791   10.6918    5.1678 C   0  0  0  0  0  0  0  0  0  0  0  0
    3.1050   10.9965    3.9846 C   0  0  0  0  0  0  0  0  0  0  0  0
    3.7620   10.8848    2.7663 C   0  0  0  0  0  0  0  0  0  0  0  0
    5.0915   10.4774    2.7238 C   0  0  0  0  0  0  0  0  0  0  0  0
   10.4123   10.0785    3.4530 C   0  0  0  0  0  0  0  0  0  0  0  0
   11.8967    9.6862    3.2904 C   0  0  0  0  0  0  0  0  0  0  0  0
   13.3412    6.8748    0.3575 H   0  0  0  0  0  0  0  0  0  0  0  0
   15.0600    7.0795    0.8460 H   0  0  0  0  0  0  0  0  0  0  0  0
   13.9272    6.1936    1.9310 H   0  0  0  0  0  0  0  0  0  0  0  0
   13.8472    9.0661    1.1041 H   0  0  0  0  0  0  0  0  0  0  0  0
   14.4394    8.2635    3.8342 H   0  0  0  0  0  0  0  0  0  0  0  0
   14.5690    9.8041    3.1044 H   0  0  0  0  0  0  0  0  0  0  0  0
   15.5964    8.5564    2.6293 H   0  0  0  0  0  0  0  0  0  0  0  0
   11.7549    8.9789    1.2687 H   0  0  0  0  0  0  0  0  0  0  0  0
   11.4801    6.5302    1.8427 H   0  0  0  0  0  0  0  0  0  0  0  0
   11.5022    7.0014    3.5710 H   0  0  0  0  0  0  0  0  0  0  0  0
    9.3960    7.4069    1.4357 H   0  0  0  0  0  0  0  0  0  0  0  0
    9.2216    7.1022    3.1855 H   0  0  0  0  0  0  0  0  0  0  0  0
    9.7131    9.5882    1.6698 H   0  0  0  0  0  0  0  0  0  0  0  0
    7.6559    9.5263    4.8324 H   0  0  0  0  0  0  0  0  0  0  0  0
    5.6153   10.0259    6.0630 H   0  0  0  0  0  0  0  0  0  0  0  0
    3.2672   10.7820    6.1172 H   0  0  0  0  0  0  0  0  0  0  0  0
    2.0739   11.3242    4.0170 H   0  0  0  0  0  0  0  0  0  0  0  0
    3.2415   11.1383    1.8510 H   0  0  0  0  0  0  0  0  0  0  0  0
    5.5040   10.4952    1.7386 H   0  0  0  0  0  0  0  0  0  0  0  0
   10.1475   10.0136    4.5305 H   0  0  0  0  0  0  0  0  0  0  0  0
   10.2671   11.1433    3.1573 H   0  0  0  0  0  0  0  0  0  0  0  0
   12.4562   10.6027    3.0029 H   0  0  0  0  0  0  0  0  0  0  0  0
   12.2889    9.3466    4.2742 H   0  0  0  0  0  0  0  0  0  0  0  0
  1  2  1  0
  2  3  1  0
  2  4  1  0
  4  5  1  0
  5  6  1  0
  6  7  1  0
  7  8  1  0
  8  9  2  0
  8 10  1  0
 10 11  1  0
 11 12  2  0
 12 13  1  0
 13 14  2  0
 14 15  1  0
 15 16  2  0
  7 17  1  0
 17 18  1  0
 18  4  1  0
 16 11  1  0
  1 19  1  0
  1 20  1  0
  1 21  1  0
  2 22  1  0
  3 23  1  0
  3 24  1  0
  3 25  1  0
  4 26  1  0
  5 27  1  0
  5 28  1  0
  6 29  1  0
  6 30  1  0
  7 31  1  0
 10 32  1  0
 12 33  1  0
 13 34  1  0
 14 35  1  0
 15 36  1  0
 16 37  1  0
 17 38  1  0
 17 39  1  0
 18 40  1  0
 18 41  1  0
M  CHG  1   3   1
M  END
>  <EmbedRMS>  (25) 
0.24964892458419108

$$$$

     RDKit          3D

 38 39  0  0  0  0  0  0  0  0999 V2000
   13.9842    7.0987    1.1853 C   0  0  0  0  0  0  0  0  0  0  0  0
   13.5812    8.3572    1.9537 C   0  0  0  0  0  0  0  0  0  0  0  0
   14.7119    8.8839    2.7302 N   0  0  0  0  0  4  0  0  0  0  0  0
   12.2765    8.3213    2.7737 C   0  0  0  0  0  0  0  0  0  0  0  0
   11.1597    7.3114    2.3967 C   0  0  0  0  0  0  0  0  0  0  0  0
    9.8012    7.9211    2.0835 C   0  0  0  0  0  0  0  0  0  0  0  0
    9.4166    8.9879    3.1066 C   0  0  0  0  0  0  0  0  0  0  0  0
    8.0125    9.4689    2.8599 C   0  0  0  0  0  0  0  0  0  0  0  0
    7.6232    9.6834    1.6795 O   0  0  0  0  0  0  0  0  0  0  0  0
    7.1436    9.7001    3.9777 N   0  0  0  0  0  0  0  0  0  0  0  0
    5.7812   10.1373    3.8965 C   0  0  0  0  0  0  0  0  0  0  0  0
    5.0590   10.4418    2.7529 C   0  0  0  0  0  0  0  0  0  0  0  0
    3.8212   10.8093    3.2325 C   0  0  0  0  0  0  0  0  0  0  0  0
    3.8279   10.7216    4.5742 N   0  0  0  0  0  0  0  0  0  0  0  0
    5.0150   10.3141    4.9886 N   0  0  0  0  0  0  0  0  0  0  0  0
   10.3981   10.1506    3.0073 C   0  0  0  0  0  0  0  0  0  0  0  0
   11.8327    9.7188    3.3047 C   0  0  0  0  0  0  0  0  0  0  0  0
   13.2929    6.9111    0.3372 H   0  0  0  0  0  0  0  0  0  0  0  0
   15.0005    7.2120    0.7515 H   0  0  0  0  0  0  0  0  0  0  0  0
   13.9876    6.2216    1.8665 H   0  0  0  0  0  0  0  0  0  0  0  0
   13.3808    9.1011    1.1485 H   0  0  0  0  0  0  0  0  0  0  0  0
   14.9955    8.1898    3.4595 H   0  0  0  0  0  0  0  0  0  0  0  0
   14.4928    9.7899    3.1975 H   0  0  0  0  0  0  0  0  0  0  0  0
   15.5292    9.0536    2.0996 H   0  0  0  0  0  0  0  0  0  0  0  0
   12.6593    7.8397    3.7046 H   0  0  0  0  0  0  0  0  0  0  0  0
   11.4436    6.6805    1.5344 H   0  0  0  0  0  0  0  0  0  0  0  0
   11.0047    6.5972    3.2389 H   0  0  0  0  0  0  0  0  0  0  0  0
    9.8330    8.3602    1.0608 H   0  0  0  0  0  0  0  0  0  0  0  0
    9.0379    7.1111    2.0779 H   0  0  0  0  0  0  0  0  0  0  0  0
    9.4755    8.5442    4.1262 H   0  0  0  0  0  0  0  0  0  0  0  0
    7.5254    9.5361    4.9365 H   0  0  0  0  0  0  0  0  0  0  0  0
    5.3557   10.4142    1.7158 H   0  0  0  0  0  0  0  0  0  0  0  0
    2.9703   11.1209    2.6412 H   0  0  0  0  0  0  0  0  0  0  0  0
    3.0273   10.9388    5.2077 H   0  0  0  0  0  0  0  0  0  0  0  0
   10.1052   10.9525    3.7212 H   0  0  0  0  0  0  0  0  0  0  0  0
   10.3568   10.5867    1.9833 H   0  0  0  0  0  0  0  0  0  0  0  0
   12.4776   10.5259    2.8988 H   0  0  0  0  0  0  0  0  0  0  0  0
   11.9660    9.7492    4.4105 H   0  0  0  0  0  0  0  0  0  0  0  0
  1  2  1  0
  2  3  1  0
  2  4  1  0
  4  5  1  0
  5  6  1  0
  6  7  1  0
  7  8  1  0
  8  9  2  0
  8 10  1  0
 10 11  1  0
 11 12  1  0
 12 13  2  0
 13 14  1  0
 14 15  1  0
  7 16  1  0
 16 17  1  0
 17  4  1  0
 15 11  2  0
  1 18  1  0
  1 19  1  0
  1 20  1  0
  2 21  1  0
  3 22  1  0
  3 23  1  0
  3 24  1  0
  4 25  1  0
  5 26  1  0
  5 27  1  0
  6 28  1  0
  6 29  1  0
  7 30  1  0
 10 31  1  0
 12 32  1  0
 13 33  1  0
 14 34  1  0
 16 35  1  0
 16 36  1  0
 17 37  1  0
 17 38  1  0
M  CHG  1   3   1
M  END
>  <EmbedRMS>  (26) 
0.20783527019262546

$$$$

     RDKit          3D

 39 40  0  0  0  0  0  0  0  0999 V2000
   14.0110    7.0511    1.2526 C   0  0  0  0  0  0  0  0  0  0  0  0
   13.6007    8.3248    1.9901 C   0  0  0  0  0  0  0  0  0  0  0  0
   14.7033    8.8921    2.7690 N   0  0  0  0  0  4  0  0  0  0  0  0
   12.2625    8.3270    2.7691 C   0  0  0  0  0  0  0  0  0  0  0  0
   11.1802    7.4398    2.1370 C   0  0  0  0  0  0  0  0  0  0  0  0
    9.7464    7.7250    2.5506 C   0  0  0  0  0  0  0  0  0  0  0  0
    9.4528    9.2006    2.6508 C   0  0  0  0  0  0  0  0  0  0  0  0
    7.9907    9.5272    2.7197 C   0  0  0  0  0  0  0  0  0  0  0  0
    7.4511    9.6605    1.5982 O   0  0  0  0  0  0  0  0  0  0  0  0
    7.2032    9.6917    3.9188 N   0  0  0  0  0  0  0  0  0  0  0  0
    5.8190   10.1244    3.8864 C   0  0  0  0  0  0  0  0  0  0  0  0
    5.0492   10.4501    2.7707 C   0  0  0  0  0  0  0  0  0  0  0  0
    3.8118   10.8137    3.2504 C   0  0  0  0  0  0  0  0  0  0  0  0
    3.7917   10.7296    4.5924 N   0  0  0  0  0  0  0  0  0  0  0  0
    5.0092   10.3116    4.9903 C   0  0  0  0  0  0  0  0  0  0  0  0
   10.3879   10.0193    3.4937 C   0  0  0  0  0  0  0  0  0  0  0  0
   11.8511    9.7804    3.1265 C   0  0  0  0  0  0  0  0  0  0  0  0
   13.2659    6.7648    0.4822 H   0  0  0  0  0  0  0  0  0  0  0  0
   14.9817    7.1940    0.7316 H   0  0  0  0  0  0  0  0  0  0  0  0
   14.1182    6.2183    1.9789 H   0  0  0  0  0  0  0  0  0  0  0  0
   13.4353    9.0292    1.1418 H   0  0  0  0  0  0  0  0  0  0  0  0
   14.5218    9.8930    3.0061 H   0  0  0  0  0  0  0  0  0  0  0  0
   15.5925    8.8665    2.2188 H   0  0  0  0  0  0  0  0  0  0  0  0
   14.8389    8.3426    3.6484 H   0  0  0  0  0  0  0  0  0  0  0  0
   12.4711    7.8390    3.7480 H   0  0  0  0  0  0  0  0  0  0  0  0
   11.2117    7.5939    1.0361 H   0  0  0  0  0  0  0  0  0  0  0  0
   11.4077    6.3669    2.3236 H   0  0  0  0  0  0  0  0  0  0  0  0
    9.0547    7.2379    1.8268 H   0  0  0  0  0  0  0  0  0  0  0  0
    9.5649    7.2656    3.5467 H   0  0  0  0  0  0  0  0  0  0  0  0
    9.7356    9.5600    1.6294 H   0  0  0  0  0  0  0  0  0  0  0  0
    7.6552    9.5149    4.8435 H   0  0  0  0  0  0  0  0  0  0  0  0
    5.3065   10.4537    1.7245 H   0  0  0  0  0  0  0  0  0  0  0  0
    2.9693   11.1301    2.6494 H   0  0  0  0  0  0  0  0  0  0  0  0
    2.9817   10.9503    5.2127 H   0  0  0  0  0  0  0  0  0  0  0  0
    5.2923   10.1545    6.0229 H   0  0  0  0  0  0  0  0  0  0  0  0
   10.1492   11.1022    3.3982 H   0  0  0  0  0  0  0  0  0  0  0  0
   10.2369    9.7340    4.5575 H   0  0  0  0  0  0  0  0  0  0  0  0
   12.4748   10.1510    3.9689 H   0  0  0  0  0  0  0  0  0  0  0  0
   12.0642   10.4412    2.2573 H   0  0  0  0  0  0  0  0  0  0  0  0
  1  2  1  0
  2  3  1  0
  2  4  1  0
  4  5  1  0
  5  6  1  0
  6  7  1  0
  7  8  1  0
  8  9  2  0
  8 10  1  0
 10 11  1  0
 11 12  1  0
 12 13  2  0
 13 14  1  0
 14 15  1  0
  7 16  1  0
 16 17  1  0
 17  4  1  0
 15 11  2  0
  1 18  1  0
  1 19  1  0
  1 20  1  0
  2 21  1  0
  3 22  1  0
  3 23  1  0
  3 24  1  0
  4 25  1  0
  5 26  1  0
  5 27  1  0
  6 28  1  0
  6 29  1  0
  7 30  1  0
 10 31  1  0
 12 32  1  0
 13 33  1  0
 14 34  1  0
 15 35  1  0
 16 36  1  0
 16 37  1  0
 17 38  1  0
 17 39  1  0
M  CHG  1   3   1
M  END
>  <EmbedRMS>  (27) 
0.3005329260886256

$$$$

     RDKit          3D

 44 45  0  0  0  0  0  0  0  0999 V2000
   14.0107    7.0507    1.2528 C   0  0  0  0  0  0  0  0  0  0  0  0
   13.6001    8.3244    1.9899 C   0  0  0  0  0  0  0  0  0  0  0  0
   14.7023    8.8917    2.7695 N   0  0  0  0  0  4  0  0  0  0  0  0
   12.2609    8.3273    2.7676 C   0  0  0  0  0  0  0  0  0  0  0  0
   11.1786    7.4404    2.1351 C   0  0  0  0  0  0  0  0  0  0  0  0
    9.7437    7.7263    2.5465 C   0  0  0  0  0  0  0  0  0  0  0  0
    9.4484    9.2018    2.6425 C   0  0  0  0  0  0  0  0  0  0  0  0
    7.9862    9.5278    2.7260 C   0  0  0  0  0  0  0  0  0  0  0  0
    7.4191    9.6844    1.6169 O   0  0  0  0  0  0  0  0  0  0  0  0
    7.2141    9.6851    3.9298 N   0  0  0  0  0  0  0  0  0  0  0  0
    5.8145   10.1221    3.8055 C   0  0  0  0  0  0  0  0  0  0  0  0
    5.1470   10.2613    5.1399 C   0  0  0  0  0  0  0  0  0  0  0  0
    4.4698    9.1706    5.7071 C   0  0  0  0  0  0  0  0  0  0  0  0
    3.8614    9.2968    6.9587 C   0  0  0  0  0  0  0  0  0  0  0  0
    3.9277   10.5097    7.6502 C   0  0  0  0  0  0  0  0  0  0  0  0
    4.5995   11.5997    7.0894 C   0  0  0  0  0  0  0  0  0  0  0  0
    5.2092   11.4776    5.8378 C   0  0  0  0  0  0  0  0  0  0  0  0
   10.3852   10.0199    3.4864 C   0  0  0  0  0  0  0  0  0  0  0  0
   11.8489    9.7808    3.1224 C   0  0  0  0  0  0  0  0  0  0  0  0
   13.2661    6.7643    0.4821 H   0  0  0  0  0  0  0  0  0  0  0  0
   14.1173    6.2180    1.9794 H   0  0  0  0  0  0  0  0  0  0  0  0
   14.9818    7.1933    0.7325 H   0  0  0  0  0  0  0  0  0  0  0  0
   13.4358    9.0287    1.1412 H   0  0  0  0  0  0  0  0  0  0  0  0
   14.8375    8.3420    3.6488 H   0  0  0  0  0  0  0  0  0  0  0  0
   15.5918    8.8665    2.2197 H   0  0  0  0  0  0  0  0  0  0  0  0
   14.5204    9.8925    3.0070 H   0  0  0  0  0  0  0  0  0  0  0  0
   12.4682    7.8402    3.7472 H   0  0  0  0  0  0  0  0  0  0  0  0
   11.2114    7.5937    1.0342 H   0  0  0  0  0  0  0  0  0  0  0  0
   11.4054    6.3675    2.3226 H   0  0  0  0  0  0  0  0  0  0  0  0
    9.5615    7.2690    3.5435 H   0  0  0  0  0  0  0  0  0  0  0  0
    9.0528    7.2375    1.8233 H   0  0  0  0  0  0  0  0  0  0  0  0
    9.7212    9.5611    1.6190 H   0  0  0  0  0  0  0  0  0  0  0  0
    7.6562    9.5238    4.8629 H   0  0  0  0  0  0  0  0  0  0  0  0
    5.7793   11.0969    3.2708 H   0  0  0  0  0  0  0  0  0  0  0  0
    5.2537    9.3880    3.1857 H   0  0  0  0  0  0  0  0  0  0  0  0
    4.4183    8.2233    5.1846 H   0  0  0  0  0  0  0  0  0  0  0  0
    3.3412    8.4537    7.3946 H   0  0  0  0  0  0  0  0  0  0  0  0
    3.4574   10.6053    8.6204 H   0  0  0  0  0  0  0  0  0  0  0  0
    4.6501   12.5380    7.6265 H   0  0  0  0  0  0  0  0  0  0  0  0
    5.7334   12.3267    5.4168 H   0  0  0  0  0  0  0  0  0  0  0  0
   10.1475   11.1030    3.3905 H   0  0  0  0  0  0  0  0  0  0  0  0
   10.2328    9.7355    4.5504 H   0  0  0  0  0  0  0  0  0  0  0  0
   12.4712   10.1524    3.9655 H   0  0  0  0  0  0  0  0  0  0  0  0
   12.0633   10.4405    2.2527 H   0  0  0  0  0  0  0  0  0  0  0  0
  1  2  1  0
  2  3  1  0
  2  4  1  0
  4  5  1  0
  5  6  1  0
  6  7  1  0
  7  8  1  0
  8  9  2  0
  8 10  1  0
 10 11  1  0
 11 12  1  0
 12 13  2  0
 13 14  1  0
 14 15  2  0
 15 16  1  0
 16 17  2  0
  7 18  1  0
 18 19  1  0
 19  4  1  0
 17 12  1  0
  1 20  1  0
  1 21  1  0
  1 22  1  0
  2 23  1  0
  3 24  1  0
  3 25  1  0
  3 26  1  0
  4 27  1  0
  5 28  1  0
  5 29  1  0
  6 30  1  0
  6 31  1  0
  7 32  1  0
 10 33  1  0
 11 34  1  0
 11 35  1  0
 13 36  1  0
 14 37  1  0
 15 38  1  0
 16 39  1  0
 17 40  1  0
 18 41  1  0
 18 42  1  0
 19 43  1  0
 19 44  1  0
M  CHG  1   3   1
M  END
>  <EmbedRMS>  (28) 
0.2846631031672363

$$$$

     RDKit          3D

 41 42  0  0  0  0  0  0  0  0999 V2000
   14.0130    7.0484    1.2261 C   0  0  0  0  0  0  0  0  0  0  0  0
   13.6492    8.3422    1.9358 C   0  0  0  0  0  0  0  0  0  0  0  0
   14.6099    8.7779    2.9434 N   0  0  0  0  0  4  0  0  0  0  0  0
   12.1359    8.5854    2.2329 C   0  0  0  0  0  0  0  0  0  0  0  0
   11.2602    7.3606    2.5400 C   0  0  0  0  0  0  0  0  0  0  0  0
    9.7586    7.7005    2.4255 C   0  0  0  0  0  0  0  0  0  0  0  0
    9.4226    9.1768    2.6401 C   0  0  0  0  0  0  0  0  0  0  0  0
    7.9471    9.4974    2.6812 C   0  0  0  0  0  0  0  0  0  0  0  0
    7.4201    9.7855    1.5839 O   0  0  0  0  0  0  0  0  0  0  0  0
    7.0897    9.3616    3.8136 N   0  0  0  0  0  0  0  0  0  0  0  0
    6.3847   10.4926    4.3662 C   0  0  0  0  0  0  0  0  0  0  0  0
    5.7763   11.6348    3.6000 C   0  0  0  0  0  0  0  0  0  0  0  0
    4.7798   11.7292    4.7660 C   0  0  0  0  0  0  0  0  0  0  0  0
    5.1605   10.3154    5.2168 C   0  0  0  0  0  0  0  0  0  0  0  0
   10.3784   10.0722    3.4214 C   0  0  0  0  0  0  0  0  0  0  0  0
   11.8708    9.6844    3.2832 C   0  0  0  0  0  0  0  0  0  0  0  0
   13.3410    6.8762    0.3578 H   0  0  0  0  0  0  0  0  0  0  0  0
   13.9256    6.1962    1.9323 H   0  0  0  0  0  0  0  0  0  0  0  0
   15.0582    7.0861    0.8502 H   0  0  0  0  0  0  0  0  0  0  0  0
   13.8383    9.0689    1.1066 H   0  0  0  0  0  0  0  0  0  0  0  0
   14.4278    8.2665    3.8368 H   0  0  0  0  0  0  0  0  0  0  0  0
   15.5865    8.5660    2.6341 H   0  0  0  0  0  0  0  0  0  0  0  0
   14.5511    9.8080    3.1096 H   0  0  0  0  0  0  0  0  0  0  0  0
   11.7445    8.9749    1.2641 H   0  0  0  0  0  0  0  0  0  0  0  0
   11.4773    6.5268    1.8408 H   0  0  0  0  0  0  0  0  0  0  0  0
   11.4883    7.0007    3.5675 H   0  0  0  0  0  0  0  0  0  0  0  0
    9.3830    7.3733    1.4287 H   0  0  0  0  0  0  0  0  0  0  0  0
    9.2100    7.0986    3.1822 H   0  0  0  0  0  0  0  0  0  0  0  0
    9.6766    9.5612    1.6231 H   0  0  0  0  0  0  0  0  0  0  0  0
    7.3214    8.5932    4.4824 H   0  0  0  0  0  0  0  0  0  0  0  0
    7.1487   10.9683    5.0343 H   0  0  0  0  0  0  0  0  0  0  0  0
    5.2936   11.3025    2.6547 H   0  0  0  0  0  0  0  0  0  0  0  0
    6.4395   12.5225    3.5061 H   0  0  0  0  0  0  0  0  0  0  0  0
    5.0662   12.5070    5.5106 H   0  0  0  0  0  0  0  0  0  0  0  0
    3.7242   11.8038    4.4259 H   0  0  0  0  0  0  0  0  0  0  0  0
    4.4741    9.5385    4.8132 H   0  0  0  0  0  0  0  0  0  0  0  0
    5.3739   10.2370    6.3053 H   0  0  0  0  0  0  0  0  0  0  0  0
   10.0961   10.0152    4.4951 H   0  0  0  0  0  0  0  0  0  0  0  0
   10.2350   11.1336    3.1146 H   0  0  0  0  0  0  0  0  0  0  0  0
   12.4322   10.6018    3.0031 H   0  0  0  0  0  0  0  0  0  0  0  0
   12.2496    9.3457    4.2725 H   0  0  0  0  0  0  0  0  0  0  0  0
  1  2  1  0
  2  3  1  0
  2  4  1  0
  4  5  1  0
  5  6  1  0
  6  7  1  0
  7  8  1  0
  8  9  2  0
  8 10  1  0
 10 11  1  0
 11 12  1  0
 12 13  1  0
 13 14  1  0
  7 15  1  0
 15 16  1  0
 16  4  1  0
 14 11  1  0
  1 17  1  0
  1 18  1  0
  1 19  1  0
  2 20  1  0
  3 21  1  0
  3 22  1  0
  3 23  1  0
  4 24  1  0
  5 25  1  0
  5 26  1  0
  6 27  1  0
  6 28  1  0
  7 29  1  0
 10 30  1  0
 11 31  1  0
 12 32  1  0
 12 33  1  0
 13 34  1  0
 13 35  1  0
 14 36  1  0
 14 37  1  0
 15 38  1  0
 15 39  1  0
 16 40  1  0
 16 41  1  0
M  CHG  1   3   1
M  END
>  <EmbedRMS>  (29) 
0.37649910497839056

$$$$

     RDKit          3D

 42 42  0  0  0  0  0  0  0  0999 V2000
    8.6750    8.1658    7.0703 C   0  0  0  0  0  0  0  0  0  0  0  0
    8.3763    8.4580    5.8022 C   0  0  0  0  0  0  0  0  0  0  0  0
    7.3143    9.3915    5.3537 C   0  0  0  0  0  0  0  0  0  0  0  0
    6.4078    9.8578    6.2465 C   0  0  0  0  0  0  0  0  0  0  0  0
    5.2565   10.7471    5.8877 C   0  0  0  0  0  0  0  0  0  0  0  0
    7.1493    9.7152    3.9495 N   0  0  0  0  0  0  0  0  0  0  0  0
    7.9765    9.4983    2.7821 C   0  0  0  0  0  0  0  0  0  0  0  0
    7.4301    9.6608    1.6607 O   0  0  0  0  0  0  0  0  0  0  0  0
    9.4445    9.1811    2.6937 C   0  0  0  0  0  0  0  0  0  0  0  0
    9.7537    7.7156    2.4382 C   0  0  0  0  0  0  0  0  0  0  0  0
   11.2038    7.4507    2.0892 C   0  0  0  0  0  0  0  0  0  0  0  0
   12.2683    8.3270    2.7571 C   0  0  0  0  0  0  0  0  0  0  0  0
   13.6145    8.3244    1.9914 C   0  0  0  0  0  0  0  0  0  0  0  0
   14.0289    7.0506    1.2546 C   0  0  0  0  0  0  0  0  0  0  0  0
   14.7105    8.8911    2.7788 N   0  0  0  0  0  4  0  0  0  0  0  0
   11.8580    9.7797    3.1035 C   0  0  0  0  0  0  0  0  0  0  0  0
   10.4067   10.0105    3.5026 C   0  0  0  0  0  0  0  0  0  0  0  0
    9.4522    7.4407    7.2763 H   0  0  0  0  0  0  0  0  0  0  0  0
    8.2207    8.6429    7.9236 H   0  0  0  0  0  0  0  0  0  0  0  0
    8.9290    7.9270    5.0689 H   0  0  0  0  0  0  0  0  0  0  0  0
    6.4522    9.5905    7.2899 H   0  0  0  0  0  0  0  0  0  0  0  0
    5.6232   11.6730    5.3961 H   0  0  0  0  0  0  0  0  0  0  0  0
    4.7085   11.0385    6.8086 H   0  0  0  0  0  0  0  0  0  0  0  0
    4.5465   10.2109    5.2233 H   0  0  0  0  0  0  0  0  0  0  0  0
    6.2337   10.1339    3.6758 H   0  0  0  0  0  0  0  0  0  0  0  0
    9.6986    9.5966    1.6856 H   0  0  0  0  0  0  0  0  0  0  0  0
    9.1148    7.3426    1.6051 H   0  0  0  0  0  0  0  0  0  0  0  0
    9.4972    7.0769    3.2974 H   0  0  0  0  0  0  0  0  0  0  0  0
   11.2718    7.6249    0.9927 H   0  0  0  0  0  0  0  0  0  0  0  0
   11.4331    6.3748    2.2587 H   0  0  0  0  0  0  0  0  0  0  0  0
   12.4573    7.8339    3.7373 H   0  0  0  0  0  0  0  0  0  0  0  0
   13.4588    9.0294    1.1415 H   0  0  0  0  0  0  0  0  0  0  0  0
   14.1162    6.2135    1.9787 H   0  0  0  0  0  0  0  0  0  0  0  0
   13.3003    6.7723    0.4659 H   0  0  0  0  0  0  0  0  0  0  0  0
   15.0110    7.1880    0.7539 H   0  0  0  0  0  0  0  0  0  0  0  0
   14.5373    9.8979    2.9966 H   0  0  0  0  0  0  0  0  0  0  0  0
   15.6086    8.8475    2.2446 H   0  0  0  0  0  0  0  0  0  0  0  0
   14.8256    8.3542    3.6688 H   0  0  0  0  0  0  0  0  0  0  0  0
   12.4979   10.1655    3.9267 H   0  0  0  0  0  0  0  0  0  0  0  0
   12.0458   10.4293    2.2200 H   0  0  0  0  0  0  0  0  0  0  0  0
   10.1603   11.0919    3.4053 H   0  0  0  0  0  0  0  0  0  0  0  0
   10.3056    9.7529    4.5738 H   0  0  0  0  0  0  0  0  0  0  0  0
  1  2  2  3
  2  3  1  0
  3  4  2  3
  4  5  1  0
  3  6  1  0
  6  7  1  0
  7  8  2  0
  7  9  1  0
  9 10  1  0
 10 11  1  0
 11 12  1  0
 12 13  1  0
 13 14  1  0
 13 15  1  0
 12 16  1  0
 16 17  1  0
 17  9  1  0
  1 18  1  0
  1 19  1  0
  2 20  1  0
  4 21  1  0
  5 22  1  0
  5 23  1  0
  5 24  1  0
  6 25  1  0
  9 26  1  0
 10 27  1  0
 10 28  1  0
 11 29  1  0
 11 30  1  0
 12 31  1  0
 13 32  1  0
 14 33  1  0
 14 34  1  0
 14 35  1  0
 15 36  1  0
 15 37  1  0
 15 38  1  0
 16 39  1  0
 16 40  1  0
 17 41  1  0
 17 42  1  0
M  CHG  1  15   1
M  END
>  <EmbedRMS>  (30) 
0.29216731409503444

$$$$

     RDKit          3D

 43 43  0  0  0  0  0  0  0  0999 V2000
    6.4435   12.7934    4.2249 C   0  0  0  0  0  0  0  0  0  0  0  0
    5.8287   11.6204    3.4619 C   0  0  0  0  0  0  0  0  0  0  0  0
    6.0482   10.3602    4.3154 C   0  0  0  0  0  0  0  0  0  0  0  0
    4.7996    9.7680    4.9231 C   0  0  0  0  0  0  0  0  0  0  0  0
    7.0303    9.3771    3.8803 N   0  0  0  0  0  0  0  0  0  0  0  0
    7.9952    9.4698    2.8329 C   0  0  0  0  0  0  0  0  0  0  0  0
    7.6269    9.7505    1.6616 O   0  0  0  0  0  0  0  0  0  0  0  0
    9.4076    9.0017    3.0937 C   0  0  0  0  0  0  0  0  0  0  0  0
    9.7971    7.9237    2.0832 C   0  0  0  0  0  0  0  0  0  0  0  0
   11.1557    7.3147    2.4018 C   0  0  0  0  0  0  0  0  0  0  0  0
   12.2729    8.3254    2.7745 C   0  0  0  0  0  0  0  0  0  0  0  0
   13.5784    8.3588    1.9544 C   0  0  0  0  0  0  0  0  0  0  0  0
   13.9808    7.0998    1.1862 C   0  0  0  0  0  0  0  0  0  0  0  0
   14.7098    8.8846    2.7306 N   0  0  0  0  0  4  0  0  0  0  0  0
   11.8264    9.7235    3.3030 C   0  0  0  0  0  0  0  0  0  0  0  0
   10.3936   10.1595    2.9931 C   0  0  0  0  0  0  0  0  0  0  0  0
    7.5339   12.6379    4.3783 H   0  0  0  0  0  0  0  0  0  0  0  0
    5.9372   12.9432    5.2036 H   0  0  0  0  0  0  0  0  0  0  0  0
    6.3121   13.7215    3.6297 H   0  0  0  0  0  0  0  0  0  0  0  0
    4.7441   11.8152    3.3133 H   0  0  0  0  0  0  0  0  0  0  0  0
    6.2890   11.5531    2.4603 H   0  0  0  0  0  0  0  0  0  0  0  0
    6.5229   10.7015    5.2666 H   0  0  0  0  0  0  0  0  0  0  0  0
    4.2014   10.5529    5.4356 H   0  0  0  0  0  0  0  0  0  0  0  0
    4.1793    9.3143    4.1218 H   0  0  0  0  0  0  0  0  0  0  0  0
    5.0516    8.9773    5.6634 H   0  0  0  0  0  0  0  0  0  0  0  0
    7.1818    8.5848    4.5466 H   0  0  0  0  0  0  0  0  0  0  0  0
    9.4672    8.5742    4.1202 H   0  0  0  0  0  0  0  0  0  0  0  0
    9.8290    8.3532    1.0565 H   0  0  0  0  0  0  0  0  0  0  0  0
    9.0337    7.1137    2.0838 H   0  0  0  0  0  0  0  0  0  0  0  0
   10.9984    6.6064    3.2486 H   0  0  0  0  0  0  0  0  0  0  0  0
   11.4408    6.6778    1.5443 H   0  0  0  0  0  0  0  0  0  0  0  0
   12.6565    7.8465    3.7065 H   0  0  0  0  0  0  0  0  0  0  0  0
   13.3789    9.1028    1.1491 H   0  0  0  0  0  0  0  0  0  0  0  0
   13.2872    6.9109    0.3401 H   0  0  0  0  0  0  0  0  0  0  0  0
   14.9959    7.2135    0.7498 H   0  0  0  0  0  0  0  0  0  0  0  0
   13.9863    6.2235    1.8682 H   0  0  0  0  0  0  0  0  0  0  0  0
   14.9942    8.1894    3.4587 H   0  0  0  0  0  0  0  0  0  0  0  0
   15.5265    9.0555    2.0995 H   0  0  0  0  0  0  0  0  0  0  0  0
   14.4907    9.7897    3.1997 H   0  0  0  0  0  0  0  0  0  0  0  0
   12.4768   10.5295    2.9043 H   0  0  0  0  0  0  0  0  0  0  0  0
   11.9492    9.7522    4.4101 H   0  0  0  0  0  0  0  0  0  0  0  0
   10.0974   10.9668    3.6996 H   0  0  0  0  0  0  0  0  0  0  0  0
   10.3602   10.5886    1.9661 H   0  0  0  0  0  0  0  0  0  0  0  0
  1  2  1  0
  2  3  1  0
  3  4  1  0
  3  5  1  0
  5  6  1  0
  6  7  2  0
  6  8  1  0
  8  9  1  0
  9 10  1  0
 10 11  1  0
 11 12  1  0
 12 13  1  0
 12 14  1  0
 11 15  1  0
 15 16  1  0
 16  8  1  0
  1 17  1  0
  1 18  1  0
  1 19  1  0
  2 20  1  0
  2 21  1  0
  3 22  1  0
  4 23  1  0
  4 24  1  0
  4 25  1  0
  5 26  1  0
  8 27  1  0
  9 28  1  0
  9 29  1  0
 10 30  1  0
 10 31  1  0
 11 32  1  0
 12 33  1  0
 13 34  1  0
 13 35  1  0
 13 36  1  0
 14 37  1  0
 14 38  1  0
 14 39  1  0
 15 40  1  0
 15 41  1  0
 16 42  1  0
 16 43  1  0
M  CHG  1  14   1
M  END
>  <EmbedRMS>  (31) 
0.29993262092162043

$$$$

     RDKit          3D

 39 40  0  0  0  0  0  0  0  0999 V2000
   14.0110    7.0511    1.2526 C   0  0  0  0  0  0  0  0  0  0  0  0
   13.6007    8.3248    1.9901 C   0  0  0  0  0  0  0  0  0  0  0  0
   14.7033    8.8921    2.7690 N   0  0  0  0  0  4  0  0  0  0  0  0
   12.2625    8.3270    2.7691 C   0  0  0  0  0  0  0  0  0  0  0  0
   11.1802    7.4398    2.1370 C   0  0  0  0  0  0  0  0  0  0  0  0
    9.7464    7.7250    2.5506 C   0  0  0  0  0  0  0  0  0  0  0  0
    9.4528    9.2006    2.6508 C   0  0  0  0  0  0  0  0  0  0  0  0
    7.9907    9.5272    2.7197 C   0  0  0  0  0  0  0  0  0  0  0  0
    7.4511    9.6605    1.5982 O   0  0  0  0  0  0  0  0  0  0  0  0
    7.2032    9.6917    3.9188 N   0  0  0  0  0  0  0  0  0  0  0  0
    5.8190   10.1244    3.8864 C   0  0  0  0  0  0  0  0  0  0  0  0
    5.0492   10.4501    2.7707 C   0  0  0  0  0  0  0  0  0  0  0  0
    3.8118   10.8137    3.2504 C   0  0  0  0  0  0  0  0  0  0  0  0
    3.7917   10.7296    4.5924 N   0  0  0  0  0  0  0  0  0  0  0  0
    5.0092   10.3116    4.9903 C   0  0  0  0  0  0  0  0  0  0  0  0
   10.3879   10.0193    3.4937 C   0  0  0  0  0  0  0  0  0  0  0  0
   11.8511    9.7804    3.1265 C   0  0  0  0  0  0  0  0  0  0  0  0
   13.2659    6.7648    0.4822 H   0  0  0  0  0  0  0  0  0  0  0  0
   14.9817    7.1940    0.7316 H   0  0  0  0  0  0  0  0  0  0  0  0
   14.1182    6.2183    1.9789 H   0  0  0  0  0  0  0  0  0  0  0  0
   13.4353    9.0292    1.1418 H   0  0  0  0  0  0  0  0  0  0  0  0
   14.5218    9.8930    3.0061 H   0  0  0  0  0  0  0  0  0  0  0  0
   15.5925    8.8665    2.2188 H   0  0  0  0  0  0  0  0  0  0  0  0
   14.8389    8.3426    3.6484 H   0  0  0  0  0  0  0  0  0  0  0  0
   12.4711    7.8390    3.7480 H   0  0  0  0  0  0  0  0  0  0  0  0
   11.2117    7.5939    1.0361 H   0  0  0  0  0  0  0  0  0  0  0  0
   11.4077    6.3669    2.3236 H   0  0  0  0  0  0  0  0  0  0  0  0
    9.0547    7.2379    1.8268 H   0  0  0  0  0  0  0  0  0  0  0  0
    9.5649    7.2656    3.5467 H   0  0  0  0  0  0  0  0  0  0  0  0
    9.7356    9.5600    1.6294 H   0  0  0  0  0  0  0  0  0  0  0  0
    7.6552    9.5149    4.8435 H   0  0  0  0  0  0  0  0  0  0  0  0
    5.3065   10.4537    1.7245 H   0  0  0  0  0  0  0  0  0  0  0  0
    2.9693   11.1301    2.6494 H   0  0  0  0  0  0  0  0  0  0  0  0
    2.9817   10.9503    5.2127 H   0  0  0  0  0  0  0  0  0  0  0  0
    5.2923   10.1545    6.0229 H   0  0  0  0  0  0  0  0  0  0  0  0
   10.1492   11.1022    3.3982 H   0  0  0  0  0  0  0  0  0  0  0  0
   10.2369    9.7340    4.5575 H   0  0  0  0  0  0  0  0  0  0  0  0
   12.4748   10.1510    3.9689 H   0  0  0  0  0  0  0  0  0  0  0  0
   12.0642   10.4412    2.2573 H   0  0  0  0  0  0  0  0  0  0  0  0
  1  2  1  0
  2  3  1  0
  2  4  1  0
  4  5  1  0
  5  6  1  0
  6  7  1  0
  7  8  1  0
  8  9  2  0
  8 10  1  0
 10 11  1  0
 11 12  1  0
 12 13  2  0
 13 14  1  0
 14 15  1  0
  7 16  1  0
 16 17  1  0
 17  4  1  0
 15 11  2  0
  1 18  1  0
  1 19  1  0
  1 20  1  0
  2 21  1  0
  3 22  1  0
  3 23  1  0
  3 24  1  0
  4 25  1  0
  5 26  1  0
  5 27  1  0
  6 28  1  0
  6 29  1  0
  7 30  1  0
 10 31  1  0
 12 32  1  0
 13 33  1  0
 14 34  1  0
 15 35  1  0
 16 36  1  0
 16 37  1  0
 17 38  1  0
 17 39  1  0
M  CHG  1   3   1
M  END
>  <EmbedRMS>  (32) 
0.3005329260886256

$$$$

     RDKit          3D

 44 44  0  0  0  0  0  0  0  0999 V2000
   13.9334    7.3330    1.0253 C   0  0  0  0  0  0  0  0  0  0  0  0
   13.7118    7.9150    2.4296 C   0  0  0  0  0  0  0  0  0  0  0  0
   14.6496    9.0169    2.6727 N   0  0  0  0  0  4  0  0  0  0  0  0
   12.2351    8.2984    2.7966 C   0  0  0  0  0  0  0  0  0  0  0  0
   11.1502    7.3131    2.3232 C   0  0  0  0  0  0  0  0  0  0  0  0
    9.7894    7.9333    2.0729 C   0  0  0  0  0  0  0  0  0  0  0  0
    9.4245    8.9812    3.1177 C   0  0  0  0  0  0  0  0  0  0  0  0
    8.0182    9.4615    2.8688 C   0  0  0  0  0  0  0  0  0  0  0  0
    7.6244    9.6616    1.6854 O   0  0  0  0  0  0  0  0  0  0  0  0
    7.1502    9.7110    3.9824 N   0  0  0  0  0  0  0  0  0  0  0  0
    5.7481   10.1454    3.8690 C   0  0  0  0  0  0  0  0  0  0  0  0
    5.1834   10.2953    5.2967 C   0  0  0  0  0  0  0  0  0  0  0  0
    4.9325    9.0683    3.1206 C   0  0  0  0  0  0  0  0  0  0  0  0
    5.6947   11.4496    3.1718 N   0  0  0  0  0  0  0  0  0  0  0  0
    4.3581   11.8819    3.0608 N   0  0  0  0  0  0  0  0  0  0  0  0
   10.3948   10.1665    3.0637 C   0  0  0  0  0  0  0  0  0  0  0  0
   11.8869    9.7887    2.9933 C   0  0  0  0  0  0  0  0  0  0  0  0
   13.5400    6.2972    0.9562 H   0  0  0  0  0  0  0  0  0  0  0  0
   15.0176    7.2778    0.7896 H   0  0  0  0  0  0  0  0  0  0  0  0
   13.4402    7.9745    0.2645 H   0  0  0  0  0  0  0  0  0  0  0  0
   14.0096    7.0850    3.1151 H   0  0  0  0  0  0  0  0  0  0  0  0
   14.5092    9.7871    1.9801 H   0  0  0  0  0  0  0  0  0  0  0  0
   15.6330    8.6710    2.5826 H   0  0  0  0  0  0  0  0  0  0  0  0
   14.5425    9.3805    3.6468 H   0  0  0  0  0  0  0  0  0  0  0  0
   12.2401    8.0308    3.8817 H   0  0  0  0  0  0  0  0  0  0  0  0
   11.0336    6.4819    3.0575 H   0  0  0  0  0  0  0  0  0  0  0  0
   11.4347    6.8267    1.3717 H   0  0  0  0  0  0  0  0  0  0  0  0
    9.7975    8.4021    1.0623 H   0  0  0  0  0  0  0  0  0  0  0  0
    9.0244    7.1246    2.0620 H   0  0  0  0  0  0  0  0  0  0  0  0
    9.4838    8.5091    4.1239 H   0  0  0  0  0  0  0  0  0  0  0  0
    7.5612    9.5776    4.9352 H   0  0  0  0  0  0  0  0  0  0  0  0
    5.3145    9.3503    5.8673 H   0  0  0  0  0  0  0  0  0  0  0  0
    5.7156   11.1086    5.8354 H   0  0  0  0  0  0  0  0  0  0  0  0
    4.0982   10.5315    5.2847 H   0  0  0  0  0  0  0  0  0  0  0  0
    3.8445    9.2884    3.1657 H   0  0  0  0  0  0  0  0  0  0  0  0
    5.2205    9.0151    2.0510 H   0  0  0  0  0  0  0  0  0  0  0  0
    5.1026    8.0708    3.5800 H   0  0  0  0  0  0  0  0  0  0  0  0
    6.0696   11.3471    2.2020 H   0  0  0  0  0  0  0  0  0  0  0  0
    4.2777   12.4977    2.2177 H   0  0  0  0  0  0  0  0  0  0  0  0
    4.1726   12.5093    3.8759 H   0  0  0  0  0  0  0  0  0  0  0  0
   10.1524   10.7913    2.1734 H   0  0  0  0  0  0  0  0  0  0  0  0
   10.2210   10.8099    3.9546 H   0  0  0  0  0  0  0  0  0  0  0  0
   12.3129   10.3445    2.1310 H   0  0  0  0  0  0  0  0  0  0  0  0
   12.3952   10.1949    3.8977 H   0  0  0  0  0  0  0  0  0  0  0  0
  1  2  1  0
  2  3  1  0
  2  4  1  0
  4  5  1  0
  5  6  1  0
  6  7  1  0
  7  8  1  0
  8  9  2  0
  8 10  1  0
 10 11  1  0
 11 12  1  0
 11 13  1  0
 11 14  1  0
 14 15  1  0
  7 16  1  0
 16 17  1  0
 17  4  1  0
  1 18  1  0
  1 19  1  0
  1 20  1  0
  2 21  1  0
  3 22  1  0
  3 23  1  0
  3 24  1  0
  4 25  1  0
  5 26  1  0
  5 27  1  0
  6 28  1  0
  6 29  1  0
  7 30  1  0
 10 31  1  0
 12 32  1  0
 12 33  1  0
 12 34  1  0
 13 35  1  0
 13 36  1  0
 13 37  1  0
 14 38  1  0
 15 39  1  0
 15 40  1  0
 16 41  1  0
 16 42  1  0
 17 43  1  0
 17 44  1  0
M  CHG  1   3   1
M  END
>  <EmbedRMS>  (33) 
0.16937543786419249

$$$$

     RDKit          3D

 41 41  0  0  0  0  0  0  0  0999 V2000
    6.7770   12.3654    2.7126 C   0  0  0  0  0  0  0  0  0  0  0  0
    5.6974   11.5291    3.3298 C   0  0  0  0  0  0  0  0  0  0  0  0
    5.9071   10.3345    3.9183 C   0  0  0  0  0  0  0  0  0  0  0  0
    4.7582    9.7050    4.6113 C   0  0  0  0  0  0  0  0  0  0  0  0
    4.8526    8.5607    5.2060 N   0  0  0  0  0  0  0  0  0  0  0  0
    7.2208    9.7158    3.9414 N   0  0  0  0  0  0  0  0  0  0  0  0
    7.9775    9.5190    2.7303 C   0  0  0  0  0  0  0  0  0  0  0  0
    7.3964    9.6239    1.6236 O   0  0  0  0  0  0  0  0  0  0  0  0
    9.4425    9.2007    2.6418 C   0  0  0  0  0  0  0  0  0  0  0  0
    9.7426    7.7259    2.5455 C   0  0  0  0  0  0  0  0  0  0  0  0
   11.1775    7.4420    2.1332 C   0  0  0  0  0  0  0  0  0  0  0  0
   12.2590    8.3281    2.7672 C   0  0  0  0  0  0  0  0  0  0  0  0
   13.5991    8.3250    1.9902 C   0  0  0  0  0  0  0  0  0  0  0  0
   14.0099    7.0513    1.2530 C   0  0  0  0  0  0  0  0  0  0  0  0
   14.7010    8.8918    2.7704 N   0  0  0  0  0  4  0  0  0  0  0  0
   11.8456    9.7814    3.1211 C   0  0  0  0  0  0  0  0  0  0  0  0
   10.3808   10.0207    3.4839 C   0  0  0  0  0  0  0  0  0  0  0  0
    7.6955   12.3494    3.3368 H   0  0  0  0  0  0  0  0  0  0  0  0
    6.4283   13.4173    2.6458 H   0  0  0  0  0  0  0  0  0  0  0  0
    7.0012   12.0278    1.6823 H   0  0  0  0  0  0  0  0  0  0  0  0
    4.7076   11.9716    3.3608 H   0  0  0  0  0  0  0  0  0  0  0  0
    3.8001   10.2103    4.6298 H   0  0  0  0  0  0  0  0  0  0  0  0
    5.7349    8.0037    5.2308 H   0  0  0  0  0  0  0  0  0  0  0  0
    7.6110    9.3650    4.8441 H   0  0  0  0  0  0  0  0  0  0  0  0
    9.7090    9.5627    1.6178 H   0  0  0  0  0  0  0  0  0  0  0  0
    9.5621    7.2682    3.5427 H   0  0  0  0  0  0  0  0  0  0  0  0
    9.0524    7.2349    1.8230 H   0  0  0  0  0  0  0  0  0  0  0  0
   11.2101    7.5976    1.0326 H   0  0  0  0  0  0  0  0  0  0  0  0
   11.4051    6.3689    2.3187 H   0  0  0  0  0  0  0  0  0  0  0  0
   12.4654    7.8411    3.7469 H   0  0  0  0  0  0  0  0  0  0  0  0
   13.4354    9.0295    1.1417 H   0  0  0  0  0  0  0  0  0  0  0  0
   14.1161    6.2184    1.9794 H   0  0  0  0  0  0  0  0  0  0  0  0
   13.2655    6.7652    0.4819 H   0  0  0  0  0  0  0  0  0  0  0  0
   14.9812    7.1940    0.7331 H   0  0  0  0  0  0  0  0  0  0  0  0
   15.5904    8.8679    2.2205 H   0  0  0  0  0  0  0  0  0  0  0  0
   14.5184    9.8921    3.0094 H   0  0  0  0  0  0  0  0  0  0  0  0
   14.8365    8.3409    3.6489 H   0  0  0  0  0  0  0  0  0  0  0  0
   12.4672   10.1539    3.9643 H   0  0  0  0  0  0  0  0  0  0  0  0
   12.0602   10.4406    2.2511 H   0  0  0  0  0  0  0  0  0  0  0  0
   10.2276    9.7391    4.5485 H   0  0  0  0  0  0  0  0  0  0  0  0
   10.1427   11.1035    3.3855 H   0  0  0  0  0  0  0  0  0  0  0  0
  1  2  1  0
  2  3  2  3
  3  4  1  0
  4  5  2  3
  3  6  1  0
  6  7  1  0
  7  8  2  0
  7  9  1  0
  9 10  1  0
 10 11  1  0
 11 12  1  0
 12 13  1  0
 13 14  1  0
 13 15  1  0
 12 16  1  0
 16 17  1  0
 17  9  1  0
  1 18  1  0
  1 19  1  0
  1 20  1  0
  2 21  1  0
  4 22  1  0
  5 23  1  0
  6 24  1  0
  9 25  1  0
 10 26  1  0
 10 27  1  0
 11 28  1  0
 11 29  1  0
 12 30  1  0
 13 31  1  0
 14 32  1  0
 14 33  1  0
 14 34  1  0
 15 35  1  0
 15 36  1  0
 15 37  1  0
 16 38  1  0
 16 39  1  0
 17 40  1  0
 17 41  1  0
M  CHG  1  15   1
M  END
>  <EmbedRMS>  (34) 
0.3022183700925627

$$$$

     RDKit          3D

 43 43  0  0  0  0  0  0  0  0999 V2000
    5.7455   11.3191    6.0203 C   0  0  0  0  0  0  0  0  0  0  0  0
    5.0047   10.7821    4.8077 C   0  0  0  0  0  0  0  0  0  0  0  0
    3.5728   10.3507    5.0822 C   0  0  0  0  0  0  0  0  0  0  0  0
    5.7224    9.8551    3.8187 C   0  0  0  0  0  0  0  0  0  0  0  0
    7.1673    9.7742    3.9858 N   0  0  0  0  0  0  0  0  0  0  0  0
    8.0197    9.4860    2.8700 C   0  0  0  0  0  0  0  0  0  0  0  0
    7.6120    9.6782    1.6893 O   0  0  0  0  0  0  0  0  0  0  0  0
    9.4200    8.9947    3.1117 C   0  0  0  0  0  0  0  0  0  0  0  0
    9.7988    7.9256    2.0876 C   0  0  0  0  0  0  0  0  0  0  0  0
   11.1582    7.3137    2.3954 C   0  0  0  0  0  0  0  0  0  0  0  0
   12.2771    8.3213    2.7736 C   0  0  0  0  0  0  0  0  0  0  0  0
   13.5816    8.3566    1.9535 C   0  0  0  0  0  0  0  0  0  0  0  0
   13.9838    7.0979    1.1851 C   0  0  0  0  0  0  0  0  0  0  0  0
   14.7128    8.8826    2.7299 N   0  0  0  0  0  4  0  0  0  0  0  0
   11.8363    9.7189    3.3063 C   0  0  0  0  0  0  0  0  0  0  0  0
   10.4036   10.1539    3.0090 C   0  0  0  0  0  0  0  0  0  0  0  0
    6.6922   11.8134    5.7137 H   0  0  0  0  0  0  0  0  0  0  0  0
    5.9786   10.4860    6.7163 H   0  0  0  0  0  0  0  0  0  0  0  0
    5.1250   12.0678    6.5586 H   0  0  0  0  0  0  0  0  0  0  0  0
    4.8657   11.7152    4.2129 H   0  0  0  0  0  0  0  0  0  0  0  0
    3.0203   11.1491    5.6229 H   0  0  0  0  0  0  0  0  0  0  0  0
    3.0383   10.1417    4.1302 H   0  0  0  0  0  0  0  0  0  0  0  0
    3.5694    9.4316    5.7057 H   0  0  0  0  0  0  0  0  0  0  0  0
    5.4637   10.1654    2.7814 H   0  0  0  0  0  0  0  0  0  0  0  0
    5.3247    8.8235    3.9382 H   0  0  0  0  0  0  0  0  0  0  0  0
    7.5474    9.6168    4.9461 H   0  0  0  0  0  0  0  0  0  0  0  0
    9.4774    8.5519    4.1318 H   0  0  0  0  0  0  0  0  0  0  0  0
    9.0337    7.1173    2.0860 H   0  0  0  0  0  0  0  0  0  0  0  0
    9.8270    8.3640    1.0645 H   0  0  0  0  0  0  0  0  0  0  0  0
   11.4397    6.6861    1.5299 H   0  0  0  0  0  0  0  0  0  0  0  0
   11.0047    6.5964    3.2353 H   0  0  0  0  0  0  0  0  0  0  0  0
   12.6593    7.8378    3.7038 H   0  0  0  0  0  0  0  0  0  0  0  0
   13.3817    9.1007    1.1484 H   0  0  0  0  0  0  0  0  0  0  0  0
   15.0002    7.2104    0.7513 H   0  0  0  0  0  0  0  0  0  0  0  0
   13.9864    6.2209    1.8663 H   0  0  0  0  0  0  0  0  0  0  0  0
   13.2924    6.9108    0.3370 H   0  0  0  0  0  0  0  0  0  0  0  0
   14.4954    9.7894    3.1965 H   0  0  0  0  0  0  0  0  0  0  0  0
   15.5306    9.0506    2.0995 H   0  0  0  0  0  0  0  0  0  0  0  0
   14.9953    8.1887    3.4600 H   0  0  0  0  0  0  0  0  0  0  0  0
   12.4825   10.5253    2.9014 H   0  0  0  0  0  0  0  0  0  0  0  0
   11.9695    9.7477    4.4122 H   0  0  0  0  0  0  0  0  0  0  0  0
   10.1142   10.9583    3.7217 H   0  0  0  0  0  0  0  0  0  0  0  0
   10.3629   10.5881    1.9841 H   0  0  0  0  0  0  0  0  0  0  0  0
  1  2  1  0
  2  3  1  0
  2  4  1  0
  4  5  1  0
  5  6  1  0
  6  7  2  0
  6  8  1  0
  8  9  1  0
  9 10  1  0
 10 11  1  0
 11 12  1  0
 12 13  1  0
 12 14  1  0
 11 15  1  0
 15 16  1  0
 16  8  1  0
  1 17  1  0
  1 18  1  0
  1 19  1  0
  2 20  1  0
  3 21  1  0
  3 22  1  0
  3 23  1  0
  4 24  1  0
  4 25  1  0
  5 26  1  0
  8 27  1  0
  9 28  1  0
  9 29  1  0
 10 30  1  0
 10 31  1  0
 11 32  1  0
 12 33  1  0
 13 34  1  0
 13 35  1  0
 13 36  1  0
 14 37  1  0
 14 38  1  0
 14 39  1  0
 15 40  1  0
 15 41  1  0
 16 42  1  0
 16 43  1  0
M  CHG  1  14   1
M  END
>  <EmbedRMS>  (35) 
0.28373172213554615

$$$$

     RDKit          3D

 34 34  0  0  0  0  0  0  0  0999 V2000
   13.9319    7.3324    1.0260 C   0  0  0  0  0  0  0  0  0  0  0  0
   13.7094    7.9152    2.4298 C   0  0  0  0  0  0  0  0  0  0  0  0
   14.6478    9.0167    2.6729 N   0  0  0  0  0  4  0  0  0  0  0  0
   12.2321    8.2992    2.7961 C   0  0  0  0  0  0  0  0  0  0  0  0
   11.1459    7.3164    2.3206 C   0  0  0  0  0  0  0  0  0  0  0  0
    9.7822    7.9364    2.0766 C   0  0  0  0  0  0  0  0  0  0  0  0
    9.4185    8.9858    3.1216 C   0  0  0  0  0  0  0  0  0  0  0  0
    8.0095    9.4685    2.8765 C   0  0  0  0  0  0  0  0  0  0  0  0
    7.6075    9.6875    1.6984 O   0  0  0  0  0  0  0  0  0  0  0  0
    7.1324    9.7017    3.9817 N   0  0  0  0  0  0  0  0  0  0  0  0
    5.8098   10.1294    3.7799 N   0  0  0  0  0  4  0  0  0  0  0  0
   10.3923   10.1687    3.0638 C   0  0  0  0  0  0  0  0  0  0  0  0
   11.8846    9.7893    2.9956 C   0  0  0  0  0  0  0  0  0  0  0  0
   13.4422    7.9755    0.2643 H   0  0  0  0  0  0  0  0  0  0  0  0
   15.0163    7.2734    0.7925 H   0  0  0  0  0  0  0  0  0  0  0  0
   13.5348    6.2981    0.9563 H   0  0  0  0  0  0  0  0  0  0  0  0
   14.0066    7.0854    3.1158 H   0  0  0  0  0  0  0  0  0  0  0  0
   14.5402    9.3810    3.6467 H   0  0  0  0  0  0  0  0  0  0  0  0
   14.5081    9.7867    1.9797 H   0  0  0  0  0  0  0  0  0  0  0  0
   15.6310    8.6703    2.5835 H   0  0  0  0  0  0  0  0  0  0  0  0
   12.2358    8.0295    3.8806 H   0  0  0  0  0  0  0  0  0  0  0  0
   11.4288    6.8359    1.3656 H   0  0  0  0  0  0  0  0  0  0  0  0
   11.0323    6.4809    3.0505 H   0  0  0  0  0  0  0  0  0  0  0  0
    9.0178    7.1272    2.0692 H   0  0  0  0  0  0  0  0  0  0  0  0
    9.7843    8.4047    1.0658 H   0  0  0  0  0  0  0  0  0  0  0  0
    9.4778    8.5161    4.1290 H   0  0  0  0  0  0  0  0  0  0  0  0
    7.4811    9.5496    4.9557 H   0  0  0  0  0  0  0  0  0  0  0  0
    5.8225   11.0507    3.2859 H   0  0  0  0  0  0  0  0  0  0  0  0
    5.3042    9.4125    3.2113 H   0  0  0  0  0  0  0  0  0  0  0  0
    5.3418   10.2353    4.7088 H   0  0  0  0  0  0  0  0  0  0  0  0
   10.2191   10.8163    3.9518 H   0  0  0  0  0  0  0  0  0  0  0  0
   10.1512   10.7901    2.1709 H   0  0  0  0  0  0  0  0  0  0  0  0
   12.3131   10.3471    2.1359 H   0  0  0  0  0  0  0  0  0  0  0  0
   12.3914   10.1925    3.9022 H   0  0  0  0  0  0  0  0  0  0  0  0
  1  2  1  0
  2  3  1  0
  2  4  1  0
  4  5  1  0
  5  6  1  0
  6  7  1  0
  7  8  1  0
  8  9  2  0
  8 10  1  0
 10 11  1  0
  7 12  1  0
 12 13  1  0
 13  4  1  0
  1 14  1  0
  1 15  1  0
  1 16  1  0
  2 17  1  0
  3 18  1  0
  3 19  1  0
  3 20  1  0
  4 21  1  0
  5 22  1  0
  5 23  1  0
  6 24  1  0
  6 25  1  0
  7 26  1  0
 10 27  1  0
 11 28  1  0
 11 29  1  0
 11 30  1  0
 12 31  1  0
 12 32  1  0
 13 33  1  0
 13 34  1  0
M  CHG  2   3   1  11   1
M  END
>  <EmbedRMS>  (36) 
0.19250121644012902

$$$$

     RDKit          3D

 41 42  0  0  0  0  0  0  0  0999 V2000
   14.0095    7.0504    1.2533 C   0  0  0  0  0  0  0  0  0  0  0  0
   13.5989    8.3243    1.9899 C   0  0  0  0  0  0  0  0  0  0  0  0
   14.7011    8.8919    2.7694 N   0  0  0  0  0  4  0  0  0  0  0  0
   12.2592    8.3278    2.7674 C   0  0  0  0  0  0  0  0  0  0  0  0
   11.1759    7.4411    2.1356 C   0  0  0  0  0  0  0  0  0  0  0  0
    9.7400    7.7280    2.5467 C   0  0  0  0  0  0  0  0  0  0  0  0
    9.4448    9.2039    2.6453 C   0  0  0  0  0  0  0  0  0  0  0  0
    7.9811    9.5345    2.7316 C   0  0  0  0  0  0  0  0  0  0  0  0
    7.4312    9.7485    1.6252 O   0  0  0  0  0  0  0  0  0  0  0  0
    7.2028    9.6519    3.9403 N   0  0  0  0  0  0  0  0  0  0  0  0
    5.7647    9.8228    3.9029 C   0  0  0  0  0  0  0  0  0  0  0  0
    5.0339   10.6545    4.7293 C   0  0  0  0  0  0  0  0  0  0  0  0
    3.7178   10.4471    4.3485 C   0  0  0  0  0  0  0  0  0  0  0  0
    3.6678    9.5270    3.3645 N   0  0  0  0  0  0  0  0  0  0  0  0
    4.9080    9.1444    3.1025 N   0  0  0  0  0  0  0  0  0  0  0  0
    5.2116    8.0687    2.1641 C   0  0  0  0  0  0  0  0  0  0  0  0
   10.3846   10.0206    3.4874 C   0  0  0  0  0  0  0  0  0  0  0  0
   11.8476    9.7815    3.1207 C   0  0  0  0  0  0  0  0  0  0  0  0
   13.2641    6.7630    0.4837 H   0  0  0  0  0  0  0  0  0  0  0  0
   14.9800    7.1933    0.7318 H   0  0  0  0  0  0  0  0  0  0  0  0
   14.1174    6.2183    1.9804 H   0  0  0  0  0  0  0  0  0  0  0  0
   13.4348    9.0282    1.1409 H   0  0  0  0  0  0  0  0  0  0  0  0
   14.5199    9.8932    3.0051 H   0  0  0  0  0  0  0  0  0  0  0  0
   15.5910    8.8651    2.2203 H   0  0  0  0  0  0  0  0  0  0  0  0
   14.8352    8.3434    3.6497 H   0  0  0  0  0  0  0  0  0  0  0  0
   12.4662    7.8415    3.7474 H   0  0  0  0  0  0  0  0  0  0  0  0
   11.2089    7.5939    1.0347 H   0  0  0  0  0  0  0  0  0  0  0  0
   11.4022    6.3682    2.3235 H   0  0  0  0  0  0  0  0  0  0  0  0
    9.0483    7.2415    1.8226 H   0  0  0  0  0  0  0  0  0  0  0  0
    9.5565    7.2691    3.5427 H   0  0  0  0  0  0  0  0  0  0  0  0
    9.7192    9.5615    1.6215 H   0  0  0  0  0  0  0  0  0  0  0  0
    7.7017    9.7686    4.8500 H   0  0  0  0  0  0  0  0  0  0  0  0
    5.4044   11.3205    5.4970 H   0  0  0  0  0  0  0  0  0  0  0  0
    2.8492   10.9330    4.7718 H   0  0  0  0  0  0  0  0  0  0  0  0
    4.3831    7.3291    2.1649 H   0  0  0  0  0  0  0  0  0  0  0  0
    5.3078    8.4776    1.1374 H   0  0  0  0  0  0  0  0  0  0  0  0
    6.1374    7.5328    2.4609 H   0  0  0  0  0  0  0  0  0  0  0  0
   10.1473   11.1039    3.3931 H   0  0  0  0  0  0  0  0  0  0  0  0
   10.2352    9.7351    4.5514 H   0  0  0  0  0  0  0  0  0  0  0  0
   12.4714   10.1547    3.9619 H   0  0  0  0  0  0  0  0  0  0  0  0
   12.0600   10.4399    2.2495 H   0  0  0  0  0  0  0  0  0  0  0  0
  1  2  1  0
  2  3  1  0
  2  4  1  0
  4  5  1  0
  5  6  1  0
  6  7  1  0
  7  8  1  0
  8  9  2  0
  8 10  1  0
 10 11  1  0
 11 12  2  0
 12 13  1  0
 13 14  2  0
 14 15  1  0
 15 16  1  0
  7 17  1  0
 17 18  1  0
 18  4  1  0
 15 11  1  0
  1 19  1  0
  1 20  1  0
  1 21  1  0
  2 22  1  0
  3 23  1  0
  3 24  1  0
  3 25  1  0
  4 26  1  0
  5 27  1  0
  5 28  1  0
  6 29  1  0
  6 30  1  0
  7 31  1  0
 10 32  1  0
 12 33  1  0
 13 34  1  0
 16 35  1  0
 16 36  1  0
 16 37  1  0
 17 38  1  0
 17 39  1  0
 18 40  1  0
 18 41  1  0
M  CHG  1   3   1
M  END
>  <EmbedRMS>  (37) 
0.2930144483433324

$$$$

     RDKit          3D

 39 40  0  0  0  0  0  0  0  0999 V2000
   14.0110    7.0511    1.2526 C   0  0  0  0  0  0  0  0  0  0  0  0
   13.6007    8.3248    1.9901 C   0  0  0  0  0  0  0  0  0  0  0  0
   14.7033    8.8921    2.7690 N   0  0  0  0  0  4  0  0  0  0  0  0
   12.2625    8.3270    2.7691 C   0  0  0  0  0  0  0  0  0  0  0  0
   11.1802    7.4398    2.1370 C   0  0  0  0  0  0  0  0  0  0  0  0
    9.7464    7.7250    2.5506 C   0  0  0  0  0  0  0  0  0  0  0  0
    9.4528    9.2006    2.6508 C   0  0  0  0  0  0  0  0  0  0  0  0
    7.9907    9.5272    2.7197 C   0  0  0  0  0  0  0  0  0  0  0  0
    7.4511    9.6605    1.5982 O   0  0  0  0  0  0  0  0  0  0  0  0
    7.2032    9.6917    3.9188 N   0  0  0  0  0  0  0  0  0  0  0  0
    5.8190   10.1244    3.8864 C   0  0  0  0  0  0  0  0  0  0  0  0
    5.0492   10.4501    2.7707 C   0  0  0  0  0  0  0  0  0  0  0  0
    3.8118   10.8137    3.2504 C   0  0  0  0  0  0  0  0  0  0  0  0
    3.7917   10.7296    4.5924 N   0  0  0  0  0  0  0  0  0  0  0  0
    5.0092   10.3116    4.9903 C   0  0  0  0  0  0  0  0  0  0  0  0
   10.3879   10.0193    3.4937 C   0  0  0  0  0  0  0  0  0  0  0  0
   11.8511    9.7804    3.1265 C   0  0  0  0  0  0  0  0  0  0  0  0
   13.2659    6.7648    0.4822 H   0  0  0  0  0  0  0  0  0  0  0  0
   14.9817    7.1940    0.7316 H   0  0  0  0  0  0  0  0  0  0  0  0
   14.1182    6.2183    1.9789 H   0  0  0  0  0  0  0  0  0  0  0  0
   13.4353    9.0292    1.1418 H   0  0  0  0  0  0  0  0  0  0  0  0
   14.5218    9.8930    3.0061 H   0  0  0  0  0  0  0  0  0  0  0  0
   15.5925    8.8665    2.2188 H   0  0  0  0  0  0  0  0  0  0  0  0
   14.8389    8.3426    3.6484 H   0  0  0  0  0  0  0  0  0  0  0  0
   12.4711    7.8390    3.7480 H   0  0  0  0  0  0  0  0  0  0  0  0
   11.2117    7.5939    1.0361 H   0  0  0  0  0  0  0  0  0  0  0  0
   11.4077    6.3669    2.3236 H   0  0  0  0  0  0  0  0  0  0  0  0
    9.0547    7.2379    1.8268 H   0  0  0  0  0  0  0  0  0  0  0  0
    9.5649    7.2656    3.5467 H   0  0  0  0  0  0  0  0  0  0  0  0
    9.7356    9.5600    1.6294 H   0  0  0  0  0  0  0  0  0  0  0  0
    7.6552    9.5149    4.8435 H   0  0  0  0  0  0  0  0  0  0  0  0
    5.3065   10.4537    1.7245 H   0  0  0  0  0  0  0  0  0  0  0  0
    2.9693   11.1301    2.6494 H   0  0  0  0  0  0  0  0  0  0  0  0
    2.9817   10.9503    5.2127 H   0  0  0  0  0  0  0  0  0  0  0  0
    5.2923   10.1545    6.0229 H   0  0  0  0  0  0  0  0  0  0  0  0
   10.1492   11.1022    3.3982 H   0  0  0  0  0  0  0  0  0  0  0  0
   10.2369    9.7340    4.5575 H   0  0  0  0  0  0  0  0  0  0  0  0
   12.4748   10.1510    3.9689 H   0  0  0  0  0  0  0  0  0  0  0  0
   12.0642   10.4412    2.2573 H   0  0  0  0  0  0  0  0  0  0  0  0
  1  2  1  0
  2  3  1  0
  2  4  1  0
  4  5  1  0
  5  6  1  0
  6  7  1  0
  7  8  1  0
  8  9  2  0
  8 10  1  0
 10 11  1  0
 11 12  1  0
 12 13  2  0
 13 14  1  0
 14 15  1  0
  7 16  1  0
 16 17  1  0
 17  4  1  0
 15 11  2  0
  1 18  1  0
  1 19  1  0
  1 20  1  0
  2 21  1  0
  3 22  1  0
  3 23  1  0
  3 24  1  0
  4 25  1  0
  5 26  1  0
  5 27  1  0
  6 28  1  0
  6 29  1  0
  7 30  1  0
 10 31  1  0
 12 32  1  0
 13 33  1  0
 14 34  1  0
 15 35  1  0
 16 36  1  0
 16 37  1  0
 17 38  1  0
 17 39  1  0
M  CHG  1   3   1
M  END
>  <EmbedRMS>  (38) 
0.3005329260886256

$$$$

     RDKit          3D

 41 42  0  0  0  0  0  0  0  0999 V2000
   13.9848    7.0986    1.1851 C   0  0  0  0  0  0  0  0  0  0  0  0
   13.5818    8.3571    1.9535 C   0  0  0  0  0  0  0  0  0  0  0  0
   14.7125    8.8837    2.7300 N   0  0  0  0  0  4  0  0  0  0  0  0
   12.2774    8.3210    2.7736 C   0  0  0  0  0  0  0  0  0  0  0  0
   11.1608    7.3109    2.3965 C   0  0  0  0  0  0  0  0  0  0  0  0
    9.8027    7.9207    2.0828 C   0  0  0  0  0  0  0  0  0  0  0  0
    9.4191    8.9871    3.1060 C   0  0  0  0  0  0  0  0  0  0  0  0
    8.0160    9.4679    2.8600 C   0  0  0  0  0  0  0  0  0  0  0  0
    7.6248    9.6823    1.6801 O   0  0  0  0  0  0  0  0  0  0  0  0
    7.1498    9.7002    3.9783 N   0  0  0  0  0  0  0  0  0  0  0  0
    5.7892   10.1357    3.8873 C   0  0  0  0  0  0  0  0  0  0  0  0
    5.0500   10.4463    2.7574 C   0  0  0  0  0  0  0  0  0  0  0  0
    3.8154   10.8163    3.1459 N   0  0  0  0  0  0  0  0  0  0  0  0
    3.7653   10.7356    4.4672 N   0  0  0  0  0  0  0  0  0  0  0  0
    2.5952   11.0848    5.2570 C   0  0  0  0  0  0  0  0  0  0  0  0
    4.9506   10.3352    4.9580 C   0  0  0  0  0  0  0  0  0  0  0  0
   10.3996   10.1503    3.0069 C   0  0  0  0  0  0  0  0  0  0  0  0
   11.8338    9.7186    3.3047 C   0  0  0  0  0  0  0  0  0  0  0  0
   13.9881    6.2215    1.8662 H   0  0  0  0  0  0  0  0  0  0  0  0
   15.0011    7.2119    0.7512 H   0  0  0  0  0  0  0  0  0  0  0  0
   13.2935    6.9112    0.3369 H   0  0  0  0  0  0  0  0  0  0  0  0
   13.3814    9.1011    1.1484 H   0  0  0  0  0  0  0  0  0  0  0  0
   15.5300    9.0533    2.0994 H   0  0  0  0  0  0  0  0  0  0  0  0
   14.9961    8.1897    3.4594 H   0  0  0  0  0  0  0  0  0  0  0  0
   14.4937    9.7898    3.1972 H   0  0  0  0  0  0  0  0  0  0  0  0
   12.6603    7.8393    3.7045 H   0  0  0  0  0  0  0  0  0  0  0  0
   11.0055    6.5970    3.2390 H   0  0  0  0  0  0  0  0  0  0  0  0
   11.4449    6.6797    1.5345 H   0  0  0  0  0  0  0  0  0  0  0  0
    9.0392    7.1109    2.0771 H   0  0  0  0  0  0  0  0  0  0  0  0
    9.8350    8.3599    1.0601 H   0  0  0  0  0  0  0  0  0  0  0  0
    9.4783    8.5432    4.1255 H   0  0  0  0  0  0  0  0  0  0  0  0
    7.5318    9.5376    4.9374 H   0  0  0  0  0  0  0  0  0  0  0  0
    5.3608   10.4205    1.7246 H   0  0  0  0  0  0  0  0  0  0  0  0
    1.6866   11.0770    4.6182 H   0  0  0  0  0  0  0  0  0  0  0  0
    2.7274   12.0990    5.6885 H   0  0  0  0  0  0  0  0  0  0  0  0
    2.4588   10.3506    6.0792 H   0  0  0  0  0  0  0  0  0  0  0  0
    5.1820   10.2005    6.0071 H   0  0  0  0  0  0  0  0  0  0  0  0
   10.3586   10.5864    1.9829 H   0  0  0  0  0  0  0  0  0  0  0  0
   10.1064   10.9521    3.7209 H   0  0  0  0  0  0  0  0  0  0  0  0
   11.9668    9.7488    4.4106 H   0  0  0  0  0  0  0  0  0  0  0  0
   12.4789   10.5257    2.8991 H   0  0  0  0  0  0  0  0  0  0  0  0
  1  2  1  0
  2  3  1  0
  2  4  1  0
  4  5  1  0
  5  6  1  0
  6  7  1  0
  7  8  1  0
  8  9  2  0
  8 10  1  0
 10 11  1  0
 11 12  1  0
 12 13  2  0
 13 14  1  0
 14 15  1  0
 14 16  1  0
  7 17  1  0
 17 18  1  0
 18  4  1  0
 16 11  2  0
  1 19  1  0
  1 20  1  0
  1 21  1  0
  2 22  1  0
  3 23  1  0
  3 24  1  0
  3 25  1  0
  4 26  1  0
  5 27  1  0
  5 28  1  0
  6 29  1  0
  6 30  1  0
  7 31  1  0
 10 32  1  0
 12 33  1  0
 15 34  1  0
 15 35  1  0
 15 36  1  0
 16 37  1  0
 17 38  1  0
 17 39  1  0
 18 40  1  0
 18 41  1  0
M  CHG  1   3   1
M  END
>  <EmbedRMS>  (39) 
0.202216898800577

$$$$

     RDKit          3D

 33 33  0  0  0  0  0  0  0  0999 V2000
   13.9226    7.3284    1.0386 C   0  0  0  0  0  0  0  0  0  0  0  0
   13.7073    7.9211    2.4414 C   0  0  0  0  0  0  0  0  0  0  0  0
   14.6422    9.0269    2.6701 N   0  0  0  0  0  4  0  0  0  0  0  0
   12.2292    8.2936    2.8217 C   0  0  0  0  0  0  0  0  0  0  0  0
   11.1737    7.4160    2.1505 C   0  0  0  0  0  0  0  0  0  0  0  0
    9.7351    7.7233    2.5384 C   0  0  0  0  0  0  0  0  0  0  0  0
    9.4491    9.2031    2.6331 C   0  0  0  0  0  0  0  0  0  0  0  0
    7.9866    9.5369    2.7246 C   0  0  0  0  0  0  0  0  0  0  0  0
    7.4177    9.6891    1.6158 O   0  0  0  0  0  0  0  0  0  0  0  0
    7.2156    9.6912    3.9309 N   0  0  0  0  0  0  0  0  0  0  0  0
    5.8387   10.1108    3.8329 C   0  0  0  0  0  0  0  0  0  0  0  0
    4.9088   10.3365    5.1562 S   0  0  0  0  0  0  0  0  0  0  0  0
   10.4241   10.0508    3.4188 C   0  0  0  0  0  0  0  0  0  0  0  0
   11.8785    9.7842    2.9978 C   0  0  0  0  0  0  0  0  0  0  0  0
   14.9996    7.1183    0.8657 H   0  0  0  0  0  0  0  0  0  0  0  0
   13.5730    8.0450    0.2655 H   0  0  0  0  0  0  0  0  0  0  0  0
   13.3779    6.3679    0.9249 H   0  0  0  0  0  0  0  0  0  0  0  0
   14.0111    7.0970    3.1300 H   0  0  0  0  0  0  0  0  0  0  0  0
   15.6230    8.7092    2.4919 H   0  0  0  0  0  0  0  0  0  0  0  0
   14.4327    9.8277    2.0311 H   0  0  0  0  0  0  0  0  0  0  0  0
   14.5984    9.3366    3.6676 H   0  0  0  0  0  0  0  0  0  0  0  0
   12.1628    7.9501    3.8814 H   0  0  0  0  0  0  0  0  0  0  0  0
   11.3806    6.3427    2.3582 H   0  0  0  0  0  0  0  0  0  0  0  0
   11.2456    7.5650    1.0515 H   0  0  0  0  0  0  0  0  0  0  0  0
    9.0499    7.2406    1.8056 H   0  0  0  0  0  0  0  0  0  0  0  0
    9.5318    7.2690    3.5327 H   0  0  0  0  0  0  0  0  0  0  0  0
    9.7020    9.5358    1.5954 H   0  0  0  0  0  0  0  0  0  0  0  0
    7.6600    9.5302    4.8623 H   0  0  0  0  0  0  0  0  0  0  0  0
    5.3847   10.2936    2.8676 H   0  0  0  0  0  0  0  0  0  0  0  0
   10.3104    9.8096    4.4980 H   0  0  0  0  0  0  0  0  0  0  0  0
   10.1919   11.1305    3.2845 H   0  0  0  0  0  0  0  0  0  0  0  0
   12.0557   10.2954    2.0267 H   0  0  0  0  0  0  0  0  0  0  0  0
   12.5386   10.2610    3.7529 H   0  0  0  0  0  0  0  0  0  0  0  0
  1  2  1  0
  2  3  1  0
  2  4  1  0
  4  5  1  0
  5  6  1  0
  6  7  1  0
  7  8  1  0
  8  9  2  0
  8 10  1  0
 10 11  1  0
 11 12  2  0
  7 13  1  0
 13 14  1  0
 14  4  1  0
  1 15  1  0
  1 16  1  0
  1 17  1  0
  2 18  1  0
  3 19  1  0
  3 20  1  0
  3 21  1  0
  4 22  1  0
  5 23  1  0
  5 24  1  0
  6 25  1  0
  6 26  1  0
  7 27  1  0
 10 28  1  0
 11 29  1  0
 13 30  1  0
 13 31  1  0
 14 32  1  0
 14 33  1  0
M  CHG  1   3   1
M  END
>  <EmbedRMS>  (40) 
0.2961184258862318

$$$$

     RDKit          3D

 34 34  0  0  0  0  0  0  0  0999 V2000
    5.8329   10.1084    3.8848 C   0  0  0  0  0  0  0  0  0  0  0  0
    7.2300    9.6721    3.9456 N   0  0  0  0  0  0  0  0  0  0  0  0
    7.9825    9.5176    2.7336 C   0  0  0  0  0  0  0  0  0  0  0  0
    7.4038    9.6808    1.6309 O   0  0  0  0  0  0  0  0  0  0  0  0
    9.4450    9.1949    2.6523 C   0  0  0  0  0  0  0  0  0  0  0  0
    9.7659    7.7145    2.4310 C   0  0  0  0  0  0  0  0  0  0  0  0
   11.2645    7.3643    2.5394 C   0  0  0  0  0  0  0  0  0  0  0  0
   12.1440    8.5865    2.2316 C   0  0  0  0  0  0  0  0  0  0  0  0
   13.6550    8.3396    1.9330 C   0  0  0  0  0  0  0  0  0  0  0  0
   14.0142    7.0445    1.2245 C   0  0  0  0  0  0  0  0  0  0  0  0
   14.6175    8.7737    2.9400 N   0  0  0  0  0  4  0  0  0  0  0  0
   11.8902    9.6847    3.2842 C   0  0  0  0  0  0  0  0  0  0  0  0
   10.4057   10.0818    3.4290 C   0  0  0  0  0  0  0  0  0  0  0  0
    5.7674   11.1015    3.3922 H   0  0  0  0  0  0  0  0  0  0  0  0
    5.4215   10.1915    4.9127 H   0  0  0  0  0  0  0  0  0  0  0  0
    5.2299    9.3684    3.3173 H   0  0  0  0  0  0  0  0  0  0  0  0
    7.6848    9.4991    4.8697 H   0  0  0  0  0  0  0  0  0  0  0  0
    9.6804    9.5858    1.6329 H   0  0  0  0  0  0  0  0  0  0  0  0
    9.2153    7.1145    3.1879 H   0  0  0  0  0  0  0  0  0  0  0  0
    9.3849    7.3947    1.4340 H   0  0  0  0  0  0  0  0  0  0  0  0
   11.4945    7.0012    3.5653 H   0  0  0  0  0  0  0  0  0  0  0  0
   11.4746    6.5314    1.8369 H   0  0  0  0  0  0  0  0  0  0  0  0
   11.7511    8.9795    1.2646 H   0  0  0  0  0  0  0  0  0  0  0  0
   13.8453    9.0650    1.1029 H   0  0  0  0  0  0  0  0  0  0  0  0
   15.0594    7.0787    0.8480 H   0  0  0  0  0  0  0  0  0  0  0  0
   13.3413    6.8737    0.3566 H   0  0  0  0  0  0  0  0  0  0  0  0
   13.9245    6.1932    1.9314 H   0  0  0  0  0  0  0  0  0  0  0  0
   15.5929    8.5546    2.6319 H   0  0  0  0  0  0  0  0  0  0  0  0
   14.5663    9.8048    3.1021 H   0  0  0  0  0  0  0  0  0  0  0  0
   14.4328    8.2662    3.8350 H   0  0  0  0  0  0  0  0  0  0  0  0
   12.2711    9.3420    4.2714 H   0  0  0  0  0  0  0  0  0  0  0  0
   12.4559   10.5993    3.0033 H   0  0  0  0  0  0  0  0  0  0  0  0
   10.1327   10.0263    4.5050 H   0  0  0  0  0  0  0  0  0  0  0  0
   10.2681   11.1447    3.1242 H   0  0  0  0  0  0  0  0  0  0  0  0
  1  2  1  0
  2  3  1  0
  3  4  2  0
  3  5  1  0
  5  6  1  0
  6  7  1  0
  7  8  1  0
  8  9  1  0
  9 10  1  0
  9 11  1  0
  8 12  1  0
 12 13  1  0
 13  5  1  0
  1 14  1  0
  1 15  1  0
  1 16  1  0
  2 17  1  0
  5 18  1  0
  6 19  1  0
  6 20  1  0
  7 21  1  0
  7 22  1  0
  8 23  1  0
  9 24  1  0
 10 25  1  0
 10 26  1  0
 10 27  1  0
 11 28  1  0
 11 29  1  0
 11 30  1  0
 12 31  1  0
 12 32  1  0
 13 33  1  0
 13 34  1  0
M  CHG  1  11   1
M  END
>  <EmbedRMS>  (41) 
0.29639754771625826

$$$$

     RDKit          3D

 39 40  0  0  0  0  0  0  0  0999 V2000
   14.0110    7.0511    1.2526 C   0  0  0  0  0  0  0  0  0  0  0  0
   13.6007    8.3248    1.9901 C   0  0  0  0  0  0  0  0  0  0  0  0
   14.7033    8.8921    2.7690 N   0  0  0  0  0  4  0  0  0  0  0  0
   12.2625    8.3270    2.7691 C   0  0  0  0  0  0  0  0  0  0  0  0
   11.1802    7.4398    2.1370 C   0  0  0  0  0  0  0  0  0  0  0  0
    9.7464    7.7250    2.5506 C   0  0  0  0  0  0  0  0  0  0  0  0
    9.4528    9.2006    2.6508 C   0  0  0  0  0  0  0  0  0  0  0  0
    7.9907    9.5272    2.7197 C   0  0  0  0  0  0  0  0  0  0  0  0
    7.4511    9.6605    1.5982 O   0  0  0  0  0  0  0  0  0  0  0  0
    7.2032    9.6917    3.9188 N   0  0  0  0  0  0  0  0  0  0  0  0
    5.8190   10.1244    3.8864 C   0  0  0  0  0  0  0  0  0  0  0  0
    5.0492   10.4501    2.7707 C   0  0  0  0  0  0  0  0  0  0  0  0
    3.8118   10.8137    3.2504 C   0  0  0  0  0  0  0  0  0  0  0  0
    3.7917   10.7296    4.5924 N   0  0  0  0  0  0  0  0  0  0  0  0
    5.0092   10.3116    4.9903 C   0  0  0  0  0  0  0  0  0  0  0  0
   10.3879   10.0193    3.4937 C   0  0  0  0  0  0  0  0  0  0  0  0
   11.8511    9.7804    3.1265 C   0  0  0  0  0  0  0  0  0  0  0  0
   13.2659    6.7648    0.4822 H   0  0  0  0  0  0  0  0  0  0  0  0
   14.9817    7.1940    0.7316 H   0  0  0  0  0  0  0  0  0  0  0  0
   14.1182    6.2183    1.9789 H   0  0  0  0  0  0  0  0  0  0  0  0
   13.4353    9.0292    1.1418 H   0  0  0  0  0  0  0  0  0  0  0  0
   14.5218    9.8930    3.0061 H   0  0  0  0  0  0  0  0  0  0  0  0
   15.5925    8.8665    2.2188 H   0  0  0  0  0  0  0  0  0  0  0  0
   14.8389    8.3426    3.6484 H   0  0  0  0  0  0  0  0  0  0  0  0
   12.4711    7.8390    3.7480 H   0  0  0  0  0  0  0  0  0  0  0  0
   11.2117    7.5939    1.0361 H   0  0  0  0  0  0  0  0  0  0  0  0
   11.4077    6.3669    2.3236 H   0  0  0  0  0  0  0  0  0  0  0  0
    9.0547    7.2379    1.8268 H   0  0  0  0  0  0  0  0  0  0  0  0
    9.5649    7.2656    3.5467 H   0  0  0  0  0  0  0  0  0  0  0  0
    9.7356    9.5600    1.6294 H   0  0  0  0  0  0  0  0  0  0  0  0
    7.6552    9.5149    4.8435 H   0  0  0  0  0  0  0  0  0  0  0  0
    5.3065   10.4537    1.7245 H   0  0  0  0  0  0  0  0  0  0  0  0
    2.9693   11.1301    2.6494 H   0  0  0  0  0  0  0  0  0  0  0  0
    2.9817   10.9503    5.2127 H   0  0  0  0  0  0  0  0  0  0  0  0
    5.2923   10.1545    6.0229 H   0  0  0  0  0  0  0  0  0  0  0  0
   10.1492   11.1022    3.3982 H   0  0  0  0  0  0  0  0  0  0  0  0
   10.2369    9.7340    4.5575 H   0  0  0  0  0  0  0  0  0  0  0  0
   12.4748   10.1510    3.9689 H   0  0  0  0  0  0  0  0  0  0  0  0
   12.0642   10.4412    2.2573 H   0  0  0  0  0  0  0  0  0  0  0  0
  1  2  1  0
  2  3  1  0
  2  4  1  0
  4  5  1  0
  5  6  1  0
  6  7  1  0
  7  8  1  0
  8  9  2  0
  8 10  1  0
 10 11  1  0
 11 12  1  0
 12 13  2  0
 13 14  1  0
 14 15  1  0
  7 16  1  0
 16 17  1  0
 17  4  1  0
 15 11  2  0
  1 18  1  0
  1 19  1  0
  1 20  1  0
  2 21  1  0
  3 22  1  0
  3 23  1  0
  3 24  1  0
  4 25  1  0
  5 26  1  0
  5 27  1  0
  6 28  1  0
  6 29  1  0
  7 30  1  0
 10 31  1  0
 12 32  1  0
 13 33  1  0
 14 34  1  0
 15 35  1  0
 16 36  1  0
 16 37  1  0
 17 38  1  0
 17 39  1  0
M  CHG  1   3   1
M  END
>  <EmbedRMS>  (42) 
0.3005329260886256

$$$$

     RDKit          3D

 37 37  0  0  0  0  0  0  0  0999 V2000
   13.9221    7.3285    1.0385 C   0  0  0  0  0  0  0  0  0  0  0  0
   13.7076    7.9210    2.4415 C   0  0  0  0  0  0  0  0  0  0  0  0
   14.6427    9.0267    2.6699 N   0  0  0  0  0  4  0  0  0  0  0  0
   12.2298    8.2935    2.8227 C   0  0  0  0  0  0  0  0  0  0  0  0
   11.1735    7.4162    2.1521 C   0  0  0  0  0  0  0  0  0  0  0  0
    9.7354    7.7244    2.5407 C   0  0  0  0  0  0  0  0  0  0  0  0
    9.4522    9.2048    2.6377 C   0  0  0  0  0  0  0  0  0  0  0  0
    7.9904    9.5435    2.7176 C   0  0  0  0  0  0  0  0  0  0  0  0
    7.4423    9.6720    1.6001 O   0  0  0  0  0  0  0  0  0  0  0  0
    7.2114    9.7063    3.9231 N   0  0  0  0  0  0  0  0  0  0  0  0
    5.8409   10.1958    3.9359 C   0  0  0  0  0  0  0  0  0  0  0  0
    5.0243   10.2629    5.3562 S   0  0  0  0  0  0  0  0  0  0  0  0
    5.1729   10.8418    2.7438 C   0  0  0  0  0  0  0  0  0  0  0  0
    5.8007   12.5323    2.5133 S   0  0  0  0  0  0  0  0  0  0  0  0
   10.4261   10.0516    3.4237 C   0  0  0  0  0  0  0  0  0  0  0  0
   11.8800    9.7844    3.0012 C   0  0  0  0  0  0  0  0  0  0  0  0
   13.5722    8.0452    0.2658 H   0  0  0  0  0  0  0  0  0  0  0  0
   14.9990    7.1182    0.8650 H   0  0  0  0  0  0  0  0  0  0  0  0
   13.3771    6.3681    0.9250 H   0  0  0  0  0  0  0  0  0  0  0  0
   14.0118    7.0967    3.1298 H   0  0  0  0  0  0  0  0  0  0  0  0
   15.6233    8.7091    2.4908 H   0  0  0  0  0  0  0  0  0  0  0  0
   14.5998    9.3359    3.6676 H   0  0  0  0  0  0  0  0  0  0  0  0
   14.4327    9.8277    2.0314 H   0  0  0  0  0  0  0  0  0  0  0  0
   12.1640    7.9493    3.8821 H   0  0  0  0  0  0  0  0  0  0  0  0
   11.3801    6.3428    2.3599 H   0  0  0  0  0  0  0  0  0  0  0  0
   11.2451    7.5649    1.0530 H   0  0  0  0  0  0  0  0  0  0  0  0
    9.0496    7.2437    1.8072 H   0  0  0  0  0  0  0  0  0  0  0  0
    9.5314    7.2692    3.5344 H   0  0  0  0  0  0  0  0  0  0  0  0
    9.7141    9.5370    1.6017 H   0  0  0  0  0  0  0  0  0  0  0  0
    7.6639    9.4565    4.8309 H   0  0  0  0  0  0  0  0  0  0  0  0
    4.0799   10.9240    2.9290 H   0  0  0  0  0  0  0  0  0  0  0  0
    5.2455   10.2414    1.8195 H   0  0  0  0  0  0  0  0  0  0  0  0
    4.9597   12.7639    1.4083 H   0  0  0  0  0  0  0  0  0  0  0  0
   10.3125    9.8094    4.5026 H   0  0  0  0  0  0  0  0  0  0  0  0
   10.1939   11.1315    3.2903 H   0  0  0  0  0  0  0  0  0  0  0  0
   12.5408   10.2598    3.7565 H   0  0  0  0  0  0  0  0  0  0  0  0
   12.0572   10.2971    2.0308 H   0  0  0  0  0  0  0  0  0  0  0  0
  1  2  1  0
  2  3  1  0
  2  4  1  0
  4  5  1  0
  5  6  1  0
  6  7  1  0
  7  8  1  0
  8  9  2  0
  8 10  1  0
 10 11  1  0
 11 12  2  0
 11 13  1  0
 13 14  1  0
  7 15  1  0
 15 16  1  0
 16  4  1  0
  1 17  1  0
  1 18  1  0
  1 19  1  0
  2 20  1  0
  3 21  1  0
  3 22  1  0
  3 23  1  0
  4 24  1  0
  5 25  1  0
  5 26  1  0
  6 27  1  0
  6 28  1  0
  7 29  1  0
 10 30  1  0
 13 31  1  0
 13 32  1  0
 14 33  1  0
 15 34  1  0
 15 35  1  0
 16 36  1  0
 16 37  1  0
M  CHG  1   3   1
M  END
>  <EmbedRMS>  (43) 
0.2776559693615689

$$$$

     RDKit          3D

 42 42  0  0  0  0  0  0  0  0999 V2000
   13.9234    7.3282    1.0386 C   0  0  0  0  0  0  0  0  0  0  0  0
   13.7079    7.9209    2.4414 C   0  0  0  0  0  0  0  0  0  0  0  0
   14.6428    9.0266    2.6702 N   0  0  0  0  0  4  0  0  0  0  0  0
   12.2298    8.2935    2.8210 C   0  0  0  0  0  0  0  0  0  0  0  0
   11.1746    7.4157    2.1497 C   0  0  0  0  0  0  0  0  0  0  0  0
    9.7361    7.7255    2.5342 C   0  0  0  0  0  0  0  0  0  0  0  0
    9.4523    9.2060    2.6222 C   0  0  0  0  0  0  0  0  0  0  0  0
    7.9916    9.5375    2.7199 C   0  0  0  0  0  0  0  0  0  0  0  0
    7.4098    9.6814    1.6177 O   0  0  0  0  0  0  0  0  0  0  0  0
    7.2430    9.7107    3.9352 N   0  0  0  0  0  0  0  0  0  0  0  0
    5.8377   10.1462    3.8968 C   0  0  0  0  0  0  0  0  0  0  0  0
    5.7001   11.6554    4.1477 C   0  0  0  0  0  0  0  0  0  0  0  0
    6.2729   12.5211    3.0172 C   0  0  0  0  0  0  0  0  0  0  0  0
    7.7184   12.6623    3.1581 N   0  0  0  0  0  0  0  0  0  0  0  0
   10.4253   10.0519    3.4128 C   0  0  0  0  0  0  0  0  0  0  0  0
   11.8799    9.7843    2.9958 C   0  0  0  0  0  0  0  0  0  0  0  0
   13.3789    6.3676    0.9248 H   0  0  0  0  0  0  0  0  0  0  0  0
   13.5739    8.0448    0.2654 H   0  0  0  0  0  0  0  0  0  0  0  0
   15.0005    7.1183    0.8658 H   0  0  0  0  0  0  0  0  0  0  0  0
   14.0113    7.0967    3.1301 H   0  0  0  0  0  0  0  0  0  0  0  0
   14.4342    9.8271    2.0308 H   0  0  0  0  0  0  0  0  0  0  0  0
   14.5984    9.3367    3.6676 H   0  0  0  0  0  0  0  0  0  0  0  0
   15.6236    8.7085    2.4930 H   0  0  0  0  0  0  0  0  0  0  0  0
   12.1628    7.9508    3.8809 H   0  0  0  0  0  0  0  0  0  0  0  0
   11.2482    7.5625    1.0506 H   0  0  0  0  0  0  0  0  0  0  0  0
   11.3800    6.3425    2.3598 H   0  0  0  0  0  0  0  0  0  0  0  0
    9.5309    7.2752    3.5300 H   0  0  0  0  0  0  0  0  0  0  0  0
    9.0516    7.2410    1.8020 H   0  0  0  0  0  0  0  0  0  0  0  0
    9.7027    9.5387    1.5841 H   0  0  0  0  0  0  0  0  0  0  0  0
    7.7338    9.6428    4.8546 H   0  0  0  0  0  0  0  0  0  0  0  0
    5.2861    9.6087    4.6976 H   0  0  0  0  0  0  0  0  0  0  0  0
    5.3496    9.8674    2.9379 H   0  0  0  0  0  0  0  0  0  0  0  0
    4.6159   11.8835    4.2400 H   0  0  0  0  0  0  0  0  0  0  0  0
    6.1730   11.9219    5.1183 H   0  0  0  0  0  0  0  0  0  0  0  0
    5.8015   13.5288    3.0570 H   0  0  0  0  0  0  0  0  0  0  0  0
    6.0293   12.0755    2.0280 H   0  0  0  0  0  0  0  0  0  0  0  0
    7.9114   13.2705    3.9870 H   0  0  0  0  0  0  0  0  0  0  0  0
    8.0719   13.1789    2.3206 H   0  0  0  0  0  0  0  0  0  0  0  0
   10.3088    9.8100    4.4914 H   0  0  0  0  0  0  0  0  0  0  0  0
   10.1958   11.1319    3.2785 H   0  0  0  0  0  0  0  0  0  0  0  0
   12.5385   10.2610    3.7523 H   0  0  0  0  0  0  0  0  0  0  0  0
   12.0596   10.2951    2.0250 H   0  0  0  0  0  0  0  0  0  0  0  0
  1  2  1  0
  2  3  1  0
  2  4  1  0
  4  5  1  0
  5  6  1  0
  6  7  1  0
  7  8  1  0
  8  9  2  0
  8 10  1  0
 10 11  1  0
 11 12  1  0
 12 13  1  0
 13 14  1  0
  7 15  1  0
 15 16  1  0
 16  4  1  0
  1 17  1  0
  1 18  1  0
  1 19  1  0
  2 20  1  0
  3 21  1  0
  3 22  1  0
  3 23  1  0
  4 24  1  0
  5 25  1  0
  5 26  1  0
  6 27  1  0
  6 28  1  0
  7 29  1  0
 10 30  1  0
 11 31  1  0
 11 32  1  0
 12 33  1  0
 12 34  1  0
 13 35  1  0
 13 36  1  0
 14 37  1  0
 14 38  1  0
 15 39  1  0
 15 40  1  0
 16 41  1  0
 16 42  1  0
M  CHG  1   3   1
M  END
>  <EmbedRMS>  (44) 
0.2789738548505618

$$$$

     RDKit          3D

 42 42  0  0  0  0  0  0  0  0999 V2000
    5.6442    9.9863    6.4267 C   0  0  0  0  0  0  0  0  0  0  0  0
    5.0643   10.2686    5.2531 C   0  0  0  0  0  0  0  0  0  0  0  0
    3.6248   10.7451    5.2920 C   0  0  0  0  0  0  0  0  0  0  0  0
    5.7993   10.1398    3.9420 C   0  0  0  0  0  0  0  0  0  0  0  0
    5.1203   10.4652    2.8175 C   0  0  0  0  0  0  0  0  0  0  0  0
    7.2071    9.7252    3.9020 N   0  0  0  0  0  0  0  0  0  0  0  0
    7.9946    9.5364    2.7026 C   0  0  0  0  0  0  0  0  0  0  0  0
    7.4640    9.6168    1.5746 O   0  0  0  0  0  0  0  0  0  0  0  0
    9.4581    9.2141    2.6473 C   0  0  0  0  0  0  0  0  0  0  0  0
    9.7401    7.7439    2.3770 C   0  0  0  0  0  0  0  0  0  0  0  0
   11.2019    7.3496    2.5443 C   0  0  0  0  0  0  0  0  0  0  0  0
   12.1849    8.5085    2.2981 C   0  0  0  0  0  0  0  0  0  0  0  0
   13.6484    7.9627    2.3855 C   0  0  0  0  0  0  0  0  0  0  0  0
   14.0286    7.2303    1.0858 C   0  0  0  0  0  0  0  0  0  0  0  0
   14.6296    9.0247    2.6464 N   0  0  0  0  0  4  0  0  0  0  0  0
   11.9007    9.6393    3.3209 C   0  0  0  0  0  0  0  0  0  0  0  0
   10.4224   10.0728    3.4398 C   0  0  0  0  0  0  0  0  0  0  0  0
    5.1004   10.0952    7.3570 H   0  0  0  0  0  0  0  0  0  0  0  0
    6.6506    9.6241    6.5348 H   0  0  0  0  0  0  0  0  0  0  0  0
    2.9775   10.0382    4.7315 H   0  0  0  0  0  0  0  0  0  0  0  0
    3.2212   10.8080    6.3258 H   0  0  0  0  0  0  0  0  0  0  0  0
    3.5504   11.7614    4.8508 H   0  0  0  0  0  0  0  0  0  0  0  0
    5.5158   10.5446    1.8288 H   0  0  0  0  0  0  0  0  0  0  0  0
    4.0804   10.7514    2.8275 H   0  0  0  0  0  0  0  0  0  0  0  0
    7.7400    9.5824    4.7820 H   0  0  0  0  0  0  0  0  0  0  0  0
    9.7358    9.6231    1.6427 H   0  0  0  0  0  0  0  0  0  0  0  0
    9.4030    7.4758    1.3485 H   0  0  0  0  0  0  0  0  0  0  0  0
    9.1325    7.1277    3.0763 H   0  0  0  0  0  0  0  0  0  0  0  0
   11.4017    6.4986    1.8624 H   0  0  0  0  0  0  0  0  0  0  0  0
   11.3477    6.9713    3.5814 H   0  0  0  0  0  0  0  0  0  0  0  0
   12.0138    8.9215    1.2783 H   0  0  0  0  0  0  0  0  0  0  0  0
   13.7180    7.2278    3.2204 H   0  0  0  0  0  0  0  0  0  0  0  0
   13.9575    7.9171    0.2155 H   0  0  0  0  0  0  0  0  0  0  0  0
   13.3813    6.3500    0.9049 H   0  0  0  0  0  0  0  0  0  0  0  0
   15.0720    6.8550    1.1506 H   0  0  0  0  0  0  0  0  0  0  0  0
   14.5186    9.3996    3.6156 H   0  0  0  0  0  0  0  0  0  0  0  0
   15.6013    8.6424    2.5826 H   0  0  0  0  0  0  0  0  0  0  0  0
   14.5276    9.7980    1.9491 H   0  0  0  0  0  0  0  0  0  0  0  0
   12.2458    9.3059    4.3252 H   0  0  0  0  0  0  0  0  0  0  0  0
   12.4962   10.5376    3.0498 H   0  0  0  0  0  0  0  0  0  0  0  0
   10.3162   11.1415    3.1418 H   0  0  0  0  0  0  0  0  0  0  0  0
   10.1291   10.0191    4.5104 H   0  0  0  0  0  0  0  0  0  0  0  0
  1  2  2  3
  2  3  1  0
  2  4  1  0
  4  5  2  3
  4  6  1  0
  6  7  1  0
  7  8  2  0
  7  9  1  0
  9 10  1  0
 10 11  1  0
 11 12  1  0
 12 13  1  0
 13 14  1  0
 13 15  1  0
 12 16  1  0
 16 17  1  0
 17  9  1  0
  1 18  1  0
  1 19  1  0
  3 20  1  0
  3 21  1  0
  3 22  1  0
  5 23  1  0
  5 24  1  0
  6 25  1  0
  9 26  1  0
 10 27  1  0
 10 28  1  0
 11 29  1  0
 11 30  1  0
 12 31  1  0
 13 32  1  0
 14 33  1  0
 14 34  1  0
 14 35  1  0
 15 36  1  0
 15 37  1  0
 15 38  1  0
 16 39  1  0
 16 40  1  0
 17 41  1  0
 17 42  1  0
M  CHG  1  15   1
M  END
>  <EmbedRMS>  (45) 
0.18263911859618057

$$$$

     RDKit          3D

 41 42  0  0  0  0  0  0  0  0999 V2000
   14.0155    7.0452    1.2243 C   0  0  0  0  0  0  0  0  0  0  0  0
   13.6577    8.3402    1.9340 C   0  0  0  0  0  0  0  0  0  0  0  0
   14.6213    8.7734    2.9399 N   0  0  0  0  0  4  0  0  0  0  0  0
   12.1479    8.5868    2.2358 C   0  0  0  0  0  0  0  0  0  0  0  0
   11.2708    7.3634    2.5450 C   0  0  0  0  0  0  0  0  0  0  0  0
    9.7738    7.7130    2.4384 C   0  0  0  0  0  0  0  0  0  0  0  0
    9.4545    9.1902    2.6817 C   0  0  0  0  0  0  0  0  0  0  0  0
    7.9930    9.5119    2.7236 C   0  0  0  0  0  0  0  0  0  0  0  0
    7.4746    9.6077    1.5899 O   0  0  0  0  0  0  0  0  0  0  0  0
    7.1920    9.7025    3.9130 N   0  0  0  0  0  0  0  0  0  0  0  0
    5.8002   10.1396    3.9098 C   0  0  0  0  0  0  0  0  0  0  0  0
    5.1136   10.2622    5.1332 C   0  0  0  0  0  0  0  0  0  0  0  0
    3.7791   10.6918    5.1678 C   0  0  0  0  0  0  0  0  0  0  0  0
    3.1050   10.9965    3.9846 C   0  0  0  0  0  0  0  0  0  0  0  0
    3.7620   10.8848    2.7663 C   0  0  0  0  0  0  0  0  0  0  0  0
    5.0915   10.4774    2.7238 C   0  0  0  0  0  0  0  0  0  0  0  0
   10.4123   10.0785    3.4530 C   0  0  0  0  0  0  0  0  0  0  0  0
   11.8967    9.6862    3.2904 C   0  0  0  0  0  0  0  0  0  0  0  0
   13.3412    6.8748    0.3575 H   0  0  0  0  0  0  0  0  0  0  0  0
   15.0600    7.0795    0.8460 H   0  0  0  0  0  0  0  0  0  0  0  0
   13.9272    6.1936    1.9310 H   0  0  0  0  0  0  0  0  0  0  0  0
   13.8472    9.0661    1.1041 H   0  0  0  0  0  0  0  0  0  0  0  0
   14.4394    8.2635    3.8342 H   0  0  0  0  0  0  0  0  0  0  0  0
   14.5690    9.8041    3.1044 H   0  0  0  0  0  0  0  0  0  0  0  0
   15.5964    8.5564    2.6293 H   0  0  0  0  0  0  0  0  0  0  0  0
   11.7549    8.9789    1.2687 H   0  0  0  0  0  0  0  0  0  0  0  0
   11.4801    6.5302    1.8427 H   0  0  0  0  0  0  0  0  0  0  0  0
   11.5022    7.0014    3.5710 H   0  0  0  0  0  0  0  0  0  0  0  0
    9.3960    7.4069    1.4357 H   0  0  0  0  0  0  0  0  0  0  0  0
    9.2216    7.1022    3.1855 H   0  0  0  0  0  0  0  0  0  0  0  0
    9.7131    9.5882    1.6698 H   0  0  0  0  0  0  0  0  0  0  0  0
    7.6559    9.5263    4.8324 H   0  0  0  0  0  0  0  0  0  0  0  0
    5.6153   10.0259    6.0630 H   0  0  0  0  0  0  0  0  0  0  0  0
    3.2672   10.7820    6.1172 H   0  0  0  0  0  0  0  0  0  0  0  0
    2.0739   11.3242    4.0170 H   0  0  0  0  0  0  0  0  0  0  0  0
    3.2415   11.1383    1.8510 H   0  0  0  0  0  0  0  0  0  0  0  0
    5.5040   10.4952    1.7386 H   0  0  0  0  0  0  0  0  0  0  0  0
   10.1475   10.0136    4.5305 H   0  0  0  0  0  0  0  0  0  0  0  0
   10.2671   11.1433    3.1573 H   0  0  0  0  0  0  0  0  0  0  0  0
   12.4562   10.6027    3.0029 H   0  0  0  0  0  0  0  0  0  0  0  0
   12.2889    9.3466    4.2742 H   0  0  0  0  0  0  0  0  0  0  0  0
  1  2  1  0
  2  3  1  0
  2  4  1  0
  4  5  1  0
  5  6  1  0
  6  7  1  0
  7  8  1  0
  8  9  2  0
  8 10  1  0
 10 11  1  0
 11 12  2  0
 12 13  1  0
 13 14  2  0
 14 15  1  0
 15 16  2  0
  7 17  1  0
 17 18  1  0
 18  4  1  0
 16 11  1  0
  1 19  1  0
  1 20  1  0
  1 21  1  0
  2 22  1  0
  3 23  1  0
  3 24  1  0
  3 25  1  0
  4 26  1  0
  5 27  1  0
  5 28  1  0
  6 29  1  0
  6 30  1  0
  7 31  1  0
 10 32  1  0
 12 33  1  0
 13 34  1  0
 14 35  1  0
 15 36  1  0
 16 37  1  0
 17 38  1  0
 17 39  1  0
 18 40  1  0
 18 41  1  0
M  CHG  1   3   1
M  END
>  <EmbedRMS>  (46) 
0.24964892458419108

$$$$

     RDKit          3D

 41 42  0  0  0  0  0  0  0  0999 V2000
   14.0155    7.0452    1.2243 C   0  0  0  0  0  0  0  0  0  0  0  0
   13.6577    8.3402    1.9340 C   0  0  0  0  0  0  0  0  0  0  0  0
   14.6213    8.7734    2.9399 N   0  0  0  0  0  4  0  0  0  0  0  0
   12.1479    8.5868    2.2358 C   0  0  0  0  0  0  0  0  0  0  0  0
   11.2708    7.3634    2.5450 C   0  0  0  0  0  0  0  0  0  0  0  0
    9.7738    7.7130    2.4384 C   0  0  0  0  0  0  0  0  0  0  0  0
    9.4545    9.1902    2.6817 C   0  0  0  0  0  0  0  0  0  0  0  0
    7.9930    9.5119    2.7236 C   0  0  0  0  0  0  0  0  0  0  0  0
    7.4746    9.6077    1.5899 O   0  0  0  0  0  0  0  0  0  0  0  0
    7.1920    9.7025    3.9130 N   0  0  0  0  0  0  0  0  0  0  0  0
    5.8002   10.1396    3.9098 C   0  0  0  0  0  0  0  0  0  0  0  0
    5.1136   10.2622    5.1332 C   0  0  0  0  0  0  0  0  0  0  0  0
    3.7791   10.6918    5.1678 C   0  0  0  0  0  0  0  0  0  0  0  0
    3.1050   10.9965    3.9846 C   0  0  0  0  0  0  0  0  0  0  0  0
    3.7620   10.8848    2.7663 C   0  0  0  0  0  0  0  0  0  0  0  0
    5.0915   10.4774    2.7238 C   0  0  0  0  0  0  0  0  0  0  0  0
   10.4123   10.0785    3.4530 C   0  0  0  0  0  0  0  0  0  0  0  0
   11.8967    9.6862    3.2904 C   0  0  0  0  0  0  0  0  0  0  0  0
   13.3412    6.8748    0.3575 H   0  0  0  0  0  0  0  0  0  0  0  0
   15.0600    7.0795    0.8460 H   0  0  0  0  0  0  0  0  0  0  0  0
   13.9272    6.1936    1.9310 H   0  0  0  0  0  0  0  0  0  0  0  0
   13.8472    9.0661    1.1041 H   0  0  0  0  0  0  0  0  0  0  0  0
   14.4394    8.2635    3.8342 H   0  0  0  0  0  0  0  0  0  0  0  0
   14.5690    9.8041    3.1044 H   0  0  0  0  0  0  0  0  0  0  0  0
   15.5964    8.5564    2.6293 H   0  0  0  0  0  0  0  0  0  0  0  0
   11.7549    8.9789    1.2687 H   0  0  0  0  0  0  0  0  0  0  0  0
   11.4801    6.5302    1.8427 H   0  0  0  0  0  0  0  0  0  0  0  0
   11.5022    7.0014    3.5710 H   0  0  0  0  0  0  0  0  0  0  0  0
    9.3960    7.4069    1.4357 H   0  0  0  0  0  0  0  0  0  0  0  0
    9.2216    7.1022    3.1855 H   0  0  0  0  0  0  0  0  0  0  0  0
    9.7131    9.5882    1.6698 H   0  0  0  0  0  0  0  0  0  0  0  0
    7.6559    9.5263    4.8324 H   0  0  0  0  0  0  0  0  0  0  0  0
    5.6153   10.0259    6.0630 H   0  0  0  0  0  0  0  0  0  0  0  0
    3.2672   10.7820    6.1172 H   0  0  0  0  0  0  0  0  0  0  0  0
    2.0739   11.3242    4.0170 H   0  0  0  0  0  0  0  0  0  0  0  0
    3.2415   11.1383    1.8510 H   0  0  0  0  0  0  0  0  0  0  0  0
    5.5040   10.4952    1.7386 H   0  0  0  0  0  0  0  0  0  0  0  0
   10.1475   10.0136    4.5305 H   0  0  0  0  0  0  0  0  0  0  0  0
   10.2671   11.1433    3.1573 H   0  0  0  0  0  0  0  0  0  0  0  0
   12.4562   10.6027    3.0029 H   0  0  0  0  0  0  0  0  0  0  0  0
   12.2889    9.3466    4.2742 H   0  0  0  0  0  0  0  0  0  0  0  0
  1  2  1  0
  2  3  1  0
  2  4  1  0
  4  5  1  0
  5  6  1  0
  6  7  1  0
  7  8  1  0
  8  9  2  0
  8 10  1  0
 10 11  1  0
 11 12  2  0
 12 13  1  0
 13 14  2  0
 14 15  1  0
 15 16  2  0
  7 17  1  0
 17 18  1  0
 18  4  1  0
 16 11  1  0
  1 19  1  0
  1 20  1  0
  1 21  1  0
  2 22  1  0
  3 23  1  0
  3 24  1  0
  3 25  1  0
  4 26  1  0
  5 27  1  0
  5 28  1  0
  6 29  1  0
  6 30  1  0
  7 31  1  0
 10 32  1  0
 12 33  1  0
 13 34  1  0
 14 35  1  0
 15 36  1  0
 16 37  1  0
 17 38  1  0
 17 39  1  0
 18 40  1  0
 18 41  1  0
M  CHG  1   3   1
M  END
>  <EmbedRMS>  (47) 
0.24964892458419108

$$$$

     RDKit          3D

 43 43  0  0  0  0  0  0  0  0999 V2000
   13.9328    7.3327    1.0256 C   0  0  0  0  0  0  0  0  0  0  0  0
   13.7106    7.9150    2.4296 C   0  0  0  0  0  0  0  0  0  0  0  0
   14.6487    9.0167    2.6729 N   0  0  0  0  0  4  0  0  0  0  0  0
   12.2335    8.2987    2.7960 C   0  0  0  0  0  0  0  0  0  0  0  0
   11.1478    7.3148    2.3210 C   0  0  0  0  0  0  0  0  0  0  0  0
    9.7861    7.9355    2.0722 C   0  0  0  0  0  0  0  0  0  0  0  0
    9.4221    8.9837    3.1170 C   0  0  0  0  0  0  0  0  0  0  0  0
    8.0145    9.4662    2.8713 C   0  0  0  0  0  0  0  0  0  0  0  0
    7.6210    9.6843    1.6909 O   0  0  0  0  0  0  0  0  0  0  0  0
    7.1437    9.6979    3.9867 N   0  0  0  0  0  0  0  0  0  0  0  0
    5.7457   10.1462    3.8800 C   0  0  0  0  0  0  0  0  0  0  0  0
    4.9165    9.1275    3.0776 C   0  0  0  0  0  0  0  0  0  0  0  0
    5.1534   10.2537    5.2959 C   0  0  0  0  0  0  0  0  0  0  0  0
    5.6801   11.5317    3.2137 C   0  0  0  0  0  0  0  0  0  0  0  0
   10.3939   10.1678    3.0629 C   0  0  0  0  0  0  0  0  0  0  0  0
   11.8859    9.7890    2.9942 C   0  0  0  0  0  0  0  0  0  0  0  0
   13.4412    7.9749    0.2643 H   0  0  0  0  0  0  0  0  0  0  0  0
   13.5378    6.2975    0.9561 H   0  0  0  0  0  0  0  0  0  0  0  0
   15.0171    7.2758    0.7911 H   0  0  0  0  0  0  0  0  0  0  0  0
   14.0080    7.0851    3.1154 H   0  0  0  0  0  0  0  0  0  0  0  0
   14.5411    9.3807    3.6468 H   0  0  0  0  0  0  0  0  0  0  0  0
   14.5089    9.7867    1.9799 H   0  0  0  0  0  0  0  0  0  0  0  0
   15.6320    8.6704    2.5834 H   0  0  0  0  0  0  0  0  0  0  0  0
   12.2375    8.0299    3.8807 H   0  0  0  0  0  0  0  0  0  0  0  0
   11.4321    6.8306    1.3683 H   0  0  0  0  0  0  0  0  0  0  0  0
   11.0316    6.4819    3.0534 H   0  0  0  0  0  0  0  0  0  0  0  0
    9.7922    8.4045    1.0617 H   0  0  0  0  0  0  0  0  0  0  0  0
    9.0209    7.1271    2.0623 H   0  0  0  0  0  0  0  0  0  0  0  0
    9.4831    8.5112    4.1229 H   0  0  0  0  0  0  0  0  0  0  0  0
    7.5444    9.5331    4.9389 H   0  0  0  0  0  0  0  0  0  0  0  0
    3.8395    9.4025    3.0917 H   0  0  0  0  0  0  0  0  0  0  0  0
    5.0261    8.1122    3.5158 H   0  0  0  0  0  0  0  0  0  0  0  0
    5.2343    9.0851    2.0162 H   0  0  0  0  0  0  0  0  0  0  0  0
    5.1892    9.2679    5.8084 H   0  0  0  0  0  0  0  0  0  0  0  0
    4.0943   10.5901    5.2604 H   0  0  0  0  0  0  0  0  0  0  0  0
    5.7304   10.9832    5.9047 H   0  0  0  0  0  0  0  0  0  0  0  0
    5.9946   11.4920    2.1513 H   0  0  0  0  0  0  0  0  0  0  0  0
    6.3424   12.2468    3.7476 H   0  0  0  0  0  0  0  0  0  0  0  0
    4.6419   11.9283    3.2382 H   0  0  0  0  0  0  0  0  0  0  0  0
   10.2197   10.8123    3.9529 H   0  0  0  0  0  0  0  0  0  0  0  0
   10.1527   10.7919    2.1718 H   0  0  0  0  0  0  0  0  0  0  0  0
   12.3135   10.3458    2.1334 H   0  0  0  0  0  0  0  0  0  0  0  0
   12.3931   10.1935    3.8999 H   0  0  0  0  0  0  0  0  0  0  0  0
  1  2  1  0
  2  3  1  0
  2  4  1  0
  4  5  1  0
  5  6  1  0
  6  7  1  0
  7  8  1  0
  8  9  2  0
  8 10  1  0
 10 11  1  0
 11 12  1  0
 11 13  1  0
 11 14  1  0
  7 15  1  0
 15 16  1  0
 16  4  1  0
  1 17  1  0
  1 18  1  0
  1 19  1  0
  2 20  1  0
  3 21  1  0
  3 22  1  0
  3 23  1  0
  4 24  1  0
  5 25  1  0
  5 26  1  0
  6 27  1  0
  6 28  1  0
  7 29  1  0
 10 30  1  0
 12 31  1  0
 12 32  1  0
 12 33  1  0
 13 34  1  0
 13 35  1  0
 13 36  1  0
 14 37  1  0
 14 38  1  0
 14 39  1  0
 15 40  1  0
 15 41  1  0
 16 42  1  0
 16 43  1  0
M  CHG  1   3   1
M  END
>  <EmbedRMS>  (48) 
0.17423024192686873

$$$$

     RDKit          3D

 42 43  0  0  0  0  0  0  0  0999 V2000
   13.9330    7.3325    1.0256 C   0  0  0  0  0  0  0  0  0  0  0  0
   13.7106    7.9149    2.4295 C   0  0  0  0  0  0  0  0  0  0  0  0
   14.6488    9.0165    2.6728 N   0  0  0  0  0  4  0  0  0  0  0  0
   12.2335    8.2987    2.7956 C   0  0  0  0  0  0  0  0  0  0  0  0
   11.1476    7.3151    2.3199 C   0  0  0  0  0  0  0  0  0  0  0  0
    9.7858    7.9360    2.0712 C   0  0  0  0  0  0  0  0  0  0  0  0
    9.4225    8.9842    3.1156 C   0  0  0  0  0  0  0  0  0  0  0  0
    8.0148    9.4662    2.8718 C   0  0  0  0  0  0  0  0  0  0  0  0
    7.6102    9.6878    1.6948 O   0  0  0  0  0  0  0  0  0  0  0  0
    7.1468    9.6942    3.9816 N   0  0  0  0  0  0  0  0  0  0  0  0
    5.7747   10.1495    3.7934 C   0  0  0  0  0  0  0  0  0  0  0  0
    5.0988   10.2774    5.1198 C   0  0  0  0  0  0  0  0  0  0  0  0
    4.3766    9.2083    5.6642 C   0  0  0  0  0  0  0  0  0  0  0  0
    3.8165    9.3401    6.8944 N   0  0  0  0  0  0  0  0  0  0  0  0
    3.9555   10.4857    7.6119 C   0  0  0  0  0  0  0  0  0  0  0  0
    4.6940   11.5443    7.0800 C   0  0  0  0  0  0  0  0  0  0  0  0
    5.2544   11.4148    5.8496 N   0  0  0  0  0  0  0  0  0  0  0  0
   10.3943   10.1681    3.0614 C   0  0  0  0  0  0  0  0  0  0  0  0
   11.8863    9.7889    2.9949 C   0  0  0  0  0  0  0  0  0  0  0  0
   15.0174    7.2755    0.7913 H   0  0  0  0  0  0  0  0  0  0  0  0
   13.5378    6.2975    0.9560 H   0  0  0  0  0  0  0  0  0  0  0  0
   13.4418    7.9748    0.2642 H   0  0  0  0  0  0  0  0  0  0  0  0
   14.0079    7.0850    3.1154 H   0  0  0  0  0  0  0  0  0  0  0  0
   15.6320    8.6700    2.5840 H   0  0  0  0  0  0  0  0  0  0  0  0
   14.5095    9.7863    1.9794 H   0  0  0  0  0  0  0  0  0  0  0  0
   14.5408    9.3810    3.6465 H   0  0  0  0  0  0  0  0  0  0  0  0
   12.2371    8.0290    3.8802 H   0  0  0  0  0  0  0  0  0  0  0  0
   11.0314    6.4817    3.0516 H   0  0  0  0  0  0  0  0  0  0  0  0
   11.4320    6.8317    1.3668 H   0  0  0  0  0  0  0  0  0  0  0  0
    9.0206    7.1275    2.0619 H   0  0  0  0  0  0  0  0  0  0  0  0
    9.7911    8.4049    1.0607 H   0  0  0  0  0  0  0  0  0  0  0  0
    9.4832    8.5126    4.1221 H   0  0  0  0  0  0  0  0  0  0  0  0
    7.5143    9.5279    4.9470 H   0  0  0  0  0  0  0  0  0  0  0  0
    5.7787   11.1375    3.2841 H   0  0  0  0  0  0  0  0  0  0  0  0
    5.2258    9.4286    3.1487 H   0  0  0  0  0  0  0  0  0  0  0  0
    4.2596    8.2807    5.1187 H   0  0  0  0  0  0  0  0  0  0  0  0
    3.5021   10.5709    8.5904 H   0  0  0  0  0  0  0  0  0  0  0  0
    4.8237   12.4598    7.6415 H   0  0  0  0  0  0  0  0  0  0  0  0
   10.1542   10.7909    2.1692 H   0  0  0  0  0  0  0  0  0  0  0  0
   10.2194   10.8139    3.9505 H   0  0  0  0  0  0  0  0  0  0  0  0
   12.3155   10.3468    2.1357 H   0  0  0  0  0  0  0  0  0  0  0  0
   12.3921   10.1921    3.9021 H   0  0  0  0  0  0  0  0  0  0  0  0
  1  2  1  0
  2  3  1  0
  2  4  1  0
  4  5  1  0
  5  6  1  0
  6  7  1  0
  7  8  1  0
  8  9  2  0
  8 10  1  0
 10 11  1  0
 11 12  1  0
 12 13  2  0
 13 14  1  0
 14 15  2  0
 15 16  1  0
 16 17  2  0
  7 18  1  0
 18 19  1  0
 19  4  1  0
 17 12  1  0
  1 20  1  0
  1 21  1  0
  1 22  1  0
  2 23  1  0
  3 24  1  0
  3 25  1  0
  3 26  1  0
  4 27  1  0
  5 28  1  0
  5 29  1  0
  6 30  1  0
  6 31  1  0
  7 32  1  0
 10 33  1  0
 11 34  1  0
 11 35  1  0
 13 36  1  0
 15 37  1  0
 16 38  1  0
 18 39  1  0
 18 40  1  0
 19 41  1  0
 19 42  1  0
M  CHG  1   3   1
M  END
>  <EmbedRMS>  (49) 
0.15954075783698252

$$$$

     RDKit          3D

 44 45  0  0  0  0  0  0  0  0999 V2000
   13.9839    7.0986    1.1859 C   0  0  0  0  0  0  0  0  0  0  0  0
   13.5805    8.3573    1.9538 C   0  0  0  0  0  0  0  0  0  0  0  0
   14.7109    8.8841    2.7307 N   0  0  0  0  0  4  0  0  0  0  0  0
   12.2751    8.3221    2.7731 C   0  0  0  0  0  0  0  0  0  0  0  0
   11.1580    7.3128    2.3949 C   0  0  0  0  0  0  0  0  0  0  0  0
    9.7984    7.9226    2.0841 C   0  0  0  0  0  0  0  0  0  0  0  0
    9.4144    8.9888    3.1081 C   0  0  0  0  0  0  0  0  0  0  0  0
    8.0087    9.4688    2.8654 C   0  0  0  0  0  0  0  0  0  0  0  0
    7.6068    9.6884    1.6882 O   0  0  0  0  0  0  0  0  0  0  0  0
    7.1357    9.6903    3.9796 N   0  0  0  0  0  0  0  0  0  0  0  0
    5.7735   10.1841    3.8210 C   0  0  0  0  0  0  0  0  0  0  0  0
    5.7940   11.6487    3.5371 C   0  0  0  0  0  0  0  0  0  0  0  0
    5.6451   12.2639    2.3095 C   0  0  0  0  0  0  0  0  0  0  0  0
    5.7724   13.5950    2.4709 N   0  0  0  0  0  0  0  0  0  0  0  0
    6.0119   13.8216    3.7540 N   0  0  0  0  0  0  0  0  0  0  0  0
    6.1879   15.1475    4.3266 C   0  0  0  0  0  0  0  0  0  0  0  0
    6.0316   12.6636    4.4370 C   0  0  0  0  0  0  0  0  0  0  0  0
   10.3958   10.1516    3.0079 C   0  0  0  0  0  0  0  0  0  0  0  0
   11.8313    9.7200    3.3035 C   0  0  0  0  0  0  0  0  0  0  0  0
   15.0005    7.2114    0.7529 H   0  0  0  0  0  0  0  0  0  0  0  0
   13.9863    6.2216    1.8671 H   0  0  0  0  0  0  0  0  0  0  0  0
   13.2932    6.9111    0.3372 H   0  0  0  0  0  0  0  0  0  0  0  0
   13.3809    9.1010    1.1484 H   0  0  0  0  0  0  0  0  0  0  0  0
   14.9939    8.1902    3.4607 H   0  0  0  0  0  0  0  0  0  0  0  0
   15.5287    9.0534    2.1006 H   0  0  0  0  0  0  0  0  0  0  0  0
   14.4915    9.7903    3.1975 H   0  0  0  0  0  0  0  0  0  0  0  0
   12.6568    7.8404    3.7044 H   0  0  0  0  0  0  0  0  0  0  0  0
   11.4413    6.6843    1.5308 H   0  0  0  0  0  0  0  0  0  0  0  0
   11.0041    6.5965    3.2356 H   0  0  0  0  0  0  0  0  0  0  0  0
    9.0353    7.1124    2.0792 H   0  0  0  0  0  0  0  0  0  0  0  0
    9.8279    8.3625    1.0617 H   0  0  0  0  0  0  0  0  0  0  0  0
    9.4744    8.5458    4.1279 H   0  0  0  0  0  0  0  0  0  0  0  0
    7.4794    9.4927    4.9466 H   0  0  0  0  0  0  0  0  0  0  0  0
    5.2059   10.0091    4.7602 H   0  0  0  0  0  0  0  0  0  0  0  0
    5.2575    9.6320    3.0058 H   0  0  0  0  0  0  0  0  0  0  0  0
    5.4567   11.7772    1.3618 H   0  0  0  0  0  0  0  0  0  0  0  0
    7.0448   15.1443    5.0332 H   0  0  0  0  0  0  0  0  0  0  0  0
    5.2656   15.4435    4.8689 H   0  0  0  0  0  0  0  0  0  0  0  0
    6.3905   15.8875    3.5235 H   0  0  0  0  0  0  0  0  0  0  0  0
    6.2088   12.5665    5.5007 H   0  0  0  0  0  0  0  0  0  0  0  0
   10.1033   10.9533    3.7223 H   0  0  0  0  0  0  0  0  0  0  0  0
   10.3528   10.5881    1.9842 H   0  0  0  0  0  0  0  0  0  0  0  0
   11.9665    9.7515    4.4091 H   0  0  0  0  0  0  0  0  0  0  0  0
   12.4756   10.5267    2.8958 H   0  0  0  0  0  0  0  0  0  0  0  0
  1  2  1  0
  2  3  1  0
  2  4  1  0
  4  5  1  0
  5  6  1  0
  6  7  1  0
  7  8  1  0
  8  9  2  0
  8 10  1  0
 10 11  1  0
 11 12  1  0
 12 13  1  0
 13 14  2  0
 14 15  1  0
 15 16  1  0
 15 17  1  0
  7 18  1  0
 18 19  1  0
 19  4  1  0
 17 12  2  0
  1 20  1  0
  1 21  1  0
  1 22  1  0
  2 23  1  0
  3 24  1  0
  3 25  1  0
  3 26  1  0
  4 27  1  0
  5 28  1  0
  5 29  1  0
  6 30  1  0
  6 31  1  0
  7 32  1  0
 10 33  1  0
 11 34  1  0
 11 35  1  0
 13 36  1  0
 16 37  1  0
 16 38  1  0
 16 39  1  0
 17 40  1  0
 18 41  1  0
 18 42  1  0
 19 43  1  0
 19 44  1  0
M  CHG  1   3   1
M  END
>  <EmbedRMS>  (50) 
0.19659211194601114

$$$$

     RDKit          3D

 44 45  0  0  0  0  0  0  0  0999 V2000
    5.7363    9.9715    6.4656 C   0  0  0  0  0  0  0  0  0  0  0  0
    5.0873   10.2728    5.1444 C   0  0  0  0  0  0  0  0  0  0  0  0
    3.7465   10.7056    5.1401 C   0  0  0  0  0  0  0  0  0  0  0  0
    3.0948   11.0014    3.9462 C   0  0  0  0  0  0  0  0  0  0  0  0
    3.7702   10.8834    2.7433 C   0  0  0  0  0  0  0  0  0  0  0  0
    5.0985   10.4784    2.7242 C   0  0  0  0  0  0  0  0  0  0  0  0
    5.7984   10.1434    3.9177 C   0  0  0  0  0  0  0  0  0  0  0  0
    7.1984    9.7105    3.9068 N   0  0  0  0  0  0  0  0  0  0  0  0
    7.9986    9.5333    2.7122 C   0  0  0  0  0  0  0  0  0  0  0  0
    7.4773    9.6168    1.5804 O   0  0  0  0  0  0  0  0  0  0  0  0
    9.4604    9.2111    2.6585 C   0  0  0  0  0  0  0  0  0  0  0  0
    9.7421    7.7424    2.3801 C   0  0  0  0  0  0  0  0  0  0  0  0
   11.2036    7.3487    2.5455 C   0  0  0  0  0  0  0  0  0  0  0  0
   12.1857    8.5085    2.2995 C   0  0  0  0  0  0  0  0  0  0  0  0
   13.6492    7.9628    2.3856 C   0  0  0  0  0  0  0  0  0  0  0  0
   14.0287    7.2306    1.0856 C   0  0  0  0  0  0  0  0  0  0  0  0
   14.6304    9.0249    2.6460 N   0  0  0  0  0  4  0  0  0  0  0  0
   11.9025    9.6387    3.3237 C   0  0  0  0  0  0  0  0  0  0  0  0
   10.4244   10.0710    3.4473 C   0  0  0  0  0  0  0  0  0  0  0  0
    6.5949   10.6566    6.6268 H   0  0  0  0  0  0  0  0  0  0  0  0
    6.0907    8.9193    6.4792 H   0  0  0  0  0  0  0  0  0  0  0  0
    5.0315   10.1021    7.3144 H   0  0  0  0  0  0  0  0  0  0  0  0
    3.1987   10.8112    6.0685 H   0  0  0  0  0  0  0  0  0  0  0  0
    2.0633   11.3295    3.9585 H   0  0  0  0  0  0  0  0  0  0  0  0
    3.2645   11.1332    1.8185 H   0  0  0  0  0  0  0  0  0  0  0  0
    5.5182   10.5025    1.7436 H   0  0  0  0  0  0  0  0  0  0  0  0
    7.6882    9.5294    4.8094 H   0  0  0  0  0  0  0  0  0  0  0  0
    9.7401    9.6220    1.6549 H   0  0  0  0  0  0  0  0  0  0  0  0
    9.1350    7.1225    3.0765 H   0  0  0  0  0  0  0  0  0  0  0  0
    9.4050    7.4790    1.3504 H   0  0  0  0  0  0  0  0  0  0  0  0
   11.4030    6.4985    1.8624 H   0  0  0  0  0  0  0  0  0  0  0  0
   11.3506    6.9696    3.5821 H   0  0  0  0  0  0  0  0  0  0  0  0
   12.0138    8.9221    1.2801 H   0  0  0  0  0  0  0  0  0  0  0  0
   13.7197    7.2278    3.2203 H   0  0  0  0  0  0  0  0  0  0  0  0
   13.3822    6.3496    0.9055 H   0  0  0  0  0  0  0  0  0  0  0  0
   13.9560    7.9172    0.2152 H   0  0  0  0  0  0  0  0  0  0  0  0
   15.0726    6.8563    1.1492 H   0  0  0  0  0  0  0  0  0  0  0  0
   14.5275    9.7985    1.9491 H   0  0  0  0  0  0  0  0  0  0  0  0
   14.5204    9.3994    3.6154 H   0  0  0  0  0  0  0  0  0  0  0  0
   15.6022    8.6430    2.5810 H   0  0  0  0  0  0  0  0  0  0  0  0
   12.4967   10.5376    3.0518 H   0  0  0  0  0  0  0  0  0  0  0  0
   12.2502    9.3049    4.3270 H   0  0  0  0  0  0  0  0  0  0  0  0
   10.3162   11.1400    3.1504 H   0  0  0  0  0  0  0  0  0  0  0  0
   10.1323   10.0162    4.5184 H   0  0  0  0  0  0  0  0  0  0  0  0
  1  2  1  0
  2  3  2  0
  3  4  1  0
  4  5  2  0
  5  6  1  0
  6  7  2  0
  7  8  1  0
  8  9  1  0
  9 10  2  0
  9 11  1  0
 11 12  1  0
 12 13  1  0
 13 14  1  0
 14 15  1  0
 15 16  1  0
 15 17  1  0
 14 18  1  0
 18 19  1  0
  7  2  1  0
 19 11  1  0
  1 20  1  0
  1 21  1  0
  1 22  1  0
  3 23  1  0
  4 24  1  0
  5 25  1  0
  6 26  1  0
  8 27  1  0
 11 28  1  0
 12 29  1  0
 12 30  1  0
 13 31  1  0
 13 32  1  0
 14 33  1  0
 15 34  1  0
 16 35  1  0
 16 36  1  0
 16 37  1  0
 17 38  1  0
 17 39  1  0
 17 40  1  0
 18 41  1  0
 18 42  1  0
 19 43  1  0
 19 44  1  0
M  CHG  1  17   1
M  END
>  <EmbedRMS>  (51) 
0.17064538222927092

$$$$

     RDKit          3D

 41 42  0  0  0  0  0  0  0  0999 V2000
   14.0155    7.0452    1.2243 C   0  0  0  0  0  0  0  0  0  0  0  0
   13.6577    8.3402    1.9340 C   0  0  0  0  0  0  0  0  0  0  0  0
   14.6213    8.7734    2.9399 N   0  0  0  0  0  4  0  0  0  0  0  0
   12.1479    8.5868    2.2358 C   0  0  0  0  0  0  0  0  0  0  0  0
   11.2708    7.3634    2.5450 C   0  0  0  0  0  0  0  0  0  0  0  0
    9.7738    7.7130    2.4384 C   0  0  0  0  0  0  0  0  0  0  0  0
    9.4545    9.1902    2.6817 C   0  0  0  0  0  0  0  0  0  0  0  0
    7.9930    9.5119    2.7236 C   0  0  0  0  0  0  0  0  0  0  0  0
    7.4746    9.6077    1.5899 O   0  0  0  0  0  0  0  0  0  0  0  0
    7.1920    9.7025    3.9130 N   0  0  0  0  0  0  0  0  0  0  0  0
    5.8002   10.1396    3.9098 C   0  0  0  0  0  0  0  0  0  0  0  0
    5.1136   10.2622    5.1332 C   0  0  0  0  0  0  0  0  0  0  0  0
    3.7791   10.6918    5.1678 C   0  0  0  0  0  0  0  0  0  0  0  0
    3.1050   10.9965    3.9846 C   0  0  0  0  0  0  0  0  0  0  0  0
    3.7620   10.8848    2.7663 C   0  0  0  0  0  0  0  0  0  0  0  0
    5.0915   10.4774    2.7238 C   0  0  0  0  0  0  0  0  0  0  0  0
   10.4123   10.0785    3.4530 C   0  0  0  0  0  0  0  0  0  0  0  0
   11.8967    9.6862    3.2904 C   0  0  0  0  0  0  0  0  0  0  0  0
   13.3412    6.8748    0.3575 H   0  0  0  0  0  0  0  0  0  0  0  0
   15.0600    7.0795    0.8460 H   0  0  0  0  0  0  0  0  0  0  0  0
   13.9272    6.1936    1.9310 H   0  0  0  0  0  0  0  0  0  0  0  0
   13.8472    9.0661    1.1041 H   0  0  0  0  0  0  0  0  0  0  0  0
   14.4394    8.2635    3.8342 H   0  0  0  0  0  0  0  0  0  0  0  0
   14.5690    9.8041    3.1044 H   0  0  0  0  0  0  0  0  0  0  0  0
   15.5964    8.5564    2.6293 H   0  0  0  0  0  0  0  0  0  0  0  0
   11.7549    8.9789    1.2687 H   0  0  0  0  0  0  0  0  0  0  0  0
   11.4801    6.5302    1.8427 H   0  0  0  0  0  0  0  0  0  0  0  0
   11.5022    7.0014    3.5710 H   0  0  0  0  0  0  0  0  0  0  0  0
    9.3960    7.4069    1.4357 H   0  0  0  0  0  0  0  0  0  0  0  0
    9.2216    7.1022    3.1855 H   0  0  0  0  0  0  0  0  0  0  0  0
    9.7131    9.5882    1.6698 H   0  0  0  0  0  0  0  0  0  0  0  0
    7.6559    9.5263    4.8324 H   0  0  0  0  0  0  0  0  0  0  0  0
    5.6153   10.0259    6.0630 H   0  0  0  0  0  0  0  0  0  0  0  0
    3.2672   10.7820    6.1172 H   0  0  0  0  0  0  0  0  0  0  0  0
    2.0739   11.3242    4.0170 H   0  0  0  0  0  0  0  0  0  0  0  0
    3.2415   11.1383    1.8510 H   0  0  0  0  0  0  0  0  0  0  0  0
    5.5040   10.4952    1.7386 H   0  0  0  0  0  0  0  0  0  0  0  0
   10.1475   10.0136    4.5305 H   0  0  0  0  0  0  0  0  0  0  0  0
   10.2671   11.1433    3.1573 H   0  0  0  0  0  0  0  0  0  0  0  0
   12.4562   10.6027    3.0029 H   0  0  0  0  0  0  0  0  0  0  0  0
   12.2889    9.3466    4.2742 H   0  0  0  0  0  0  0  0  0  0  0  0
  1  2  1  0
  2  3  1  0
  2  4  1  0
  4  5  1  0
  5  6  1  0
  6  7  1  0
  7  8  1  0
  8  9  2  0
  8 10  1  0
 10 11  1  0
 11 12  2  0
 12 13  1  0
 13 14  2  0
 14 15  1  0
 15 16  2  0
  7 17  1  0
 17 18  1  0
 18  4  1  0
 16 11  1  0
  1 19  1  0
  1 20  1  0
  1 21  1  0
  2 22  1  0
  3 23  1  0
  3 24  1  0
  3 25  1  0
  4 26  1  0
  5 27  1  0
  5 28  1  0
  6 29  1  0
  6 30  1  0
  7 31  1  0
 10 32  1  0
 12 33  1  0
 13 34  1  0
 14 35  1  0
 15 36  1  0
 16 37  1  0
 17 38  1  0
 17 39  1  0
 18 40  1  0
 18 41  1  0
M  CHG  1   3   1
M  END
>  <EmbedRMS>  (52) 
0.24964892458419108

$$$$

     RDKit          3D

 44 45  0  0  0  0  0  0  0  0999 V2000
    5.7363    9.9715    6.4656 C   0  0  0  0  0  0  0  0  0  0  0  0
    5.0873   10.2728    5.1444 C   0  0  0  0  0  0  0  0  0  0  0  0
    3.7465   10.7056    5.1401 C   0  0  0  0  0  0  0  0  0  0  0  0
    3.0948   11.0014    3.9462 C   0  0  0  0  0  0  0  0  0  0  0  0
    3.7702   10.8834    2.7433 C   0  0  0  0  0  0  0  0  0  0  0  0
    5.0985   10.4784    2.7242 C   0  0  0  0  0  0  0  0  0  0  0  0
    5.7984   10.1434    3.9177 C   0  0  0  0  0  0  0  0  0  0  0  0
    7.1984    9.7105    3.9068 N   0  0  0  0  0  0  0  0  0  0  0  0
    7.9986    9.5333    2.7122 C   0  0  0  0  0  0  0  0  0  0  0  0
    7.4773    9.6168    1.5804 O   0  0  0  0  0  0  0  0  0  0  0  0
    9.4604    9.2111    2.6585 C   0  0  0  0  0  0  0  0  0  0  0  0
    9.7421    7.7424    2.3801 C   0  0  0  0  0  0  0  0  0  0  0  0
   11.2036    7.3487    2.5455 C   0  0  0  0  0  0  0  0  0  0  0  0
   12.1857    8.5085    2.2995 C   0  0  0  0  0  0  0  0  0  0  0  0
   13.6492    7.9628    2.3856 C   0  0  0  0  0  0  0  0  0  0  0  0
   14.0287    7.2306    1.0856 C   0  0  0  0  0  0  0  0  0  0  0  0
   14.6304    9.0249    2.6460 N   0  0  0  0  0  4  0  0  0  0  0  0
   11.9025    9.6387    3.3237 C   0  0  0  0  0  0  0  0  0  0  0  0
   10.4244   10.0710    3.4473 C   0  0  0  0  0  0  0  0  0  0  0  0
    6.5949   10.6566    6.6268 H   0  0  0  0  0  0  0  0  0  0  0  0
    6.0907    8.9193    6.4792 H   0  0  0  0  0  0  0  0  0  0  0  0
    5.0315   10.1021    7.3144 H   0  0  0  0  0  0  0  0  0  0  0  0
    3.1987   10.8112    6.0685 H   0  0  0  0  0  0  0  0  0  0  0  0
    2.0633   11.3295    3.9585 H   0  0  0  0  0  0  0  0  0  0  0  0
    3.2645   11.1332    1.8185 H   0  0  0  0  0  0  0  0  0  0  0  0
    5.5182   10.5025    1.7436 H   0  0  0  0  0  0  0  0  0  0  0  0
    7.6882    9.5294    4.8094 H   0  0  0  0  0  0  0  0  0  0  0  0
    9.7401    9.6220    1.6549 H   0  0  0  0  0  0  0  0  0  0  0  0
    9.1350    7.1225    3.0765 H   0  0  0  0  0  0  0  0  0  0  0  0
    9.4050    7.4790    1.3504 H   0  0  0  0  0  0  0  0  0  0  0  0
   11.4030    6.4985    1.8624 H   0  0  0  0  0  0  0  0  0  0  0  0
   11.3506    6.9696    3.5821 H   0  0  0  0  0  0  0  0  0  0  0  0
   12.0138    8.9221    1.2801 H   0  0  0  0  0  0  0  0  0  0  0  0
   13.7197    7.2278    3.2203 H   0  0  0  0  0  0  0  0  0  0  0  0
   13.3822    6.3496    0.9055 H   0  0  0  0  0  0  0  0  0  0  0  0
   13.9560    7.9172    0.2152 H   0  0  0  0  0  0  0  0  0  0  0  0
   15.0726    6.8563    1.1492 H   0  0  0  0  0  0  0  0  0  0  0  0
   14.5275    9.7985    1.9491 H   0  0  0  0  0  0  0  0  0  0  0  0
   14.5204    9.3994    3.6154 H   0  0  0  0  0  0  0  0  0  0  0  0
   15.6022    8.6430    2.5810 H   0  0  0  0  0  0  0  0  0  0  0  0
   12.4967   10.5376    3.0518 H   0  0  0  0  0  0  0  0  0  0  0  0
   12.2502    9.3049    4.3270 H   0  0  0  0  0  0  0  0  0  0  0  0
   10.3162   11.1400    3.1504 H   0  0  0  0  0  0  0  0  0  0  0  0
   10.1323   10.0162    4.5184 H   0  0  0  0  0  0  0  0  0  0  0  0
  1  2  1  0
  2  3  2  0
  3  4  1  0
  4  5  2  0
  5  6  1  0
  6  7  2  0
  7  8  1  0
  8  9  1  0
  9 10  2  0
  9 11  1  0
 11 12  1  0
 12 13  1  0
 13 14  1  0
 14 15  1  0
 15 16  1  0
 15 17  1  0
 14 18  1  0
 18 19  1  0
  7  2  1  0
 19 11  1  0
  1 20  1  0
  1 21  1  0
  1 22  1  0
  3 23  1  0
  4 24  1  0
  5 25  1  0
  6 26  1  0
  8 27  1  0
 11 28  1  0
 12 29  1  0
 12 30  1  0
 13 31  1  0
 13 32  1  0
 14 33  1  0
 15 34  1  0
 16 35  1  0
 16 36  1  0
 16 37  1  0
 17 38  1  0
 17 39  1  0
 17 40  1  0
 18 41  1  0
 18 42  1  0
 19 43  1  0
 19 44  1  0
M  CHG  1  17   1
M  END
>  <EmbedRMS>  (53) 
0.17064538222927092

$$$$

     RDKit          3D

 43 43  0  0  0  0  0  0  0  0999 V2000
    5.7455   11.3191    6.0203 C   0  0  0  0  0  0  0  0  0  0  0  0
    5.0047   10.7821    4.8077 C   0  0  0  0  0  0  0  0  0  0  0  0
    3.5728   10.3507    5.0822 C   0  0  0  0  0  0  0  0  0  0  0  0
    5.7224    9.8551    3.8187 C   0  0  0  0  0  0  0  0  0  0  0  0
    7.1673    9.7742    3.9858 N   0  0  0  0  0  0  0  0  0  0  0  0
    8.0197    9.4860    2.8700 C   0  0  0  0  0  0  0  0  0  0  0  0
    7.6120    9.6782    1.6893 O   0  0  0  0  0  0  0  0  0  0  0  0
    9.4200    8.9947    3.1117 C   0  0  0  0  0  0  0  0  0  0  0  0
    9.7988    7.9256    2.0876 C   0  0  0  0  0  0  0  0  0  0  0  0
   11.1582    7.3137    2.3954 C   0  0  0  0  0  0  0  0  0  0  0  0
   12.2771    8.3213    2.7736 C   0  0  0  0  0  0  0  0  0  0  0  0
   13.5816    8.3566    1.9535 C   0  0  0  0  0  0  0  0  0  0  0  0
   13.9838    7.0979    1.1851 C   0  0  0  0  0  0  0  0  0  0  0  0
   14.7128    8.8826    2.7299 N   0  0  0  0  0  4  0  0  0  0  0  0
   11.8363    9.7189    3.3063 C   0  0  0  0  0  0  0  0  0  0  0  0
   10.4036   10.1539    3.0090 C   0  0  0  0  0  0  0  0  0  0  0  0
    6.6922   11.8134    5.7137 H   0  0  0  0  0  0  0  0  0  0  0  0
    5.9786   10.4860    6.7163 H   0  0  0  0  0  0  0  0  0  0  0  0
    5.1250   12.0678    6.5586 H   0  0  0  0  0  0  0  0  0  0  0  0
    4.8657   11.7152    4.2129 H   0  0  0  0  0  0  0  0  0  0  0  0
    3.0203   11.1491    5.6229 H   0  0  0  0  0  0  0  0  0  0  0  0
    3.0383   10.1417    4.1302 H   0  0  0  0  0  0  0  0  0  0  0  0
    3.5694    9.4316    5.7057 H   0  0  0  0  0  0  0  0  0  0  0  0
    5.4637   10.1654    2.7814 H   0  0  0  0  0  0  0  0  0  0  0  0
    5.3247    8.8235    3.9382 H   0  0  0  0  0  0  0  0  0  0  0  0
    7.5474    9.6168    4.9461 H   0  0  0  0  0  0  0  0  0  0  0  0
    9.4774    8.5519    4.1318 H   0  0  0  0  0  0  0  0  0  0  0  0
    9.0337    7.1173    2.0860 H   0  0  0  0  0  0  0  0  0  0  0  0
    9.8270    8.3640    1.0645 H   0  0  0  0  0  0  0  0  0  0  0  0
   11.4397    6.6861    1.5299 H   0  0  0  0  0  0  0  0  0  0  0  0
   11.0047    6.5964    3.2353 H   0  0  0  0  0  0  0  0  0  0  0  0
   12.6593    7.8378    3.7038 H   0  0  0  0  0  0  0  0  0  0  0  0
   13.3817    9.1007    1.1484 H   0  0  0  0  0  0  0  0  0  0  0  0
   15.0002    7.2104    0.7513 H   0  0  0  0  0  0  0  0  0  0  0  0
   13.9864    6.2209    1.8663 H   0  0  0  0  0  0  0  0  0  0  0  0
   13.2924    6.9108    0.3370 H   0  0  0  0  0  0  0  0  0  0  0  0
   14.4954    9.7894    3.1965 H   0  0  0  0  0  0  0  0  0  0  0  0
   15.5306    9.0506    2.0995 H   0  0  0  0  0  0  0  0  0  0  0  0
   14.9953    8.1887    3.4600 H   0  0  0  0  0  0  0  0  0  0  0  0
   12.4825   10.5253    2.9014 H   0  0  0  0  0  0  0  0  0  0  0  0
   11.9695    9.7477    4.4122 H   0  0  0  0  0  0  0  0  0  0  0  0
   10.1142   10.9583    3.7217 H   0  0  0  0  0  0  0  0  0  0  0  0
   10.3629   10.5881    1.9841 H   0  0  0  0  0  0  0  0  0  0  0  0
  1  2  1  0
  2  3  1  0
  2  4  1  0
  4  5  1  0
  5  6  1  0
  6  7  2  0
  6  8  1  0
  8  9  1  0
  9 10  1  0
 10 11  1  0
 11 12  1  0
 12 13  1  0
 12 14  1  0
 11 15  1  0
 15 16  1  0
 16  8  1  0
  1 17  1  0
  1 18  1  0
  1 19  1  0
  2 20  1  0
  3 21  1  0
  3 22  1  0
  3 23  1  0
  4 24  1  0
  4 25  1  0
  5 26  1  0
  8 27  1  0
  9 28  1  0
  9 29  1  0
 10 30  1  0
 10 31  1  0
 11 32  1  0
 12 33  1  0
 13 34  1  0
 13 35  1  0
 13 36  1  0
 14 37  1  0
 14 38  1  0
 14 39  1  0
 15 40  1  0
 15 41  1  0
 16 42  1  0
 16 43  1  0
M  CHG  1  14   1
M  END
>  <EmbedRMS>  (54) 
0.28373172213554615

$$$$

     RDKit          3D

 43 43  0  0  0  0  0  0  0  0999 V2000
    4.9734   11.6477    7.2569 C   0  0  0  0  0  0  0  0  0  0  0  0
    5.6431   11.5097    5.8975 C   0  0  0  0  0  0  0  0  0  0  0  0
    5.0750   10.3068    5.1371 C   0  0  0  0  0  0  0  0  0  0  0  0
    5.7669   10.1280    3.7867 C   0  0  0  0  0  0  0  0  0  0  0  0
    7.1455    9.6852    3.9681 N   0  0  0  0  0  0  0  0  0  0  0  0
    8.0141    9.4667    2.8560 C   0  0  0  0  0  0  0  0  0  0  0  0
    7.6100    9.6889    1.6803 O   0  0  0  0  0  0  0  0  0  0  0  0
    9.4184    8.9877    3.1010 C   0  0  0  0  0  0  0  0  0  0  0  0
    9.8028    7.9215    2.0789 C   0  0  0  0  0  0  0  0  0  0  0  0
   11.1603    7.3113    2.3953 C   0  0  0  0  0  0  0  0  0  0  0  0
   12.2770    8.3212    2.7731 C   0  0  0  0  0  0  0  0  0  0  0  0
   13.5817    8.3572    1.9534 C   0  0  0  0  0  0  0  0  0  0  0  0
   13.9848    7.0988    1.1850 C   0  0  0  0  0  0  0  0  0  0  0  0
   14.7123    8.8837    2.7302 N   0  0  0  0  0  4  0  0  0  0  0  0
   11.8329    9.7187    3.3042 C   0  0  0  0  0  0  0  0  0  0  0  0
   10.3990   10.1509    3.0046 C   0  0  0  0  0  0  0  0  0  0  0  0
    5.3911   12.5283    7.7890 H   0  0  0  0  0  0  0  0  0  0  0  0
    3.8787   11.7934    7.1363 H   0  0  0  0  0  0  0  0  0  0  0  0
    5.1580   10.7417    7.8729 H   0  0  0  0  0  0  0  0  0  0  0  0
    6.7368   11.3948    6.0535 H   0  0  0  0  0  0  0  0  0  0  0  0
    5.4685   12.4394    5.3132 H   0  0  0  0  0  0  0  0  0  0  0  0
    3.9892   10.4689    4.9589 H   0  0  0  0  0  0  0  0  0  0  0  0
    5.1884    9.3786    5.7399 H   0  0  0  0  0  0  0  0  0  0  0  0
    5.7488   11.0847    3.2200 H   0  0  0  0  0  0  0  0  0  0  0  0
    5.2153    9.3631    3.1983 H   0  0  0  0  0  0  0  0  0  0  0  0
    7.5089    9.4851    4.9278 H   0  0  0  0  0  0  0  0  0  0  0  0
    9.4779    8.5435    4.1204 H   0  0  0  0  0  0  0  0  0  0  0  0
    9.0390    7.1119    2.0723 H   0  0  0  0  0  0  0  0  0  0  0  0
    9.8362    8.3610    1.0564 H   0  0  0  0  0  0  0  0  0  0  0  0
   11.0033    6.5984    3.2384 H   0  0  0  0  0  0  0  0  0  0  0  0
   11.4453    6.6789    1.5345 H   0  0  0  0  0  0  0  0  0  0  0  0
   12.6595    7.8393    3.7041 H   0  0  0  0  0  0  0  0  0  0  0  0
   13.3816    9.1014    1.1484 H   0  0  0  0  0  0  0  0  0  0  0  0
   15.0012    7.2120    0.7514 H   0  0  0  0  0  0  0  0  0  0  0  0
   13.9879    6.2216    1.8659 H   0  0  0  0  0  0  0  0  0  0  0  0
   13.2937    6.9115    0.3366 H   0  0  0  0  0  0  0  0  0  0  0  0
   14.9957    8.1895    3.4596 H   0  0  0  0  0  0  0  0  0  0  0  0
   14.4934    9.7898    3.1976 H   0  0  0  0  0  0  0  0  0  0  0  0
   15.5299    9.0534    2.0998 H   0  0  0  0  0  0  0  0  0  0  0  0
   12.4787   10.5258    2.8999 H   0  0  0  0  0  0  0  0  0  0  0  0
   11.9643    9.7484    4.4103 H   0  0  0  0  0  0  0  0  0  0  0  0
   10.1045   10.9519    3.7189 H   0  0  0  0  0  0  0  0  0  0  0  0
   10.3593   10.5878    1.9809 H   0  0  0  0  0  0  0  0  0  0  0  0
  1  2  1  0
  2  3  1  0
  3  4  1  0
  4  5  1  0
  5  6  1  0
  6  7  2  0
  6  8  1  0
  8  9  1  0
  9 10  1  0
 10 11  1  0
 11 12  1  0
 12 13  1  0
 12 14  1  0
 11 15  1  0
 15 16  1  0
 16  8  1  0
  1 17  1  0
  1 18  1  0
  1 19  1  0
  2 20  1  0
  2 21  1  0
  3 22  1  0
  3 23  1  0
  4 24  1  0
  4 25  1  0
  5 26  1  0
  8 27  1  0
  9 28  1  0
  9 29  1  0
 10 30  1  0
 10 31  1  0
 11 32  1  0
 12 33  1  0
 13 34  1  0
 13 35  1  0
 13 36  1  0
 14 37  1  0
 14 38  1  0
 14 39  1  0
 15 40  1  0
 15 41  1  0
 16 42  1  0
 16 43  1  0
M  CHG  1  14   1
M  END
>  <EmbedRMS>  (55) 
0.21476017337867526

$$$$

     RDKit          3D

 39 40  0  0  0  0  0  0  0  0999 V2000
   14.0110    7.0511    1.2526 C   0  0  0  0  0  0  0  0  0  0  0  0
   13.6007    8.3248    1.9901 C   0  0  0  0  0  0  0  0  0  0  0  0
   14.7033    8.8921    2.7690 N   0  0  0  0  0  4  0  0  0  0  0  0
   12.2625    8.3270    2.7691 C   0  0  0  0  0  0  0  0  0  0  0  0
   11.1802    7.4398    2.1370 C   0  0  0  0  0  0  0  0  0  0  0  0
    9.7464    7.7250    2.5506 C   0  0  0  0  0  0  0  0  0  0  0  0
    9.4528    9.2006    2.6508 C   0  0  0  0  0  0  0  0  0  0  0  0
    7.9907    9.5272    2.7197 C   0  0  0  0  0  0  0  0  0  0  0  0
    7.4511    9.6605    1.5982 O   0  0  0  0  0  0  0  0  0  0  0  0
    7.2032    9.6917    3.9188 N   0  0  0  0  0  0  0  0  0  0  0  0
    5.8190   10.1244    3.8864 C   0  0  0  0  0  0  0  0  0  0  0  0
    5.0492   10.4501    2.7707 C   0  0  0  0  0  0  0  0  0  0  0  0
    3.8118   10.8137    3.2504 C   0  0  0  0  0  0  0  0  0  0  0  0
    3.7917   10.7296    4.5924 N   0  0  0  0  0  0  0  0  0  0  0  0
    5.0092   10.3116    4.9903 C   0  0  0  0  0  0  0  0  0  0  0  0
   10.3879   10.0193    3.4937 C   0  0  0  0  0  0  0  0  0  0  0  0
   11.8511    9.7804    3.1265 C   0  0  0  0  0  0  0  0  0  0  0  0
   13.2659    6.7648    0.4822 H   0  0  0  0  0  0  0  0  0  0  0  0
   14.9817    7.1940    0.7316 H   0  0  0  0  0  0  0  0  0  0  0  0
   14.1182    6.2183    1.9789 H   0  0  0  0  0  0  0  0  0  0  0  0
   13.4353    9.0292    1.1418 H   0  0  0  0  0  0  0  0  0  0  0  0
   14.5218    9.8930    3.0061 H   0  0  0  0  0  0  0  0  0  0  0  0
   15.5925    8.8665    2.2188 H   0  0  0  0  0  0  0  0  0  0  0  0
   14.8389    8.3426    3.6484 H   0  0  0  0  0  0  0  0  0  0  0  0
   12.4711    7.8390    3.7480 H   0  0  0  0  0  0  0  0  0  0  0  0
   11.2117    7.5939    1.0361 H   0  0  0  0  0  0  0  0  0  0  0  0
   11.4077    6.3669    2.3236 H   0  0  0  0  0  0  0  0  0  0  0  0
    9.0547    7.2379    1.8268 H   0  0  0  0  0  0  0  0  0  0  0  0
    9.5649    7.2656    3.5467 H   0  0  0  0  0  0  0  0  0  0  0  0
    9.7356    9.5600    1.6294 H   0  0  0  0  0  0  0  0  0  0  0  0
    7.6552    9.5149    4.8435 H   0  0  0  0  0  0  0  0  0  0  0  0
    5.3065   10.4537    1.7245 H   0  0  0  0  0  0  0  0  0  0  0  0
    2.9693   11.1301    2.6494 H   0  0  0  0  0  0  0  0  0  0  0  0
    2.9817   10.9503    5.2127 H   0  0  0  0  0  0  0  0  0  0  0  0
    5.2923   10.1545    6.0229 H   0  0  0  0  0  0  0  0  0  0  0  0
   10.1492   11.1022    3.3982 H   0  0  0  0  0  0  0  0  0  0  0  0
   10.2369    9.7340    4.5575 H   0  0  0  0  0  0  0  0  0  0  0  0
   12.4748   10.1510    3.9689 H   0  0  0  0  0  0  0  0  0  0  0  0
   12.0642   10.4412    2.2573 H   0  0  0  0  0  0  0  0  0  0  0  0
  1  2  1  0
  2  3  1  0
  2  4  1  0
  4  5  1  0
  5  6  1  0
  6  7  1  0
  7  8  1  0
  8  9  2  0
  8 10  1  0
 10 11  1  0
 11 12  1  0
 12 13  2  0
 13 14  1  0
 14 15  1  0
  7 16  1  0
 16 17  1  0
 17  4  1  0
 15 11  2  0
  1 18  1  0
  1 19  1  0
  1 20  1  0
  2 21  1  0
  3 22  1  0
  3 23  1  0
  3 24  1  0
  4 25  1  0
  5 26  1  0
  5 27  1  0
  6 28  1  0
  6 29  1  0
  7 30  1  0
 10 31  1  0
 12 32  1  0
 13 33  1  0
 14 34  1  0
 15 35  1  0
 16 36  1  0
 16 37  1  0
 17 38  1  0
 17 39  1  0
M  CHG  1   3   1
M  END
>  <EmbedRMS>  (56) 
0.3005329260886256

$$$$

     RDKit          3D

 41 41  0  0  0  0  0  0  0  0999 V2000
   14.0128    7.0451    1.2246 C   0  0  0  0  0  0  0  0  0  0  0  0
   13.6534    8.3401    1.9332 C   0  0  0  0  0  0  0  0  0  0  0  0
   14.6165    8.7744    2.9395 N   0  0  0  0  0  4  0  0  0  0  0  0
   12.1420    8.5872    2.2327 C   0  0  0  0  0  0  0  0  0  0  0  0
   11.2631    7.3648    2.5405 C   0  0  0  0  0  0  0  0  0  0  0  0
    9.7641    7.7145    2.4333 C   0  0  0  0  0  0  0  0  0  0  0  0
    9.4407    9.1935    2.6636 C   0  0  0  0  0  0  0  0  0  0  0  0
    7.9759    9.5184    2.7373 C   0  0  0  0  0  0  0  0  0  0  0  0
    7.4055    9.6789    1.6302 O   0  0  0  0  0  0  0  0  0  0  0  0
    7.2040    9.6832    3.9346 N   0  0  0  0  0  0  0  0  0  0  0  0
    5.8641   10.1055    3.8043 N   0  0  0  0  0  0  0  0  0  0  0  0
    5.0841   10.3002    4.8217 C   0  0  0  0  0  0  0  0  0  0  0  0
    3.7250   10.7402    4.6402 N   0  0  0  0  0  0  0  0  0  0  0  0
    3.1736   10.9931    3.3107 C   0  0  0  0  0  0  0  0  0  0  0  0
    2.9039   10.9373    5.7626 N   0  0  0  0  0  0  0  0  0  0  0  0
   10.4042   10.0821    3.4346 C   0  0  0  0  0  0  0  0  0  0  0  0
   11.8889    9.6848    3.2863 C   0  0  0  0  0  0  0  0  0  0  0  0
   13.3395    6.8740    0.3571 H   0  0  0  0  0  0  0  0  0  0  0  0
   13.9237    6.1938    1.9316 H   0  0  0  0  0  0  0  0  0  0  0  0
   15.0578    7.0796    0.8475 H   0  0  0  0  0  0  0  0  0  0  0  0
   13.8429    9.0655    1.1030 H   0  0  0  0  0  0  0  0  0  0  0  0
   14.5651    9.8056    3.1016 H   0  0  0  0  0  0  0  0  0  0  0  0
   15.5918    8.5556    2.6309 H   0  0  0  0  0  0  0  0  0  0  0  0
   14.4325    8.2671    3.8348 H   0  0  0  0  0  0  0  0  0  0  0  0
   11.7481    8.9809    1.2663 H   0  0  0  0  0  0  0  0  0  0  0  0
   11.4729    6.5322    1.8376 H   0  0  0  0  0  0  0  0  0  0  0  0
   11.4938    7.0013    3.5661 H   0  0  0  0  0  0  0  0  0  0  0  0
    9.2137    7.1097    3.1865 H   0  0  0  0  0  0  0  0  0  0  0  0
    9.3838    7.3994    1.4344 H   0  0  0  0  0  0  0  0  0  0  0  0
    9.6779    9.5856    1.6451 H   0  0  0  0  0  0  0  0  0  0  0  0
    7.6358    9.5215    4.8725 H   0  0  0  0  0  0  0  0  0  0  0  0
    5.4574   10.1340    5.8255 H   0  0  0  0  0  0  0  0  0  0  0  0
    3.7613   11.7883    2.8055 H   0  0  0  0  0  0  0  0  0  0  0  0
    3.2128   10.0634    2.7049 H   0  0  0  0  0  0  0  0  0  0  0  0
    2.1160   11.3250    3.3845 H   0  0  0  0  0  0  0  0  0  0  0  0
    2.8597   10.0339    6.2873 H   0  0  0  0  0  0  0  0  0  0  0  0
    3.3700   11.6423    6.3784 H   0  0  0  0  0  0  0  0  0  0  0  0
   10.1334   10.0287    4.5113 H   0  0  0  0  0  0  0  0  0  0  0  0
   10.2657   11.1447    3.1286 H   0  0  0  0  0  0  0  0  0  0  0  0
   12.2714    9.3416    4.2727 H   0  0  0  0  0  0  0  0  0  0  0  0
   12.4541   10.5996    3.0053 H   0  0  0  0  0  0  0  0  0  0  0  0
  1  2  1  0
  2  3  1  0
  2  4  1  0
  4  5  1  0
  5  6  1  0
  6  7  1  0
  7  8  1  0
  8  9  2  0
  8 10  1  0
 10 11  1  0
 11 12  2  3
 12 13  1  0
 13 14  1  0
 13 15  1  0
  7 16  1  0
 16 17  1  0
 17  4  1  0
  1 18  1  0
  1 19  1  0
  1 20  1  0
  2 21  1  0
  3 22  1  0
  3 23  1  0
  3 24  1  0
  4 25  1  0
  5 26  1  0
  5 27  1  0
  6 28  1  0
  6 29  1  0
  7 30  1  0
 10 31  1  0
 12 32  1  0
 14 33  1  0
 14 34  1  0
 14 35  1  0
 15 36  1  0
 15 37  1  0
 16 38  1  0
 16 39  1  0
 17 40  1  0
 17 41  1  0
M  CHG  1   3   1
M  END
>  <EmbedRMS>  (57) 
0.2570984896337683

$$$$

     RDKit          3D

 42 42  0  0  0  0  0  0  0  0999 V2000
    8.6750    8.1658    7.0703 C   0  0  0  0  0  0  0  0  0  0  0  0
    8.3763    8.4580    5.8022 C   0  0  0  0  0  0  0  0  0  0  0  0
    7.3143    9.3915    5.3537 C   0  0  0  0  0  0  0  0  0  0  0  0
    6.4078    9.8578    6.2465 C   0  0  0  0  0  0  0  0  0  0  0  0
    5.2565   10.7471    5.8877 C   0  0  0  0  0  0  0  0  0  0  0  0
    7.1493    9.7152    3.9495 N   0  0  0  0  0  0  0  0  0  0  0  0
    7.9765    9.4983    2.7821 C   0  0  0  0  0  0  0  0  0  0  0  0
    7.4301    9.6608    1.6607 O   0  0  0  0  0  0  0  0  0  0  0  0
    9.4445    9.1811    2.6937 C   0  0  0  0  0  0  0  0  0  0  0  0
    9.7537    7.7156    2.4382 C   0  0  0  0  0  0  0  0  0  0  0  0
   11.2038    7.4507    2.0892 C   0  0  0  0  0  0  0  0  0  0  0  0
   12.2683    8.3270    2.7571 C   0  0  0  0  0  0  0  0  0  0  0  0
   13.6145    8.3244    1.9914 C   0  0  0  0  0  0  0  0  0  0  0  0
   14.0289    7.0506    1.2546 C   0  0  0  0  0  0  0  0  0  0  0  0
   14.7105    8.8911    2.7788 N   0  0  0  0  0  4  0  0  0  0  0  0
   11.8580    9.7797    3.1035 C   0  0  0  0  0  0  0  0  0  0  0  0
   10.4067   10.0105    3.5026 C   0  0  0  0  0  0  0  0  0  0  0  0
    9.4522    7.4407    7.2763 H   0  0  0  0  0  0  0  0  0  0  0  0
    8.2207    8.6429    7.9236 H   0  0  0  0  0  0  0  0  0  0  0  0
    8.9290    7.9270    5.0689 H   0  0  0  0  0  0  0  0  0  0  0  0
    6.4522    9.5905    7.2899 H   0  0  0  0  0  0  0  0  0  0  0  0
    5.6232   11.6730    5.3961 H   0  0  0  0  0  0  0  0  0  0  0  0
    4.7085   11.0385    6.8086 H   0  0  0  0  0  0  0  0  0  0  0  0
    4.5465   10.2109    5.2233 H   0  0  0  0  0  0  0  0  0  0  0  0
    6.2337   10.1339    3.6758 H   0  0  0  0  0  0  0  0  0  0  0  0
    9.6986    9.5966    1.6856 H   0  0  0  0  0  0  0  0  0  0  0  0
    9.1148    7.3426    1.6051 H   0  0  0  0  0  0  0  0  0  0  0  0
    9.4972    7.0769    3.2974 H   0  0  0  0  0  0  0  0  0  0  0  0
   11.2718    7.6249    0.9927 H   0  0  0  0  0  0  0  0  0  0  0  0
   11.4331    6.3748    2.2587 H   0  0  0  0  0  0  0  0  0  0  0  0
   12.4573    7.8339    3.7373 H   0  0  0  0  0  0  0  0  0  0  0  0
   13.4588    9.0294    1.1415 H   0  0  0  0  0  0  0  0  0  0  0  0
   14.1162    6.2135    1.9787 H   0  0  0  0  0  0  0  0  0  0  0  0
   13.3003    6.7723    0.4659 H   0  0  0  0  0  0  0  0  0  0  0  0
   15.0110    7.1880    0.7539 H   0  0  0  0  0  0  0  0  0  0  0  0
   14.5373    9.8979    2.9966 H   0  0  0  0  0  0  0  0  0  0  0  0
   15.6086    8.8475    2.2446 H   0  0  0  0  0  0  0  0  0  0  0  0
   14.8256    8.3542    3.6688 H   0  0  0  0  0  0  0  0  0  0  0  0
   12.4979   10.1655    3.9267 H   0  0  0  0  0  0  0  0  0  0  0  0
   12.0458   10.4293    2.2200 H   0  0  0  0  0  0  0  0  0  0  0  0
   10.1603   11.0919    3.4053 H   0  0  0  0  0  0  0  0  0  0  0  0
   10.3056    9.7529    4.5738 H   0  0  0  0  0  0  0  0  0  0  0  0
  1  2  2  3
  2  3  1  0
  3  4  2  3
  4  5  1  0
  3  6  1  0
  6  7  1  0
  7  8  2  0
  7  9  1  0
  9 10  1  0
 10 11  1  0
 11 12  1  0
 12 13  1  0
 13 14  1  0
 13 15  1  0
 12 16  1  0
 16 17  1  0
 17  9  1  0
  1 18  1  0
  1 19  1  0
  2 20  1  0
  4 21  1  0
  5 22  1  0
  5 23  1  0
  5 24  1  0
  6 25  1  0
  9 26  1  0
 10 27  1  0
 10 28  1  0
 11 29  1  0
 11 30  1  0
 12 31  1  0
 13 32  1  0
 14 33  1  0
 14 34  1  0
 14 35  1  0
 15 36  1  0
 15 37  1  0
 15 38  1  0
 16 39  1  0
 16 40  1  0
 17 41  1  0
 17 42  1  0
M  CHG  1  15   1
M  END
>  <EmbedRMS>  (58) 
0.29216731409503444

$$$$

     RDKit          3D

 41 42  0  0  0  0  0  0  0  0999 V2000
   14.0155    7.0452    1.2243 C   0  0  0  0  0  0  0  0  0  0  0  0
   13.6577    8.3402    1.9340 C   0  0  0  0  0  0  0  0  0  0  0  0
   14.6213    8.7734    2.9399 N   0  0  0  0  0  4  0  0  0  0  0  0
   12.1479    8.5868    2.2358 C   0  0  0  0  0  0  0  0  0  0  0  0
   11.2708    7.3634    2.5450 C   0  0  0  0  0  0  0  0  0  0  0  0
    9.7738    7.7130    2.4384 C   0  0  0  0  0  0  0  0  0  0  0  0
    9.4545    9.1902    2.6817 C   0  0  0  0  0  0  0  0  0  0  0  0
    7.9930    9.5119    2.7236 C   0  0  0  0  0  0  0  0  0  0  0  0
    7.4746    9.6077    1.5899 O   0  0  0  0  0  0  0  0  0  0  0  0
    7.1920    9.7025    3.9130 N   0  0  0  0  0  0  0  0  0  0  0  0
    5.8002   10.1396    3.9098 C   0  0  0  0  0  0  0  0  0  0  0  0
    5.1136   10.2622    5.1332 C   0  0  0  0  0  0  0  0  0  0  0  0
    3.7791   10.6918    5.1678 C   0  0  0  0  0  0  0  0  0  0  0  0
    3.1050   10.9965    3.9846 C   0  0  0  0  0  0  0  0  0  0  0  0
    3.7620   10.8848    2.7663 C   0  0  0  0  0  0  0  0  0  0  0  0
    5.0915   10.4774    2.7238 C   0  0  0  0  0  0  0  0  0  0  0  0
   10.4123   10.0785    3.4530 C   0  0  0  0  0  0  0  0  0  0  0  0
   11.8967    9.6862    3.2904 C   0  0  0  0  0  0  0  0  0  0  0  0
   13.3412    6.8748    0.3575 H   0  0  0  0  0  0  0  0  0  0  0  0
   15.0600    7.0795    0.8460 H   0  0  0  0  0  0  0  0  0  0  0  0
   13.9272    6.1936    1.9310 H   0  0  0  0  0  0  0  0  0  0  0  0
   13.8472    9.0661    1.1041 H   0  0  0  0  0  0  0  0  0  0  0  0
   14.4394    8.2635    3.8342 H   0  0  0  0  0  0  0  0  0  0  0  0
   14.5690    9.8041    3.1044 H   0  0  0  0  0  0  0  0  0  0  0  0
   15.5964    8.5564    2.6293 H   0  0  0  0  0  0  0  0  0  0  0  0
   11.7549    8.9789    1.2687 H   0  0  0  0  0  0  0  0  0  0  0  0
   11.4801    6.5302    1.8427 H   0  0  0  0  0  0  0  0  0  0  0  0
   11.5022    7.0014    3.5710 H   0  0  0  0  0  0  0  0  0  0  0  0
    9.3960    7.4069    1.4357 H   0  0  0  0  0  0  0  0  0  0  0  0
    9.2216    7.1022    3.1855 H   0  0  0  0  0  0  0  0  0  0  0  0
    9.7131    9.5882    1.6698 H   0  0  0  0  0  0  0  0  0  0  0  0
    7.6559    9.5263    4.8324 H   0  0  0  0  0  0  0  0  0  0  0  0
    5.6153   10.0259    6.0630 H   0  0  0  0  0  0  0  0  0  0  0  0
    3.2672   10.7820    6.1172 H   0  0  0  0  0  0  0  0  0  0  0  0
    2.0739   11.3242    4.0170 H   0  0  0  0  0  0  0  0  0  0  0  0
    3.2415   11.1383    1.8510 H   0  0  0  0  0  0  0  0  0  0  0  0
    5.5040   10.4952    1.7386 H   0  0  0  0  0  0  0  0  0  0  0  0
   10.1475   10.0136    4.5305 H   0  0  0  0  0  0  0  0  0  0  0  0
   10.2671   11.1433    3.1573 H   0  0  0  0  0  0  0  0  0  0  0  0
   12.4562   10.6027    3.0029 H   0  0  0  0  0  0  0  0  0  0  0  0
   12.2889    9.3466    4.2742 H   0  0  0  0  0  0  0  0  0  0  0  0
  1  2  1  0
  2  3  1  0
  2  4  1  0
  4  5  1  0
  5  6  1  0
  6  7  1  0
  7  8  1  0
  8  9  2  0
  8 10  1  0
 10 11  1  0
 11 12  2  0
 12 13  1  0
 13 14  2  0
 14 15  1  0
 15 16  2  0
  7 17  1  0
 17 18  1  0
 18  4  1  0
 16 11  1  0
  1 19  1  0
  1 20  1  0
  1 21  1  0
  2 22  1  0
  3 23  1  0
  3 24  1  0
  3 25  1  0
  4 26  1  0
  5 27  1  0
  5 28  1  0
  6 29  1  0
  6 30  1  0
  7 31  1  0
 10 32  1  0
 12 33  1  0
 13 34  1  0
 14 35  1  0
 15 36  1  0
 16 37  1  0
 17 38  1  0
 17 39  1  0
 18 40  1  0
 18 41  1  0
M  CHG  1   3   1
M  END
>  <EmbedRMS>  (59) 
0.24964892458419108

$$$$

     RDKit          3D

 42 42  0  0  0  0  0  0  0  0999 V2000
    8.6750    8.1658    7.0703 C   0  0  0  0  0  0  0  0  0  0  0  0
    8.3763    8.4580    5.8022 C   0  0  0  0  0  0  0  0  0  0  0  0
    7.3143    9.3915    5.3537 C   0  0  0  0  0  0  0  0  0  0  0  0
    6.4078    9.8578    6.2465 C   0  0  0  0  0  0  0  0  0  0  0  0
    5.2565   10.7471    5.8877 C   0  0  0  0  0  0  0  0  0  0  0  0
    7.1493    9.7152    3.9495 N   0  0  0  0  0  0  0  0  0  0  0  0
    7.9765    9.4983    2.7821 C   0  0  0  0  0  0  0  0  0  0  0  0
    7.4301    9.6608    1.6607 O   0  0  0  0  0  0  0  0  0  0  0  0
    9.4445    9.1811    2.6937 C   0  0  0  0  0  0  0  0  0  0  0  0
    9.7537    7.7156    2.4382 C   0  0  0  0  0  0  0  0  0  0  0  0
   11.2038    7.4507    2.0892 C   0  0  0  0  0  0  0  0  0  0  0  0
   12.2683    8.3270    2.7571 C   0  0  0  0  0  0  0  0  0  0  0  0
   13.6145    8.3244    1.9914 C   0  0  0  0  0  0  0  0  0  0  0  0
   14.0289    7.0506    1.2546 C   0  0  0  0  0  0  0  0  0  0  0  0
   14.7105    8.8911    2.7788 N   0  0  0  0  0  4  0  0  0  0  0  0
   11.8580    9.7797    3.1035 C   0  0  0  0  0  0  0  0  0  0  0  0
   10.4067   10.0105    3.5026 C   0  0  0  0  0  0  0  0  0  0  0  0
    9.4522    7.4407    7.2763 H   0  0  0  0  0  0  0  0  0  0  0  0
    8.2207    8.6429    7.9236 H   0  0  0  0  0  0  0  0  0  0  0  0
    8.9290    7.9270    5.0689 H   0  0  0  0  0  0  0  0  0  0  0  0
    6.4522    9.5905    7.2899 H   0  0  0  0  0  0  0  0  0  0  0  0
    5.6232   11.6730    5.3961 H   0  0  0  0  0  0  0  0  0  0  0  0
    4.7085   11.0385    6.8086 H   0  0  0  0  0  0  0  0  0  0  0  0
    4.5465   10.2109    5.2233 H   0  0  0  0  0  0  0  0  0  0  0  0
    6.2337   10.1339    3.6758 H   0  0  0  0  0  0  0  0  0  0  0  0
    9.6986    9.5966    1.6856 H   0  0  0  0  0  0  0  0  0  0  0  0
    9.1148    7.3426    1.6051 H   0  0  0  0  0  0  0  0  0  0  0  0
    9.4972    7.0769    3.2974 H   0  0  0  0  0  0  0  0  0  0  0  0
   11.2718    7.6249    0.9927 H   0  0  0  0  0  0  0  0  0  0  0  0
   11.4331    6.3748    2.2587 H   0  0  0  0  0  0  0  0  0  0  0  0
   12.4573    7.8339    3.7373 H   0  0  0  0  0  0  0  0  0  0  0  0
   13.4588    9.0294    1.1415 H   0  0  0  0  0  0  0  0  0  0  0  0
   14.1162    6.2135    1.9787 H   0  0  0  0  0  0  0  0  0  0  0  0
   13.3003    6.7723    0.4659 H   0  0  0  0  0  0  0  0  0  0  0  0
   15.0110    7.1880    0.7539 H   0  0  0  0  0  0  0  0  0  0  0  0
   14.5373    9.8979    2.9966 H   0  0  0  0  0  0  0  0  0  0  0  0
   15.6086    8.8475    2.2446 H   0  0  0  0  0  0  0  0  0  0  0  0
   14.8256    8.3542    3.6688 H   0  0  0  0  0  0  0  0  0  0  0  0
   12.4979   10.1655    3.9267 H   0  0  0  0  0  0  0  0  0  0  0  0
   12.0458   10.4293    2.2200 H   0  0  0  0  0  0  0  0  0  0  0  0
   10.1603   11.0919    3.4053 H   0  0  0  0  0  0  0  0  0  0  0  0
   10.3056    9.7529    4.5738 H   0  0  0  0  0  0  0  0  0  0  0  0
  1  2  2  3
  2  3  1  0
  3  4  2  3
  4  5  1  0
  3  6  1  0
  6  7  1  0
  7  8  2  0
  7  9  1  0
  9 10  1  0
 10 11  1  0
 11 12  1  0
 12 13  1  0
 13 14  1  0
 13 15  1  0
 12 16  1  0
 16 17  1  0
 17  9  1  0
  1 18  1  0
  1 19  1  0
  2 20  1  0
  4 21  1  0
  5 22  1  0
  5 23  1  0
  5 24  1  0
  6 25  1  0
  9 26  1  0
 10 27  1  0
 10 28  1  0
 11 29  1  0
 11 30  1  0
 12 31  1  0
 13 32  1  0
 14 33  1  0
 14 34  1  0
 14 35  1  0
 15 36  1  0
 15 37  1  0
 15 38  1  0
 16 39  1  0
 16 40  1  0
 17 41  1  0
 17 42  1  0
M  CHG  1  15   1
M  END
>  <EmbedRMS>  (60) 
0.29216731409503444

$$$$

     RDKit          3D

 41 42  0  0  0  0  0  0  0  0999 V2000
   14.0155    7.0452    1.2243 C   0  0  0  0  0  0  0  0  0  0  0  0
   13.6577    8.3402    1.9340 C   0  0  0  0  0  0  0  0  0  0  0  0
   14.6213    8.7734    2.9399 N   0  0  0  0  0  4  0  0  0  0  0  0
   12.1479    8.5868    2.2358 C   0  0  0  0  0  0  0  0  0  0  0  0
   11.2708    7.3634    2.5450 C   0  0  0  0  0  0  0  0  0  0  0  0
    9.7738    7.7130    2.4384 C   0  0  0  0  0  0  0  0  0  0  0  0
    9.4545    9.1902    2.6817 C   0  0  0  0  0  0  0  0  0  0  0  0
    7.9930    9.5119    2.7236 C   0  0  0  0  0  0  0  0  0  0  0  0
    7.4746    9.6077    1.5899 O   0  0  0  0  0  0  0  0  0  0  0  0
    7.1920    9.7025    3.9130 N   0  0  0  0  0  0  0  0  0  0  0  0
    5.8002   10.1396    3.9098 C   0  0  0  0  0  0  0  0  0  0  0  0
    5.1136   10.2622    5.1332 C   0  0  0  0  0  0  0  0  0  0  0  0
    3.7791   10.6918    5.1678 C   0  0  0  0  0  0  0  0  0  0  0  0
    3.1050   10.9965    3.9846 C   0  0  0  0  0  0  0  0  0  0  0  0
    3.7620   10.8848    2.7663 C   0  0  0  0  0  0  0  0  0  0  0  0
    5.0915   10.4774    2.7238 C   0  0  0  0  0  0  0  0  0  0  0  0
   10.4123   10.0785    3.4530 C   0  0  0  0  0  0  0  0  0  0  0  0
   11.8967    9.6862    3.2904 C   0  0  0  0  0  0  0  0  0  0  0  0
   13.3412    6.8748    0.3575 H   0  0  0  0  0  0  0  0  0  0  0  0
   15.0600    7.0795    0.8460 H   0  0  0  0  0  0  0  0  0  0  0  0
   13.9272    6.1936    1.9310 H   0  0  0  0  0  0  0  0  0  0  0  0
   13.8472    9.0661    1.1041 H   0  0  0  0  0  0  0  0  0  0  0  0
   14.4394    8.2635    3.8342 H   0  0  0  0  0  0  0  0  0  0  0  0
   14.5690    9.8041    3.1044 H   0  0  0  0  0  0  0  0  0  0  0  0
   15.5964    8.5564    2.6293 H   0  0  0  0  0  0  0  0  0  0  0  0
   11.7549    8.9789    1.2687 H   0  0  0  0  0  0  0  0  0  0  0  0
   11.4801    6.5302    1.8427 H   0  0  0  0  0  0  0  0  0  0  0  0
   11.5022    7.0014    3.5710 H   0  0  0  0  0  0  0  0  0  0  0  0
    9.3960    7.4069    1.4357 H   0  0  0  0  0  0  0  0  0  0  0  0
    9.2216    7.1022    3.1855 H   0  0  0  0  0  0  0  0  0  0  0  0
    9.7131    9.5882    1.6698 H   0  0  0  0  0  0  0  0  0  0  0  0
    7.6559    9.5263    4.8324 H   0  0  0  0  0  0  0  0  0  0  0  0
    5.6153   10.0259    6.0630 H   0  0  0  0  0  0  0  0  0  0  0  0
    3.2672   10.7820    6.1172 H   0  0  0  0  0  0  0  0  0  0  0  0
    2.0739   11.3242    4.0170 H   0  0  0  0  0  0  0  0  0  0  0  0
    3.2415   11.1383    1.8510 H   0  0  0  0  0  0  0  0  0  0  0  0
    5.5040   10.4952    1.7386 H   0  0  0  0  0  0  0  0  0  0  0  0
   10.1475   10.0136    4.5305 H   0  0  0  0  0  0  0  0  0  0  0  0
   10.2671   11.1433    3.1573 H   0  0  0  0  0  0  0  0  0  0  0  0
   12.4562   10.6027    3.0029 H   0  0  0  0  0  0  0  0  0  0  0  0
   12.2889    9.3466    4.2742 H   0  0  0  0  0  0  0  0  0  0  0  0
  1  2  1  0
  2  3  1  0
  2  4  1  0
  4  5  1  0
  5  6  1  0
  6  7  1  0
  7  8  1  0
  8  9  2  0
  8 10  1  0
 10 11  1  0
 11 12  2  0
 12 13  1  0
 13 14  2  0
 14 15  1  0
 15 16  2  0
  7 17  1  0
 17 18  1  0
 18  4  1  0
 16 11  1  0
  1 19  1  0
  1 20  1  0
  1 21  1  0
  2 22  1  0
  3 23  1  0
  3 24  1  0
  3 25  1  0
  4 26  1  0
  5 27  1  0
  5 28  1  0
  6 29  1  0
  6 30  1  0
  7 31  1  0
 10 32  1  0
 12 33  1  0
 13 34  1  0
 14 35  1  0
 15 36  1  0
 16 37  1  0
 17 38  1  0
 17 39  1  0
 18 40  1  0
 18 41  1  0
M  CHG  1   3   1
M  END
>  <EmbedRMS>  (61) 
0.24964892458419108

$$$$

     RDKit          3D

 39 40  0  0  0  0  0  0  0  0999 V2000
   14.0110    7.0511    1.2526 C   0  0  0  0  0  0  0  0  0  0  0  0
   13.6007    8.3248    1.9901 C   0  0  0  0  0  0  0  0  0  0  0  0
   14.7033    8.8921    2.7690 N   0  0  0  0  0  4  0  0  0  0  0  0
   12.2625    8.3270    2.7691 C   0  0  0  0  0  0  0  0  0  0  0  0
   11.1802    7.4398    2.1370 C   0  0  0  0  0  0  0  0  0  0  0  0
    9.7464    7.7250    2.5506 C   0  0  0  0  0  0  0  0  0  0  0  0
    9.4528    9.2006    2.6508 C   0  0  0  0  0  0  0  0  0  0  0  0
    7.9907    9.5272    2.7197 C   0  0  0  0  0  0  0  0  0  0  0  0
    7.4511    9.6605    1.5982 O   0  0  0  0  0  0  0  0  0  0  0  0
    7.2032    9.6917    3.9188 N   0  0  0  0  0  0  0  0  0  0  0  0
    5.8190   10.1244    3.8864 C   0  0  0  0  0  0  0  0  0  0  0  0
    5.0492   10.4501    2.7707 C   0  0  0  0  0  0  0  0  0  0  0  0
    3.8118   10.8137    3.2504 C   0  0  0  0  0  0  0  0  0  0  0  0
    3.7917   10.7296    4.5924 N   0  0  0  0  0  0  0  0  0  0  0  0
    5.0092   10.3116    4.9903 C   0  0  0  0  0  0  0  0  0  0  0  0
   10.3879   10.0193    3.4937 C   0  0  0  0  0  0  0  0  0  0  0  0
   11.8511    9.7804    3.1265 C   0  0  0  0  0  0  0  0  0  0  0  0
   13.2659    6.7648    0.4822 H   0  0  0  0  0  0  0  0  0  0  0  0
   14.9817    7.1940    0.7316 H   0  0  0  0  0  0  0  0  0  0  0  0
   14.1182    6.2183    1.9789 H   0  0  0  0  0  0  0  0  0  0  0  0
   13.4353    9.0292    1.1418 H   0  0  0  0  0  0  0  0  0  0  0  0
   14.5218    9.8930    3.0061 H   0  0  0  0  0  0  0  0  0  0  0  0
   15.5925    8.8665    2.2188 H   0  0  0  0  0  0  0  0  0  0  0  0
   14.8389    8.3426    3.6484 H   0  0  0  0  0  0  0  0  0  0  0  0
   12.4711    7.8390    3.7480 H   0  0  0  0  0  0  0  0  0  0  0  0
   11.2117    7.5939    1.0361 H   0  0  0  0  0  0  0  0  0  0  0  0
   11.4077    6.3669    2.3236 H   0  0  0  0  0  0  0  0  0  0  0  0
    9.0547    7.2379    1.8268 H   0  0  0  0  0  0  0  0  0  0  0  0
    9.5649    7.2656    3.5467 H   0  0  0  0  0  0  0  0  0  0  0  0
    9.7356    9.5600    1.6294 H   0  0  0  0  0  0  0  0  0  0  0  0
    7.6552    9.5149    4.8435 H   0  0  0  0  0  0  0  0  0  0  0  0
    5.3065   10.4537    1.7245 H   0  0  0  0  0  0  0  0  0  0  0  0
    2.9693   11.1301    2.6494 H   0  0  0  0  0  0  0  0  0  0  0  0
    2.9817   10.9503    5.2127 H   0  0  0  0  0  0  0  0  0  0  0  0
    5.2923   10.1545    6.0229 H   0  0  0  0  0  0  0  0  0  0  0  0
   10.1492   11.1022    3.3982 H   0  0  0  0  0  0  0  0  0  0  0  0
   10.2369    9.7340    4.5575 H   0  0  0  0  0  0  0  0  0  0  0  0
   12.4748   10.1510    3.9689 H   0  0  0  0  0  0  0  0  0  0  0  0
   12.0642   10.4412    2.2573 H   0  0  0  0  0  0  0  0  0  0  0  0
  1  2  1  0
  2  3  1  0
  2  4  1  0
  4  5  1  0
  5  6  1  0
  6  7  1  0
  7  8  1  0
  8  9  2  0
  8 10  1  0
 10 11  1  0
 11 12  1  0
 12 13  2  0
 13 14  1  0
 14 15  1  0
  7 16  1  0
 16 17  1  0
 17  4  1  0
 15 11  2  0
  1 18  1  0
  1 19  1  0
  1 20  1  0
  2 21  1  0
  3 22  1  0
  3 23  1  0
  3 24  1  0
  4 25  1  0
  5 26  1  0
  5 27  1  0
  6 28  1  0
  6 29  1  0
  7 30  1  0
 10 31  1  0
 12 32  1  0
 13 33  1  0
 14 34  1  0
 15 35  1  0
 16 36  1  0
 16 37  1  0
 17 38  1  0
 17 39  1  0
M  CHG  1   3   1
M  END
>  <EmbedRMS>  (62) 
0.3005329260886256

$$$$

     RDKit          3D

 42 42  0  0  0  0  0  0  0  0999 V2000
    5.6442    9.9863    6.4267 C   0  0  0  0  0  0  0  0  0  0  0  0
    5.0643   10.2686    5.2531 C   0  0  0  0  0  0  0  0  0  0  0  0
    3.6248   10.7451    5.2920 C   0  0  0  0  0  0  0  0  0  0  0  0
    5.7993   10.1398    3.9420 C   0  0  0  0  0  0  0  0  0  0  0  0
    5.1203   10.4652    2.8175 C   0  0  0  0  0  0  0  0  0  0  0  0
    7.2071    9.7252    3.9020 N   0  0  0  0  0  0  0  0  0  0  0  0
    7.9946    9.5364    2.7026 C   0  0  0  0  0  0  0  0  0  0  0  0
    7.4640    9.6168    1.5746 O   0  0  0  0  0  0  0  0  0  0  0  0
    9.4581    9.2141    2.6473 C   0  0  0  0  0  0  0  0  0  0  0  0
    9.7401    7.7439    2.3770 C   0  0  0  0  0  0  0  0  0  0  0  0
   11.2019    7.3496    2.5443 C   0  0  0  0  0  0  0  0  0  0  0  0
   12.1849    8.5085    2.2981 C   0  0  0  0  0  0  0  0  0  0  0  0
   13.6484    7.9627    2.3855 C   0  0  0  0  0  0  0  0  0  0  0  0
   14.0286    7.2303    1.0858 C   0  0  0  0  0  0  0  0  0  0  0  0
   14.6296    9.0247    2.6464 N   0  0  0  0  0  4  0  0  0  0  0  0
   11.9007    9.6393    3.3209 C   0  0  0  0  0  0  0  0  0  0  0  0
   10.4224   10.0728    3.4398 C   0  0  0  0  0  0  0  0  0  0  0  0
    5.1004   10.0952    7.3570 H   0  0  0  0  0  0  0  0  0  0  0  0
    6.6506    9.6241    6.5348 H   0  0  0  0  0  0  0  0  0  0  0  0
    2.9775   10.0382    4.7315 H   0  0  0  0  0  0  0  0  0  0  0  0
    3.2212   10.8080    6.3258 H   0  0  0  0  0  0  0  0  0  0  0  0
    3.5504   11.7614    4.8508 H   0  0  0  0  0  0  0  0  0  0  0  0
    5.5158   10.5446    1.8288 H   0  0  0  0  0  0  0  0  0  0  0  0
    4.0804   10.7514    2.8275 H   0  0  0  0  0  0  0  0  0  0  0  0
    7.7400    9.5824    4.7820 H   0  0  0  0  0  0  0  0  0  0  0  0
    9.7358    9.6231    1.6427 H   0  0  0  0  0  0  0  0  0  0  0  0
    9.4030    7.4758    1.3485 H   0  0  0  0  0  0  0  0  0  0  0  0
    9.1325    7.1277    3.0763 H   0  0  0  0  0  0  0  0  0  0  0  0
   11.4017    6.4986    1.8624 H   0  0  0  0  0  0  0  0  0  0  0  0
   11.3477    6.9713    3.5814 H   0  0  0  0  0  0  0  0  0  0  0  0
   12.0138    8.9215    1.2783 H   0  0  0  0  0  0  0  0  0  0  0  0
   13.7180    7.2278    3.2204 H   0  0  0  0  0  0  0  0  0  0  0  0
   13.9575    7.9171    0.2155 H   0  0  0  0  0  0  0  0  0  0  0  0
   13.3813    6.3500    0.9049 H   0  0  0  0  0  0  0  0  0  0  0  0
   15.0720    6.8550    1.1506 H   0  0  0  0  0  0  0  0  0  0  0  0
   14.5186    9.3996    3.6156 H   0  0  0  0  0  0  0  0  0  0  0  0
   15.6013    8.6424    2.5826 H   0  0  0  0  0  0  0  0  0  0  0  0
   14.5276    9.7980    1.9491 H   0  0  0  0  0  0  0  0  0  0  0  0
   12.2458    9.3059    4.3252 H   0  0  0  0  0  0  0  0  0  0  0  0
   12.4962   10.5376    3.0498 H   0  0  0  0  0  0  0  0  0  0  0  0
   10.3162   11.1415    3.1418 H   0  0  0  0  0  0  0  0  0  0  0  0
   10.1291   10.0191    4.5104 H   0  0  0  0  0  0  0  0  0  0  0  0
  1  2  2  3
  2  3  1  0
  2  4  1  0
  4  5  2  3
  4  6  1  0
  6  7  1  0
  7  8  2  0
  7  9  1  0
  9 10  1  0
 10 11  1  0
 11 12  1  0
 12 13  1  0
 13 14  1  0
 13 15  1  0
 12 16  1  0
 16 17  1  0
 17  9  1  0
  1 18  1  0
  1 19  1  0
  3 20  1  0
  3 21  1  0
  3 22  1  0
  5 23  1  0
  5 24  1  0
  6 25  1  0
  9 26  1  0
 10 27  1  0
 10 28  1  0
 11 29  1  0
 11 30  1  0
 12 31  1  0
 13 32  1  0
 14 33  1  0
 14 34  1  0
 14 35  1  0
 15 36  1  0
 15 37  1  0
 15 38  1  0
 16 39  1  0
 16 40  1  0
 17 41  1  0
 17 42  1  0
M  CHG  1  15   1
M  END
>  <EmbedRMS>  (63) 
0.18263911859618057

$$$$

     RDKit          3D

 44 45  0  0  0  0  0  0  0  0999 V2000
   14.0491    7.2192    1.1051 C   0  0  0  0  0  0  0  0  0  0  0  0
   13.6499    7.9554    2.3993 C   0  0  0  0  0  0  0  0  0  0  0  0
   14.6293    9.0155    2.6715 N   0  0  0  0  0  4  0  0  0  0  0  0
   12.2007    8.5120    2.2736 C   0  0  0  0  0  0  0  0  0  0  0  0
   11.1807    7.3658    2.4346 C   0  0  0  0  0  0  0  0  0  0  0  0
    9.7726    7.8720    2.1539 C   0  0  0  0  0  0  0  0  0  0  0  0
    9.4099    8.9946    3.1307 C   0  0  0  0  0  0  0  0  0  0  0  0
    8.0144    9.4819    2.8685 C   0  0  0  0  0  0  0  0  0  0  0  0
    7.6163    9.6899    1.6878 O   0  0  0  0  0  0  0  0  0  0  0  0
    7.1421    9.7123    3.9750 N   0  0  0  0  0  0  0  0  0  0  0  0
    5.7615   10.1355    3.7870 C   0  0  0  0  0  0  0  0  0  0  0  0
    5.0980   10.2938    5.1182 C   0  0  0  0  0  0  0  0  0  0  0  0
    4.3917    9.3155    5.7845 C   0  0  0  0  0  0  0  0  0  0  0  0
    4.0621    9.8968    6.9943 C   0  0  0  0  0  0  0  0  0  0  0  0
    4.5655   11.1466    7.0524 N   0  0  0  0  0  0  0  0  0  0  0  0
    5.2022   11.3746    5.9156 N   0  0  0  0  0  0  0  0  0  0  0  0
    5.8996   12.6191    5.6126 C   0  0  0  0  0  0  0  0  0  0  0  0
   10.4244   10.1488    3.0655 C   0  0  0  0  0  0  0  0  0  0  0  0
   11.8589    9.6374    3.2816 C   0  0  0  0  0  0  0  0  0  0  0  0
   15.0965    6.8576    1.1812 H   0  0  0  0  0  0  0  0  0  0  0  0
   13.4183    6.3265    0.9275 H   0  0  0  0  0  0  0  0  0  0  0  0
   13.9788    7.8972    0.2277 H   0  0  0  0  0  0  0  0  0  0  0  0
   13.6913    7.2248    3.2394 H   0  0  0  0  0  0  0  0  0  0  0  0
   14.5438    9.7862    1.9690 H   0  0  0  0  0  0  0  0  0  0  0  0
   15.6007    8.6296    2.6307 H   0  0  0  0  0  0  0  0  0  0  0  0
   14.4966    9.3930    3.6373 H   0  0  0  0  0  0  0  0  0  0  0  0
   12.0890    8.9476    1.2538 H   0  0  0  0  0  0  0  0  0  0  0  0
   11.2335    6.9397    3.4615 H   0  0  0  0  0  0  0  0  0  0  0  0
   11.3829    6.5448    1.7186 H   0  0  0  0  0  0  0  0  0  0  0  0
    9.7117    8.2308    1.1019 H   0  0  0  0  0  0  0  0  0  0  0  0
    9.0568    7.0288    2.2728 H   0  0  0  0  0  0  0  0  0  0  0  0
    9.4450    8.5671    4.1584 H   0  0  0  0  0  0  0  0  0  0  0  0
    7.5143    9.5749    4.9433 H   0  0  0  0  0  0  0  0  0  0  0  0
    5.2177    9.3738    3.1876 H   0  0  0  0  0  0  0  0  0  0  0  0
    5.7355   11.0991    3.2352 H   0  0  0  0  0  0  0  0  0  0  0  0
    4.1557    8.3159    5.4443 H   0  0  0  0  0  0  0  0  0  0  0  0
    3.4981    9.4307    7.7909 H   0  0  0  0  0  0  0  0  0  0  0  0
    5.8854   13.2918    6.4963 H   0  0  0  0  0  0  0  0  0  0  0  0
    6.9558   12.4043    5.3455 H   0  0  0  0  0  0  0  0  0  0  0  0
    5.3997   13.1315    4.7642 H   0  0  0  0  0  0  0  0  0  0  0  0
   10.1851   10.8999    3.8499 H   0  0  0  0  0  0  0  0  0  0  0  0
   10.3600   10.6536    2.0757 H   0  0  0  0  0  0  0  0  0  0  0  0
   12.5384   10.5044    3.1429 H   0  0  0  0  0  0  0  0  0  0  0  0
   11.9731    9.2648    4.3236 H   0  0  0  0  0  0  0  0  0  0  0  0
  1  2  1  0
  2  3  1  0
  2  4  1  0
  4  5  1  0
  5  6  1  0
  6  7  1  0
  7  8  1  0
  8  9  2  0
  8 10  1  0
 10 11  1  0
 11 12  1  0
 12 13  2  0
 13 14  1  0
 14 15  2  0
 15 16  1  0
 16 17  1  0
  7 18  1  0
 18 19  1  0
 19  4  1  0
 16 12  1  0
  1 20  1  0
  1 21  1  0
  1 22  1  0
  2 23  1  0
  3 24  1  0
  3 25  1  0
  3 26  1  0
  4 27  1  0
  5 28  1  0
  5 29  1  0
  6 30  1  0
  6 31  1  0
  7 32  1  0
 10 33  1  0
 11 34  1  0
 11 35  1  0
 13 36  1  0
 14 37  1  0
 17 38  1  0
 17 39  1  0
 17 40  1  0
 18 41  1  0
 18 42  1  0
 19 43  1  0
 19 44  1  0
M  CHG  1   3   1
M  END
>  <EmbedRMS>  (64) 
0.027804703519808214

$$$$

     RDKit          3D

 42 43  0  0  0  0  0  0  0  0999 V2000
   14.0094    7.0504    1.2533 C   0  0  0  0  0  0  0  0  0  0  0  0
   13.5988    8.3244    1.9900 C   0  0  0  0  0  0  0  0  0  0  0  0
   14.7011    8.8919    2.7695 N   0  0  0  0  0  4  0  0  0  0  0  0
   12.2591    8.3279    2.7674 C   0  0  0  0  0  0  0  0  0  0  0  0
   11.1757    7.4412    2.1357 C   0  0  0  0  0  0  0  0  0  0  0  0
    9.7398    7.7282    2.5466 C   0  0  0  0  0  0  0  0  0  0  0  0
    9.4445    9.2042    2.6453 C   0  0  0  0  0  0  0  0  0  0  0  0
    7.9808    9.5349    2.7314 C   0  0  0  0  0  0  0  0  0  0  0  0
    7.4308    9.7480    1.6249 O   0  0  0  0  0  0  0  0  0  0  0  0
    7.2020    9.6521    3.9398 N   0  0  0  0  0  0  0  0  0  0  0  0
    5.7636    9.8229    3.9010 C   0  0  0  0  0  0  0  0  0  0  0  0
    5.0451   10.6690    4.7275 C   0  0  0  0  0  0  0  0  0  0  0  0
    3.7119   10.5044    4.3882 C   0  0  0  0  0  0  0  0  0  0  0  0
    3.6686    9.5589    3.3830 C   0  0  0  0  0  0  0  0  0  0  0  0
    4.9155    9.1348    3.0973 N   0  0  0  0  0  0  0  0  0  0  0  0
    5.2230    8.0500    2.1686 C   0  0  0  0  0  0  0  0  0  0  0  0
   10.3845   10.0206    3.4875 C   0  0  0  0  0  0  0  0  0  0  0  0
   11.8475    9.7816    3.1206 C   0  0  0  0  0  0  0  0  0  0  0  0
   13.2643    6.7636    0.4832 H   0  0  0  0  0  0  0  0  0  0  0  0
   14.9802    7.1930    0.7324 H   0  0  0  0  0  0  0  0  0  0  0  0
   14.1164    6.2181    1.9802 H   0  0  0  0  0  0  0  0  0  0  0  0
   13.4348    9.0283    1.1410 H   0  0  0  0  0  0  0  0  0  0  0  0
   14.5198    9.8931    3.0054 H   0  0  0  0  0  0  0  0  0  0  0  0
   15.5909    8.8653    2.2203 H   0  0  0  0  0  0  0  0  0  0  0  0
   14.8353    8.3432    3.6496 H   0  0  0  0  0  0  0  0  0  0  0  0
   12.4661    7.8416    3.7475 H   0  0  0  0  0  0  0  0  0  0  0  0
   11.2089    7.5937    1.0347 H   0  0  0  0  0  0  0  0  0  0  0  0
   11.4019    6.3683    2.3238 H   0  0  0  0  0  0  0  0  0  0  0  0
    9.0482    7.2418    1.8223 H   0  0  0  0  0  0  0  0  0  0  0  0
    9.5561    7.2692    3.5425 H   0  0  0  0  0  0  0  0  0  0  0  0
    9.7190    9.5618    1.6216 H   0  0  0  0  0  0  0  0  0  0  0  0
    7.7005    9.7694    4.8497 H   0  0  0  0  0  0  0  0  0  0  0  0
    5.4436   11.3286    5.4867 H   0  0  0  0  0  0  0  0  0  0  0  0
    2.8662   11.0094    4.8351 H   0  0  0  0  0  0  0  0  0  0  0  0
    2.7693    9.1808    2.9134 H   0  0  0  0  0  0  0  0  0  0  0  0
    4.4056    7.2977    2.1821 H   0  0  0  0  0  0  0  0  0  0  0  0
    6.1567    7.5280    2.4648 H   0  0  0  0  0  0  0  0  0  0  0  0
    5.3103    8.4483    1.1367 H   0  0  0  0  0  0  0  0  0  0  0  0
   10.1472   11.1040    3.3934 H   0  0  0  0  0  0  0  0  0  0  0  0
   10.2352    9.7350    4.5515 H   0  0  0  0  0  0  0  0  0  0  0  0
   12.0598   10.4400    2.2494 H   0  0  0  0  0  0  0  0  0  0  0  0
   12.4713   10.1548    3.9619 H   0  0  0  0  0  0  0  0  0  0  0  0
  1  2  1  0
  2  3  1  0
  2  4  1  0
  4  5  1  0
  5  6  1  0
  6  7  1  0
  7  8  1  0
  8  9  2  0
  8 10  1  0
 10 11  1  0
 11 12  2  0
 12 13  1  0
 13 14  2  0
 14 15  1  0
 15 16  1  0
  7 17  1  0
 17 18  1  0
 18  4  1  0
 15 11  1  0
  1 19  1  0
  1 20  1  0
  1 21  1  0
  2 22  1  0
  3 23  1  0
  3 24  1  0
  3 25  1  0
  4 26  1  0
  5 27  1  0
  5 28  1  0
  6 29  1  0
  6 30  1  0
  7 31  1  0
 10 32  1  0
 12 33  1  0
 13 34  1  0
 14 35  1  0
 16 36  1  0
 16 37  1  0
 16 38  1  0
 17 39  1  0
 17 40  1  0
 18 41  1  0
 18 42  1  0
M  CHG  1   3   1
M  END
>  <EmbedRMS>  (65) 
0.293041831892948

$$$$

     RDKit          3D

 42 42  0  0  0  0  0  0  0  0999 V2000
    8.6750    8.1658    7.0703 C   0  0  0  0  0  0  0  0  0  0  0  0
    8.3763    8.4580    5.8022 C   0  0  0  0  0  0  0  0  0  0  0  0
    7.3143    9.3915    5.3537 C   0  0  0  0  0  0  0  0  0  0  0  0
    6.4078    9.8578    6.2465 C   0  0  0  0  0  0  0  0  0  0  0  0
    5.2565   10.7471    5.8877 C   0  0  0  0  0  0  0  0  0  0  0  0
    7.1493    9.7152    3.9495 N   0  0  0  0  0  0  0  0  0  0  0  0
    7.9765    9.4983    2.7821 C   0  0  0  0  0  0  0  0  0  0  0  0
    7.4301    9.6608    1.6607 O   0  0  0  0  0  0  0  0  0  0  0  0
    9.4445    9.1811    2.6937 C   0  0  0  0  0  0  0  0  0  0  0  0
    9.7537    7.7156    2.4382 C   0  0  0  0  0  0  0  0  0  0  0  0
   11.2038    7.4507    2.0892 C   0  0  0  0  0  0  0  0  0  0  0  0
   12.2683    8.3270    2.7571 C   0  0  0  0  0  0  0  0  0  0  0  0
   13.6145    8.3244    1.9914 C   0  0  0  0  0  0  0  0  0  0  0  0
   14.0289    7.0506    1.2546 C   0  0  0  0  0  0  0  0  0  0  0  0
   14.7105    8.8911    2.7788 N   0  0  0  0  0  4  0  0  0  0  0  0
   11.8580    9.7797    3.1035 C   0  0  0  0  0  0  0  0  0  0  0  0
   10.4067   10.0105    3.5026 C   0  0  0  0  0  0  0  0  0  0  0  0
    9.4522    7.4407    7.2763 H   0  0  0  0  0  0  0  0  0  0  0  0
    8.2207    8.6429    7.9236 H   0  0  0  0  0  0  0  0  0  0  0  0
    8.9290    7.9270    5.0689 H   0  0  0  0  0  0  0  0  0  0  0  0
    6.4522    9.5905    7.2899 H   0  0  0  0  0  0  0  0  0  0  0  0
    5.6232   11.6730    5.3961 H   0  0  0  0  0  0  0  0  0  0  0  0
    4.7085   11.0385    6.8086 H   0  0  0  0  0  0  0  0  0  0  0  0
    4.5465   10.2109    5.2233 H   0  0  0  0  0  0  0  0  0  0  0  0
    6.2337   10.1339    3.6758 H   0  0  0  0  0  0  0  0  0  0  0  0
    9.6986    9.5966    1.6856 H   0  0  0  0  0  0  0  0  0  0  0  0
    9.1148    7.3426    1.6051 H   0  0  0  0  0  0  0  0  0  0  0  0
    9.4972    7.0769    3.2974 H   0  0  0  0  0  0  0  0  0  0  0  0
   11.2718    7.6249    0.9927 H   0  0  0  0  0  0  0  0  0  0  0  0
   11.4331    6.3748    2.2587 H   0  0  0  0  0  0  0  0  0  0  0  0
   12.4573    7.8339    3.7373 H   0  0  0  0  0  0  0  0  0  0  0  0
   13.4588    9.0294    1.1415 H   0  0  0  0  0  0  0  0  0  0  0  0
   14.1162    6.2135    1.9787 H   0  0  0  0  0  0  0  0  0  0  0  0
   13.3003    6.7723    0.4659 H   0  0  0  0  0  0  0  0  0  0  0  0
   15.0110    7.1880    0.7539 H   0  0  0  0  0  0  0  0  0  0  0  0
   14.5373    9.8979    2.9966 H   0  0  0  0  0  0  0  0  0  0  0  0
   15.6086    8.8475    2.2446 H   0  0  0  0  0  0  0  0  0  0  0  0
   14.8256    8.3542    3.6688 H   0  0  0  0  0  0  0  0  0  0  0  0
   12.4979   10.1655    3.9267 H   0  0  0  0  0  0  0  0  0  0  0  0
   12.0458   10.4293    2.2200 H   0  0  0  0  0  0  0  0  0  0  0  0
   10.1603   11.0919    3.4053 H   0  0  0  0  0  0  0  0  0  0  0  0
   10.3056    9.7529    4.5738 H   0  0  0  0  0  0  0  0  0  0  0  0
  1  2  2  3
  2  3  1  0
  3  4  2  3
  4  5  1  0
  3  6  1  0
  6  7  1  0
  7  8  2  0
  7  9  1  0
  9 10  1  0
 10 11  1  0
 11 12  1  0
 12 13  1  0
 13 14  1  0
 13 15  1  0
 12 16  1  0
 16 17  1  0
 17  9  1  0
  1 18  1  0
  1 19  1  0
  2 20  1  0
  4 21  1  0
  5 22  1  0
  5 23  1  0
  5 24  1  0
  6 25  1  0
  9 26  1  0
 10 27  1  0
 10 28  1  0
 11 29  1  0
 11 30  1  0
 12 31  1  0
 13 32  1  0
 14 33  1  0
 14 34  1  0
 14 35  1  0
 15 36  1  0
 15 37  1  0
 15 38  1  0
 16 39  1  0
 16 40  1  0
 17 41  1  0
 17 42  1  0
M  CHG  1  15   1
M  END
>  <EmbedRMS>  (66) 
0.29216731409503444

$$$$

     RDKit          3D

 39 40  0  0  0  0  0  0  0  0999 V2000
   14.0274    7.0399    1.2346 C   0  0  0  0  0  0  0  0  0  0  0  0
   13.6685    8.3367    1.9397 C   0  0  0  0  0  0  0  0  0  0  0  0
   14.6127    8.7692    2.9622 N   0  0  0  0  0  4  0  0  0  0  0  0
   12.1569    8.5901    2.2121 C   0  0  0  0  0  0  0  0  0  0  0  0
   11.2393    7.3776    2.4524 C   0  0  0  0  0  0  0  0  0  0  0  0
    9.7869    7.8250    2.2132 C   0  0  0  0  0  0  0  0  0  0  0  0
    9.4106    8.9850    3.1541 C   0  0  0  0  0  0  0  0  0  0  0  0
    8.0129    9.4638    2.8807 C   0  0  0  0  0  0  0  0  0  0  0  0
    7.6333    9.7053    1.7003 O   0  0  0  0  0  0  0  0  0  0  0  0
    7.1397    9.6967    3.9895 N   0  0  0  0  0  0  0  0  0  0  0  0
    5.7512    9.8619    3.8621 N   0  0  0  0  0  0  0  0  0  0  0  0
    4.9670   10.5542    4.7024 C   0  0  0  0  0  0  0  0  0  0  0  0
    3.6676   10.3945    4.3827 N   0  0  0  0  0  0  0  0  0  0  0  0
    3.6124    9.5720    3.3423 N   0  0  0  0  0  0  0  0  0  0  0  0
    4.8819    9.2469    3.0375 C   0  0  0  0  0  0  0  0  0  0  0  0
    5.2184    8.2413    2.0810 N   0  0  0  0  0  0  0  0  0  0  0  0
   10.4054   10.1594    3.0875 C   0  0  0  0  0  0  0  0  0  0  0  0
   11.8548    9.6814    3.2540 C   0  0  0  0  0  0  0  0  0  0  0  0
   13.9073    6.1870    1.9351 H   0  0  0  0  0  0  0  0  0  0  0  0
   15.0825    7.0606    0.8859 H   0  0  0  0  0  0  0  0  0  0  0  0
   13.3763    6.8821    0.3478 H   0  0  0  0  0  0  0  0  0  0  0  0
   13.8821    9.0583    1.1114 H   0  0  0  0  0  0  0  0  0  0  0  0
   14.3772    8.3028    3.8677 H   0  0  0  0  0  0  0  0  0  0  0  0
   14.5954    9.8065    3.0878 H   0  0  0  0  0  0  0  0  0  0  0  0
   15.5889    8.5028    2.6972 H   0  0  0  0  0  0  0  0  0  0  0  0
   11.8015    9.0088    1.2374 H   0  0  0  0  0  0  0  0  0  0  0  0
   11.3690    6.9870    3.4855 H   0  0  0  0  0  0  0  0  0  0  0  0
   11.4615    6.5574    1.7396 H   0  0  0  0  0  0  0  0  0  0  0  0
    9.6557    8.1242    1.1492 H   0  0  0  0  0  0  0  0  0  0  0  0
    9.1111    6.9627    2.4044 H   0  0  0  0  0  0  0  0  0  0  0  0
    9.4430    8.5809    4.1914 H   0  0  0  0  0  0  0  0  0  0  0  0
    7.5695    9.8409    4.9314 H   0  0  0  0  0  0  0  0  0  0  0  0
    5.3247   11.1492    5.5326 H   0  0  0  0  0  0  0  0  0  0  0  0
    4.4795    7.8687    1.4446 H   0  0  0  0  0  0  0  0  0  0  0  0
    6.1338    7.7436    2.1119 H   0  0  0  0  0  0  0  0  0  0  0  0
   10.1716   10.8900    3.8927 H   0  0  0  0  0  0  0  0  0  0  0  0
   10.3020   10.6869    2.1127 H   0  0  0  0  0  0  0  0  0  0  0  0
   12.0200    9.2958    4.2839 H   0  0  0  0  0  0  0  0  0  0  0  0
   12.5078   10.5648    3.0943 H   0  0  0  0  0  0  0  0  0  0  0  0
  1  2  1  0
  2  3  1  0
  2  4  1  0
  4  5  1  0
  5  6  1  0
  6  7  1  0
  7  8  1  0
  8  9  2  0
  8 10  1  0
 10 11  1  0
 11 12  1  0
 12 13  2  0
 13 14  1  0
 14 15  2  0
 15 16  1  0
  7 17  1  0
 17 18  1  0
 18  4  1  0
 15 11  1  0
  1 19  1  0
  1 20  1  0
  1 21  1  0
  2 22  1  0
  3 23  1  0
  3 24  1  0
  3 25  1  0
  4 26  1  0
  5 27  1  0
  5 28  1  0
  6 29  1  0
  6 30  1  0
  7 31  1  0
 10 32  1  0
 12 33  1  0
 16 34  1  0
 16 35  1  0
 17 36  1  0
 17 37  1  0
 18 38  1  0
 18 39  1  0
M  CHG  1   3   1
M  END
>  <EmbedRMS>  (67) 
0.18254033061587324

$$$$

     RDKit          3D

 47 47  0  0  0  0  0  0  0  0999 V2000
    5.4483   13.0414    6.0047 C   0  0  0  0  0  0  0  0  0  0  0  0
    5.9897   11.8981    5.2819 N   0  0  0  0  0  0  0  0  0  0  0  0
    5.2161   11.1041    4.6155 C   0  0  0  0  0  0  0  0  0  0  0  0
    5.7615    9.9300    3.8877 C   0  0  0  0  0  0  0  0  0  0  0  0
    7.1910    9.6691    3.9437 N   0  0  0  0  0  0  0  0  0  0  0  0
    7.9739    9.5325    2.7387 C   0  0  0  0  0  0  0  0  0  0  0  0
    7.4219    9.7282    1.6279 O   0  0  0  0  0  0  0  0  0  0  0  0
    9.4390    9.1987    2.6676 C   0  0  0  0  0  0  0  0  0  0  0  0
    9.7597    7.7185    2.4361 C   0  0  0  0  0  0  0  0  0  0  0  0
   11.2594    7.3662    2.5404 C   0  0  0  0  0  0  0  0  0  0  0  0
   12.1405    8.5876    2.2329 C   0  0  0  0  0  0  0  0  0  0  0  0
   13.6520    8.3397    1.9334 C   0  0  0  0  0  0  0  0  0  0  0  0
   14.0111    7.0444    1.2251 C   0  0  0  0  0  0  0  0  0  0  0  0
   14.6157    8.7744    2.9392 N   0  0  0  0  0  4  0  0  0  0  0  0
   11.8890    9.6855    3.2864 C   0  0  0  0  0  0  0  0  0  0  0  0
   10.4051   10.0848    3.4369 C   0  0  0  0  0  0  0  0  0  0  0  0
    4.9174    9.0974    3.2141 C   0  0  0  0  0  0  0  0  0  0  0  0
    5.3991    7.8145    2.5867 C   0  0  0  0  0  0  0  0  0  0  0  0
    3.4414    9.3949    3.0805 C   0  0  0  0  0  0  0  0  0  0  0  0
    4.7289   12.6982    6.7788 H   0  0  0  0  0  0  0  0  0  0  0  0
    4.9392   13.7330    5.2996 H   0  0  0  0  0  0  0  0  0  0  0  0
    6.2782   13.5840    6.5023 H   0  0  0  0  0  0  0  0  0  0  0  0
    4.1532   11.3107    4.6090 H   0  0  0  0  0  0  0  0  0  0  0  0
    7.6877    9.7523    4.8583 H   0  0  0  0  0  0  0  0  0  0  0  0
    9.6816    9.5881    1.6493 H   0  0  0  0  0  0  0  0  0  0  0  0
    9.3761    7.4042    1.4383 H   0  0  0  0  0  0  0  0  0  0  0  0
    9.2092    7.1151    3.1903 H   0  0  0  0  0  0  0  0  0  0  0  0
   11.4670    6.5345    1.8357 H   0  0  0  0  0  0  0  0  0  0  0  0
   11.4910    7.0009    3.5651 H   0  0  0  0  0  0  0  0  0  0  0  0
   11.7471    8.9818    1.2666 H   0  0  0  0  0  0  0  0  0  0  0  0
   13.8416    9.0646    1.1028 H   0  0  0  0  0  0  0  0  0  0  0  0
   13.9214    6.1934    1.9323 H   0  0  0  0  0  0  0  0  0  0  0  0
   15.0561    7.0784    0.8481 H   0  0  0  0  0  0  0  0  0  0  0  0
   13.3377    6.8733    0.3577 H   0  0  0  0  0  0  0  0  0  0  0  0
   15.5909    8.5552    2.6302 H   0  0  0  0  0  0  0  0  0  0  0  0
   14.5647    9.8055    3.1009 H   0  0  0  0  0  0  0  0  0  0  0  0
   14.4321    8.2673    3.8347 H   0  0  0  0  0  0  0  0  0  0  0  0
   12.4547   10.5998    3.0048 H   0  0  0  0  0  0  0  0  0  0  0  0
   12.2724    9.3420    4.2724 H   0  0  0  0  0  0  0  0  0  0  0  0
   10.1372   10.0310    4.5142 H   0  0  0  0  0  0  0  0  0  0  0  0
   10.2676   11.1478    3.1323 H   0  0  0  0  0  0  0  0  0  0  0  0
    6.2885    7.4044    3.1093 H   0  0  0  0  0  0  0  0  0  0  0  0
    5.6249    7.9741    1.5127 H   0  0  0  0  0  0  0  0  0  0  0  0
    4.6125    7.0336    2.6565 H   0  0  0  0  0  0  0  0  0  0  0  0
    2.9549    9.3739    4.0785 H   0  0  0  0  0  0  0  0  0  0  0  0
    3.2936   10.3872    2.6040 H   0  0  0  0  0  0  0  0  0  0  0  0
    2.9314    8.6440    2.4404 H   0  0  0  0  0  0  0  0  0  0  0  0
  1  2  1  0
  2  3  2  3
  3  4  1  0
  4  5  1  0
  5  6  1  0
  6  7  2  0
  6  8  1  0
  8  9  1  0
  9 10  1  0
 10 11  1  0
 11 12  1  0
 12 13  1  0
 12 14  1  0
 11 15  1  0
 15 16  1  0
  4 17  2  3
 17 18  1  0
 17 19  1  0
 16  8  1  0
  1 20  1  0
  1 21  1  0
  1 22  1  0
  3 23  1  0
  5 24  1  0
  8 25  1  0
  9 26  1  0
  9 27  1  0
 10 28  1  0
 10 29  1  0
 11 30  1  0
 12 31  1  0
 13 32  1  0
 13 33  1  0
 13 34  1  0
 14 35  1  0
 14 36  1  0
 14 37  1  0
 15 38  1  0
 15 39  1  0
 16 40  1  0
 16 41  1  0
 18 42  1  0
 18 43  1  0
 18 44  1  0
 19 45  1  0
 19 46  1  0
 19 47  1  0
M  CHG  1  14   1
M  END
>  <EmbedRMS>  (68) 
0.2433123505485836

$$$$

     RDKit          3D

 38 39  0  0  0  0  0  0  0  0999 V2000
   13.9842    7.0987    1.1853 C   0  0  0  0  0  0  0  0  0  0  0  0
   13.5812    8.3572    1.9537 C   0  0  0  0  0  0  0  0  0  0  0  0
   14.7119    8.8839    2.7302 N   0  0  0  0  0  4  0  0  0  0  0  0
   12.2765    8.3213    2.7737 C   0  0  0  0  0  0  0  0  0  0  0  0
   11.1597    7.3114    2.3967 C   0  0  0  0  0  0  0  0  0  0  0  0
    9.8012    7.9211    2.0835 C   0  0  0  0  0  0  0  0  0  0  0  0
    9.4166    8.9879    3.1066 C   0  0  0  0  0  0  0  0  0  0  0  0
    8.0125    9.4689    2.8599 C   0  0  0  0  0  0  0  0  0  0  0  0
    7.6232    9.6834    1.6795 O   0  0  0  0  0  0  0  0  0  0  0  0
    7.1436    9.7001    3.9777 N   0  0  0  0  0  0  0  0  0  0  0  0
    5.7812   10.1373    3.8965 C   0  0  0  0  0  0  0  0  0  0  0  0
    5.0590   10.4418    2.7529 C   0  0  0  0  0  0  0  0  0  0  0  0
    3.8212   10.8093    3.2325 C   0  0  0  0  0  0  0  0  0  0  0  0
    3.8279   10.7216    4.5742 N   0  0  0  0  0  0  0  0  0  0  0  0
    5.0150   10.3141    4.9886 N   0  0  0  0  0  0  0  0  0  0  0  0
   10.3981   10.1506    3.0073 C   0  0  0  0  0  0  0  0  0  0  0  0
   11.8327    9.7188    3.3047 C   0  0  0  0  0  0  0  0  0  0  0  0
   13.2929    6.9111    0.3372 H   0  0  0  0  0  0  0  0  0  0  0  0
   15.0005    7.2120    0.7515 H   0  0  0  0  0  0  0  0  0  0  0  0
   13.9876    6.2216    1.8665 H   0  0  0  0  0  0  0  0  0  0  0  0
   13.3808    9.1011    1.1485 H   0  0  0  0  0  0  0  0  0  0  0  0
   14.9955    8.1898    3.4595 H   0  0  0  0  0  0  0  0  0  0  0  0
   14.4928    9.7899    3.1975 H   0  0  0  0  0  0  0  0  0  0  0  0
   15.5292    9.0536    2.0996 H   0  0  0  0  0  0  0  0  0  0  0  0
   12.6593    7.8397    3.7046 H   0  0  0  0  0  0  0  0  0  0  0  0
   11.4436    6.6805    1.5344 H   0  0  0  0  0  0  0  0  0  0  0  0
   11.0047    6.5972    3.2389 H   0  0  0  0  0  0  0  0  0  0  0  0
    9.8330    8.3602    1.0608 H   0  0  0  0  0  0  0  0  0  0  0  0
    9.0379    7.1111    2.0779 H   0  0  0  0  0  0  0  0  0  0  0  0
    9.4755    8.5442    4.1262 H   0  0  0  0  0  0  0  0  0  0  0  0
    7.5254    9.5361    4.9365 H   0  0  0  0  0  0  0  0  0  0  0  0
    5.3557   10.4142    1.7158 H   0  0  0  0  0  0  0  0  0  0  0  0
    2.9703   11.1209    2.6412 H   0  0  0  0  0  0  0  0  0  0  0  0
    3.0273   10.9388    5.2077 H   0  0  0  0  0  0  0  0  0  0  0  0
   10.1052   10.9525    3.7212 H   0  0  0  0  0  0  0  0  0  0  0  0
   10.3568   10.5867    1.9833 H   0  0  0  0  0  0  0  0  0  0  0  0
   12.4776   10.5259    2.8988 H   0  0  0  0  0  0  0  0  0  0  0  0
   11.9660    9.7492    4.4105 H   0  0  0  0  0  0  0  0  0  0  0  0
  1  2  1  0
  2  3  1  0
  2  4  1  0
  4  5  1  0
  5  6  1  0
  6  7  1  0
  7  8  1  0
  8  9  2  0
  8 10  1  0
 10 11  1  0
 11 12  1  0
 12 13  2  0
 13 14  1  0
 14 15  1  0
  7 16  1  0
 16 17  1  0
 17  4  1  0
 15 11  2  0
  1 18  1  0
  1 19  1  0
  1 20  1  0
  2 21  1  0
  3 22  1  0
  3 23  1  0
  3 24  1  0
  4 25  1  0
  5 26  1  0
  5 27  1  0
  6 28  1  0
  6 29  1  0
  7 30  1  0
 10 31  1  0
 12 32  1  0
 13 33  1  0
 14 34  1  0
 16 35  1  0
 16 36  1  0
 17 37  1  0
 17 38  1  0
M  CHG  1   3   1
M  END
>  <EmbedRMS>  (69) 
0.20783527019262546

$$$$

     RDKit          3D

 39 39  0  0  0  0  0  0  0  0999 V2000
    4.3764    8.9799    2.2210 C   0  0  0  0  0  0  0  0  0  0  0  0
    4.9685   10.3010    2.7006 C   0  0  0  0  0  0  0  0  0  0  0  0
    5.8066   10.0957    3.9401 C   0  0  0  0  0  0  0  0  0  0  0  0
    5.2293   10.2532    5.0492 O   0  0  0  0  0  0  0  0  0  0  0  0
    7.2030    9.6921    3.9195 N   0  0  0  0  0  0  0  0  0  0  0  0
    7.9852    9.5360    2.7148 C   0  0  0  0  0  0  0  0  0  0  0  0
    7.4406    9.6583    1.5947 O   0  0  0  0  0  0  0  0  0  0  0  0
    9.4503    9.2130    2.6461 C   0  0  0  0  0  0  0  0  0  0  0  0
    9.7355    7.7434    2.3752 C   0  0  0  0  0  0  0  0  0  0  0  0
   11.1985    7.3499    2.5426 C   0  0  0  0  0  0  0  0  0  0  0  0
   12.1819    8.5088    2.2971 C   0  0  0  0  0  0  0  0  0  0  0  0
   13.6460    7.9630    2.3854 C   0  0  0  0  0  0  0  0  0  0  0  0
   14.0273    7.2305    1.0861 C   0  0  0  0  0  0  0  0  0  0  0  0
   14.6273    9.0249    2.6470 N   0  0  0  0  0  4  0  0  0  0  0  0
   11.8965    9.6386    3.3199 C   0  0  0  0  0  0  0  0  0  0  0  0
   10.4179   10.0731    3.4352 C   0  0  0  0  0  0  0  0  0  0  0  0
    5.1830    8.2649    1.9546 H   0  0  0  0  0  0  0  0  0  0  0  0
    3.7490    9.1581    1.3225 H   0  0  0  0  0  0  0  0  0  0  0  0
    3.7416    8.5309    3.0148 H   0  0  0  0  0  0  0  0  0  0  0  0
    4.1182   10.9690    2.9612 H   0  0  0  0  0  0  0  0  0  0  0  0
    5.5021   10.8406    1.8961 H   0  0  0  0  0  0  0  0  0  0  0  0
    7.6818    9.5363    4.8346 H   0  0  0  0  0  0  0  0  0  0  0  0
    9.7194    9.6217    1.6393 H   0  0  0  0  0  0  0  0  0  0  0  0
    9.3981    7.4751    1.3469 H   0  0  0  0  0  0  0  0  0  0  0  0
    9.1287    7.1261    3.0740 H   0  0  0  0  0  0  0  0  0  0  0  0
   11.3442    6.9710    3.5794 H   0  0  0  0  0  0  0  0  0  0  0  0
   11.3988    6.4994    1.8602 H   0  0  0  0  0  0  0  0  0  0  0  0
   12.0109    8.9221    1.2774 H   0  0  0  0  0  0  0  0  0  0  0  0
   13.7150    7.2282    3.2204 H   0  0  0  0  0  0  0  0  0  0  0  0
   13.3801    6.3501    0.9050 H   0  0  0  0  0  0  0  0  0  0  0  0
   13.9565    7.9172    0.2156 H   0  0  0  0  0  0  0  0  0  0  0  0
   15.0707    6.8554    1.1516 H   0  0  0  0  0  0  0  0  0  0  0  0
   14.5259    9.7981    1.9494 H   0  0  0  0  0  0  0  0  0  0  0  0
   15.5990    8.6426    2.5841 H   0  0  0  0  0  0  0  0  0  0  0  0
   14.5152    9.4001    3.6159 H   0  0  0  0  0  0  0  0  0  0  0  0
   12.4934   10.5367    3.0512 H   0  0  0  0  0  0  0  0  0  0  0  0
   12.2388    9.3039    4.3247 H   0  0  0  0  0  0  0  0  0  0  0  0
   10.1227   10.0245    4.5057 H   0  0  0  0  0  0  0  0  0  0  0  0
   10.3133   11.1408    3.1329 H   0  0  0  0  0  0  0  0  0  0  0  0
  1  2  1  0
  2  3  1  0
  3  4  2  0
  3  5  1  0
  5  6  1  0
  6  7  2  0
  6  8  1  0
  8  9  1  0
  9 10  1  0
 10 11  1  0
 11 12  1  0
 12 13  1  0
 12 14  1  0
 11 15  1  0
 15 16  1  0
 16  8  1  0
  1 17  1  0
  1 18  1  0
  1 19  1  0
  2 20  1  0
  2 21  1  0
  5 22  1  0
  8 23  1  0
  9 24  1  0
  9 25  1  0
 10 26  1  0
 10 27  1  0
 11 28  1  0
 12 29  1  0
 13 30  1  0
 13 31  1  0
 13 32  1  0
 14 33  1  0
 14 34  1  0
 14 35  1  0
 15 36  1  0
 15 37  1  0
 16 38  1  0
 16 39  1  0
M  CHG  1  14   1
M  END
>  <EmbedRMS>  (70) 
0.18838598457925643

$$$$

     RDKit          3D

 36 37  0  0  0  0  0  0  0  0999 V2000
   14.0493    7.2193    1.1050 C   0  0  0  0  0  0  0  0  0  0  0  0
   13.6504    7.9554    2.3993 C   0  0  0  0  0  0  0  0  0  0  0  0
   14.6296    9.0157    2.6712 N   0  0  0  0  0  4  0  0  0  0  0  0
   12.2010    8.5115    2.2743 C   0  0  0  0  0  0  0  0  0  0  0  0
   11.1819    7.3649    2.4368 C   0  0  0  0  0  0  0  0  0  0  0  0
    9.7737    7.8702    2.1577 C   0  0  0  0  0  0  0  0  0  0  0  0
    9.4107    8.9932    3.1351 C   0  0  0  0  0  0  0  0  0  0  0  0
    8.0164    9.4808    2.8685 C   0  0  0  0  0  0  0  0  0  0  0  0
    7.6391    9.6869    1.6832 O   0  0  0  0  0  0  0  0  0  0  0  0
    7.1375    9.7093    3.9781 N   0  0  0  0  0  0  0  0  0  0  0  0
    5.8024   10.1339    3.8648 N   0  0  0  0  0  0  0  0  0  0  0  0
    5.0891   10.4350    2.7649 C   0  0  0  0  0  0  0  0  0  0  0  0
    3.8511   10.8090    3.1324 N   0  0  0  0  0  0  0  0  0  0  0  0
    3.8326   10.7284    4.4568 N   0  0  0  0  0  0  0  0  0  0  0  0
    5.0103   10.3212    4.9024 N   0  0  0  0  0  0  0  0  0  0  0  0
   10.4250   10.1478    3.0673 C   0  0  0  0  0  0  0  0  0  0  0  0
   11.8597    9.6371    3.2822 C   0  0  0  0  0  0  0  0  0  0  0  0
   13.4184    6.3266    0.9274 H   0  0  0  0  0  0  0  0  0  0  0  0
   13.9786    7.8974    0.2277 H   0  0  0  0  0  0  0  0  0  0  0  0
   15.0967    6.8577    1.1807 H   0  0  0  0  0  0  0  0  0  0  0  0
   13.6924    7.2247    3.2393 H   0  0  0  0  0  0  0  0  0  0  0  0
   14.5437    9.7864    1.9687 H   0  0  0  0  0  0  0  0  0  0  0  0
   15.6011    8.6300    2.6300 H   0  0  0  0  0  0  0  0  0  0  0  0
   14.4973    9.3931    3.6370 H   0  0  0  0  0  0  0  0  0  0  0  0
   12.0884    8.9466    1.2543 H   0  0  0  0  0  0  0  0  0  0  0  0
   11.2361    6.9392    3.4637 H   0  0  0  0  0  0  0  0  0  0  0  0
   11.3838    6.5437    1.7209 H   0  0  0  0  0  0  0  0  0  0  0  0
    9.0585    7.0265    2.2773 H   0  0  0  0  0  0  0  0  0  0  0  0
    9.7125    8.2279    1.1053 H   0  0  0  0  0  0  0  0  0  0  0  0
    9.4457    8.5665    4.1631 H   0  0  0  0  0  0  0  0  0  0  0  0
    7.5111    9.5493    4.9409 H   0  0  0  0  0  0  0  0  0  0  0  0
    5.4204   10.3987    1.7401 H   0  0  0  0  0  0  0  0  0  0  0  0
   10.1866   10.8996    3.8512 H   0  0  0  0  0  0  0  0  0  0  0  0
   10.3596   10.6516    2.0770 H   0  0  0  0  0  0  0  0  0  0  0  0
   11.9752    9.2650    4.3241 H   0  0  0  0  0  0  0  0  0  0  0  0
   12.5387   10.5043    3.1424 H   0  0  0  0  0  0  0  0  0  0  0  0
  1  2  1  0
  2  3  1  0
  2  4  1  0
  4  5  1  0
  5  6  1  0
  6  7  1  0
  7  8  1  0
  8  9  2  0
  8 10  1  0
 10 11  1  0
 11 12  1  0
 12 13  2  0
 13 14  1  0
 14 15  2  0
  7 16  1  0
 16 17  1  0
 17  4  1  0
 15 11  1  0
  1 18  1  0
  1 19  1  0
  1 20  1  0
  2 21  1  0
  3 22  1  0
  3 23  1  0
  3 24  1  0
  4 25  1  0
  5 26  1  0
  5 27  1  0
  6 28  1  0
  6 29  1  0
  7 30  1  0
 10 31  1  0
 12 32  1  0
 16 33  1  0
 16 34  1  0
 17 35  1  0
 17 36  1  0
M  CHG  1   3   1
M  END
>  <EmbedRMS>  (71) 
0.030620254940186248

$$$$

     RDKit          3D

 34 34  0  0  0  0  0  0  0  0999 V2000
    5.8329   10.1084    3.8848 C   0  0  0  0  0  0  0  0  0  0  0  0
    7.2300    9.6721    3.9456 N   0  0  0  0  0  0  0  0  0  0  0  0
    7.9825    9.5176    2.7336 C   0  0  0  0  0  0  0  0  0  0  0  0
    7.4038    9.6808    1.6309 O   0  0  0  0  0  0  0  0  0  0  0  0
    9.4450    9.1949    2.6523 C   0  0  0  0  0  0  0  0  0  0  0  0
    9.7659    7.7145    2.4310 C   0  0  0  0  0  0  0  0  0  0  0  0
   11.2645    7.3643    2.5394 C   0  0  0  0  0  0  0  0  0  0  0  0
   12.1440    8.5865    2.2316 C   0  0  0  0  0  0  0  0  0  0  0  0
   13.6550    8.3396    1.9330 C   0  0  0  0  0  0  0  0  0  0  0  0
   14.0142    7.0445    1.2245 C   0  0  0  0  0  0  0  0  0  0  0  0
   14.6175    8.7737    2.9400 N   0  0  0  0  0  4  0  0  0  0  0  0
   11.8902    9.6847    3.2842 C   0  0  0  0  0  0  0  0  0  0  0  0
   10.4057   10.0818    3.4290 C   0  0  0  0  0  0  0  0  0  0  0  0
    5.7674   11.1015    3.3922 H   0  0  0  0  0  0  0  0  0  0  0  0
    5.4215   10.1915    4.9127 H   0  0  0  0  0  0  0  0  0  0  0  0
    5.2299    9.3684    3.3173 H   0  0  0  0  0  0  0  0  0  0  0  0
    7.6848    9.4991    4.8697 H   0  0  0  0  0  0  0  0  0  0  0  0
    9.6804    9.5858    1.6329 H   0  0  0  0  0  0  0  0  0  0  0  0
    9.2153    7.1145    3.1879 H   0  0  0  0  0  0  0  0  0  0  0  0
    9.3849    7.3947    1.4340 H   0  0  0  0  0  0  0  0  0  0  0  0
   11.4945    7.0012    3.5653 H   0  0  0  0  0  0  0  0  0  0  0  0
   11.4746    6.5314    1.8369 H   0  0  0  0  0  0  0  0  0  0  0  0
   11.7511    8.9795    1.2646 H   0  0  0  0  0  0  0  0  0  0  0  0
   13.8453    9.0650    1.1029 H   0  0  0  0  0  0  0  0  0  0  0  0
   15.0594    7.0787    0.8480 H   0  0  0  0  0  0  0  0  0  0  0  0
   13.3413    6.8737    0.3566 H   0  0  0  0  0  0  0  0  0  0  0  0
   13.9245    6.1932    1.9314 H   0  0  0  0  0  0  0  0  0  0  0  0
   15.5929    8.5546    2.6319 H   0  0  0  0  0  0  0  0  0  0  0  0
   14.5663    9.8048    3.1021 H   0  0  0  0  0  0  0  0  0  0  0  0
   14.4328    8.2662    3.8350 H   0  0  0  0  0  0  0  0  0  0  0  0
   12.2711    9.3420    4.2714 H   0  0  0  0  0  0  0  0  0  0  0  0
   12.4559   10.5993    3.0033 H   0  0  0  0  0  0  0  0  0  0  0  0
   10.1327   10.0263    4.5050 H   0  0  0  0  0  0  0  0  0  0  0  0
   10.2681   11.1447    3.1242 H   0  0  0  0  0  0  0  0  0  0  0  0
  1  2  1  0
  2  3  1  0
  3  4  2  0
  3  5  1  0
  5  6  1  0
  6  7  1  0
  7  8  1  0
  8  9  1  0
  9 10  1  0
  9 11  1  0
  8 12  1  0
 12 13  1  0
 13  5  1  0
  1 14  1  0
  1 15  1  0
  1 16  1  0
  2 17  1  0
  5 18  1  0
  6 19  1  0
  6 20  1  0
  7 21  1  0
  7 22  1  0
  8 23  1  0
  9 24  1  0
 10 25  1  0
 10 26  1  0
 10 27  1  0
 11 28  1  0
 11 29  1  0
 11 30  1  0
 12 31  1  0
 12 32  1  0
 13 33  1  0
 13 34  1  0
M  CHG  1  11   1
M  END
>  <EmbedRMS>  (72) 
0.29639754771625826

$$$$

     RDKit          3D

 45 45  0  0  0  0  0  0  0  0999 V2000
    6.6426   12.2821    2.6516 C   0  0  0  0  0  0  0  0  0  0  0  0
    5.6157   11.5113    3.0196 C   0  0  0  0  0  0  0  0  0  0  0  0
    4.2139   11.9100    2.6324 C   0  0  0  0  0  0  0  0  0  0  0  0
    5.8597   10.3523    3.9284 C   0  0  0  0  0  0  0  0  0  0  0  0
    4.8899    9.9517    4.7721 C   0  0  0  0  0  0  0  0  0  0  0  0
    5.0638    8.8198    5.7367 C   0  0  0  0  0  0  0  0  0  0  0  0
    7.1587    9.7297    4.0017 N   0  0  0  0  0  0  0  0  0  0  0  0
    8.0094    9.4770    2.8770 C   0  0  0  0  0  0  0  0  0  0  0  0
    7.5925    9.6699    1.6995 O   0  0  0  0  0  0  0  0  0  0  0  0
    9.4190    8.9882    3.1140 C   0  0  0  0  0  0  0  0  0  0  0  0
    9.7814    7.9392    2.0698 C   0  0  0  0  0  0  0  0  0  0  0  0
   11.1442    7.3173    2.3173 C   0  0  0  0  0  0  0  0  0  0  0  0
   12.2312    8.2990    2.7947 C   0  0  0  0  0  0  0  0  0  0  0  0
   13.7088    7.9146    2.4295 C   0  0  0  0  0  0  0  0  0  0  0  0
   13.9319    7.3320    1.0257 C   0  0  0  0  0  0  0  0  0  0  0  0
   14.6475    9.0159    2.6730 N   0  0  0  0  0  4  0  0  0  0  0  0
   11.8850    9.7892    2.9963 C   0  0  0  0  0  0  0  0  0  0  0  0
   10.3931   10.1701    3.0593 C   0  0  0  0  0  0  0  0  0  0  0  0
    6.5060   13.1634    2.0375 H   0  0  0  0  0  0  0  0  0  0  0  0
    6.5060   13.1634    2.0375 H   0  0  0  0  0  0  0  0  0  0  0  0
    4.2031   12.4754    1.6757 H   0  0  0  0  0  0  0  0  0  0  0  0
    3.5836   11.0078    2.4847 H   0  0  0  0  0  0  0  0  0  0  0  0
    3.7720   12.5450    3.4286 H   0  0  0  0  0  0  0  0  0  0  0  0
    3.9254   10.4428    4.7786 H   0  0  0  0  0  0  0  0  0  0  0  0
    5.3803    7.9015    5.1981 H   0  0  0  0  0  0  0  0  0  0  0  0
    5.8159    9.0848    6.5090 H   0  0  0  0  0  0  0  0  0  0  0  0
    4.0999    8.6139    6.2477 H   0  0  0  0  0  0  0  0  0  0  0  0
    7.5134    9.4348    4.9389 H   0  0  0  0  0  0  0  0  0  0  0  0
    9.4838    8.5152    4.1195 H   0  0  0  0  0  0  0  0  0  0  0  0
    9.7856    8.4081    1.0593 H   0  0  0  0  0  0  0  0  0  0  0  0
    9.0155    7.1315    2.0616 H   0  0  0  0  0  0  0  0  0  0  0  0
   11.4284    6.8358    1.3632 H   0  0  0  0  0  0  0  0  0  0  0  0
   11.0277    6.4824    3.0472 H   0  0  0  0  0  0  0  0  0  0  0  0
   12.2338    8.0276    3.8788 H   0  0  0  0  0  0  0  0  0  0  0  0
   14.0054    7.0847    3.1155 H   0  0  0  0  0  0  0  0  0  0  0  0
   13.5346    6.2977    0.9557 H   0  0  0  0  0  0  0  0  0  0  0  0
   13.4427    7.9752    0.2638 H   0  0  0  0  0  0  0  0  0  0  0  0
   15.0164    7.2729    0.7928 H   0  0  0  0  0  0  0  0  0  0  0  0
   14.5093    9.7854    1.9790 H   0  0  0  0  0  0  0  0  0  0  0  0
   14.5387    9.3811    3.6464 H   0  0  0  0  0  0  0  0  0  0  0  0
   15.6306    8.6688    2.5853 H   0  0  0  0  0  0  0  0  0  0  0  0
   12.3172   10.3488    2.1397 H   0  0  0  0  0  0  0  0  0  0  0  0
   12.3886   10.1897    3.9059 H   0  0  0  0  0  0  0  0  0  0  0  0
   10.1546   10.7911    2.1654 H   0  0  0  0  0  0  0  0  0  0  0  0
   10.2174   10.8183    3.9465 H   0  0  0  0  0  0  0  0  0  0  0  0
  1  2  2  3
  2  3  1  0
  2  4  1  0
  4  5  2  3
  5  6  1  0
  4  7  1  0
  7  8  1  0
  8  9  2  0
  8 10  1  0
 10 11  1  0
 11 12  1  0
 12 13  1  0
 13 14  1  0
 14 15  1  0
 14 16  1  0
 13 17  1  0
 17 18  1  0
 18 10  1  0
  1 19  1  0
  1 20  1  0
  3 21  1  0
  3 22  1  0
  3 23  1  0
  5 24  1  0
  6 25  1  0
  6 26  1  0
  6 27  1  0
  7 28  1  0
 10 29  1  0
 11 30  1  0
 11 31  1  0
 12 32  1  0
 12 33  1  0
 13 34  1  0
 14 35  1  0
 15 36  1  0
 15 37  1  0
 15 38  1  0
 16 39  1  0
 16 40  1  0
 16 41  1  0
 17 42  1  0
 17 43  1  0
 18 44  1  0
 18 45  1  0
M  CHG  1  16   1
M  END
>  <EmbedRMS>  (73) 
0.16480955270904202

$$$$

     RDKit          3D

 38 39  0  0  0  0  0  0  0  0999 V2000
   13.9842    7.0987    1.1853 C   0  0  0  0  0  0  0  0  0  0  0  0
   13.5812    8.3572    1.9537 C   0  0  0  0  0  0  0  0  0  0  0  0
   14.7119    8.8839    2.7302 N   0  0  0  0  0  4  0  0  0  0  0  0
   12.2765    8.3213    2.7737 C   0  0  0  0  0  0  0  0  0  0  0  0
   11.1597    7.3114    2.3967 C   0  0  0  0  0  0  0  0  0  0  0  0
    9.8012    7.9211    2.0835 C   0  0  0  0  0  0  0  0  0  0  0  0
    9.4166    8.9879    3.1066 C   0  0  0  0  0  0  0  0  0  0  0  0
    8.0125    9.4689    2.8599 C   0  0  0  0  0  0  0  0  0  0  0  0
    7.6232    9.6834    1.6795 O   0  0  0  0  0  0  0  0  0  0  0  0
    7.1436    9.7001    3.9777 N   0  0  0  0  0  0  0  0  0  0  0  0
    5.7812   10.1373    3.8965 C   0  0  0  0  0  0  0  0  0  0  0  0
    5.0590   10.4418    2.7529 C   0  0  0  0  0  0  0  0  0  0  0  0
    3.8212   10.8093    3.2325 C   0  0  0  0  0  0  0  0  0  0  0  0
    3.8279   10.7216    4.5742 N   0  0  0  0  0  0  0  0  0  0  0  0
    5.0150   10.3141    4.9886 N   0  0  0  0  0  0  0  0  0  0  0  0
   10.3981   10.1506    3.0073 C   0  0  0  0  0  0  0  0  0  0  0  0
   11.8327    9.7188    3.3047 C   0  0  0  0  0  0  0  0  0  0  0  0
   13.2929    6.9111    0.3372 H   0  0  0  0  0  0  0  0  0  0  0  0
   15.0005    7.2120    0.7515 H   0  0  0  0  0  0  0  0  0  0  0  0
   13.9876    6.2216    1.8665 H   0  0  0  0  0  0  0  0  0  0  0  0
   13.3808    9.1011    1.1485 H   0  0  0  0  0  0  0  0  0  0  0  0
   14.9955    8.1898    3.4595 H   0  0  0  0  0  0  0  0  0  0  0  0
   14.4928    9.7899    3.1975 H   0  0  0  0  0  0  0  0  0  0  0  0
   15.5292    9.0536    2.0996 H   0  0  0  0  0  0  0  0  0  0  0  0
   12.6593    7.8397    3.7046 H   0  0  0  0  0  0  0  0  0  0  0  0
   11.4436    6.6805    1.5344 H   0  0  0  0  0  0  0  0  0  0  0  0
   11.0047    6.5972    3.2389 H   0  0  0  0  0  0  0  0  0  0  0  0
    9.8330    8.3602    1.0608 H   0  0  0  0  0  0  0  0  0  0  0  0
    9.0379    7.1111    2.0779 H   0  0  0  0  0  0  0  0  0  0  0  0
    9.4755    8.5442    4.1262 H   0  0  0  0  0  0  0  0  0  0  0  0
    7.5254    9.5361    4.9365 H   0  0  0  0  0  0  0  0  0  0  0  0
    5.3557   10.4142    1.7158 H   0  0  0  0  0  0  0  0  0  0  0  0
    2.9703   11.1209    2.6412 H   0  0  0  0  0  0  0  0  0  0  0  0
    3.0273   10.9388    5.2077 H   0  0  0  0  0  0  0  0  0  0  0  0
   10.1052   10.9525    3.7212 H   0  0  0  0  0  0  0  0  0  0  0  0
   10.3568   10.5867    1.9833 H   0  0  0  0  0  0  0  0  0  0  0  0
   12.4776   10.5259    2.8988 H   0  0  0  0  0  0  0  0  0  0  0  0
   11.9660    9.7492    4.4105 H   0  0  0  0  0  0  0  0  0  0  0  0
  1  2  1  0
  2  3  1  0
  2  4  1  0
  4  5  1  0
  5  6  1  0
  6  7  1  0
  7  8  1  0
  8  9  2  0
  8 10  1  0
 10 11  1  0
 11 12  1  0
 12 13  2  0
 13 14  1  0
 14 15  1  0
  7 16  1  0
 16 17  1  0
 17  4  1  0
 15 11  2  0
  1 18  1  0
  1 19  1  0
  1 20  1  0
  2 21  1  0
  3 22  1  0
  3 23  1  0
  3 24  1  0
  4 25  1  0
  5 26  1  0
  5 27  1  0
  6 28  1  0
  6 29  1  0
  7 30  1  0
 10 31  1  0
 12 32  1  0
 13 33  1  0
 14 34  1  0
 16 35  1  0
 16 36  1  0
 17 37  1  0
 17 38  1  0
M  CHG  1   3   1
M  END
>  <EmbedRMS>  (74) 
0.20783527019262546

$$$$

     RDKit          3D

 40 41  0  0  0  0  0  0  0  0999 V2000
   13.9332    7.3332    1.0251 C   0  0  0  0  0  0  0  0  0  0  0  0
   13.7125    7.9146    2.4297 C   0  0  0  0  0  0  0  0  0  0  0  0
   14.6504    9.0165    2.6726 N   0  0  0  0  0  4  0  0  0  0  0  0
   12.2364    8.2979    2.7979 C   0  0  0  0  0  0  0  0  0  0  0  0
   11.1515    7.3120    2.3262 C   0  0  0  0  0  0  0  0  0  0  0  0
    9.7912    7.9324    2.0765 C   0  0  0  0  0  0  0  0  0  0  0  0
    9.4261    8.9806    3.1220 C   0  0  0  0  0  0  0  0  0  0  0  0
    8.0225    9.4639    2.8667 C   0  0  0  0  0  0  0  0  0  0  0  0
    7.6546    9.6768    1.6802 O   0  0  0  0  0  0  0  0  0  0  0  0
    7.1435    9.7011    3.9767 N   0  0  0  0  0  0  0  0  0  0  0  0
    5.7719   10.1423    3.9218 C   0  0  0  0  0  0  0  0  0  0  0  0
    5.0682   10.2866    5.1272 C   0  0  0  0  0  0  0  0  0  0  0  0
    3.7425   10.7162    5.1245 C   0  0  0  0  0  0  0  0  0  0  0  0
    3.1199   11.0021    3.9115 C   0  0  0  0  0  0  0  0  0  0  0  0
    3.8030   10.8612    2.7487 N   0  0  0  0  0  0  0  0  0  0  0  0
    5.0935   10.4449    2.7201 C   0  0  0  0  0  0  0  0  0  0  0  0
   10.3969   10.1658    3.0679 C   0  0  0  0  0  0  0  0  0  0  0  0
   11.8884    9.7884    2.9926 C   0  0  0  0  0  0  0  0  0  0  0  0
   13.4390    7.9746    0.2649 H   0  0  0  0  0  0  0  0  0  0  0  0
   13.5402    6.2972    0.9560 H   0  0  0  0  0  0  0  0  0  0  0  0
   15.0172    7.2785    0.7884 H   0  0  0  0  0  0  0  0  0  0  0  0
   14.0108    7.0845    3.1148 H   0  0  0  0  0  0  0  0  0  0  0  0
   14.5446    9.3791    3.6472 H   0  0  0  0  0  0  0  0  0  0  0  0
   14.5091    9.7874    1.9809 H   0  0  0  0  0  0  0  0  0  0  0  0
   15.6338    8.6709    2.5809 H   0  0  0  0  0  0  0  0  0  0  0  0
   12.2424    8.0318    3.8833 H   0  0  0  0  0  0  0  0  0  0  0  0
   11.4353    6.8245    1.3751 H   0  0  0  0  0  0  0  0  0  0  0  0
   11.0353    6.4818    3.0616 H   0  0  0  0  0  0  0  0  0  0  0  0
    9.8005    8.4008    1.0657 H   0  0  0  0  0  0  0  0  0  0  0  0
    9.0262    7.1237    2.0652 H   0  0  0  0  0  0  0  0  0  0  0  0
    9.4833    8.5087    4.1284 H   0  0  0  0  0  0  0  0  0  0  0  0
    7.5457    9.5319    4.9268 H   0  0  0  0  0  0  0  0  0  0  0  0
    5.5478   10.0665    6.0729 H   0  0  0  0  0  0  0  0  0  0  0  0
    3.2017   10.8271    6.0555 H   0  0  0  0  0  0  0  0  0  0  0  0
    2.0913   11.3366    3.8945 H   0  0  0  0  0  0  0  0  0  0  0  0
    5.5409   10.3704    1.7502 H   0  0  0  0  0  0  0  0  0  0  0  0
   10.1534   10.7936    2.1801 H   0  0  0  0  0  0  0  0  0  0  0  0
   10.2256   10.8070    3.9610 H   0  0  0  0  0  0  0  0  0  0  0  0
   12.3112   10.3420    2.1274 H   0  0  0  0  0  0  0  0  0  0  0  0
   12.4001   10.1967    3.8942 H   0  0  0  0  0  0  0  0  0  0  0  0
  1  2  1  0
  2  3  1  0
  2  4  1  0
  4  5  1  0
  5  6  1  0
  6  7  1  0
  7  8  1  0
  8  9  2  0
  8 10  1  0
 10 11  1  0
 11 12  2  0
 12 13  1  0
 13 14  2  0
 14 15  1  0
 15 16  2  0
  7 17  1  0
 17 18  1  0
 18  4  1  0
 16 11  1  0
  1 19  1  0
  1 20  1  0
  1 21  1  0
  2 22  1  0
  3 23  1  0
  3 24  1  0
  3 25  1  0
  4 26  1  0
  5 27  1  0
  5 28  1  0
  6 29  1  0
  6 30  1  0
  7 31  1  0
 10 32  1  0
 12 33  1  0
 13 34  1  0
 14 35  1  0
 16 36  1  0
 17 37  1  0
 17 38  1  0
 18 39  1  0
 18 40  1  0
M  CHG  1   3   1
M  END
>  <EmbedRMS>  (75) 
0.16496192233382964

$$$$

     RDKit          3D

 36 37  0  0  0  0  0  0  0  0999 V2000
   14.0493    7.2193    1.1050 C   0  0  0  0  0  0  0  0  0  0  0  0
   13.6504    7.9554    2.3993 C   0  0  0  0  0  0  0  0  0  0  0  0
   14.6296    9.0157    2.6712 N   0  0  0  0  0  4  0  0  0  0  0  0
   12.2010    8.5115    2.2743 C   0  0  0  0  0  0  0  0  0  0  0  0
   11.1819    7.3649    2.4368 C   0  0  0  0  0  0  0  0  0  0  0  0
    9.7737    7.8702    2.1577 C   0  0  0  0  0  0  0  0  0  0  0  0
    9.4107    8.9932    3.1351 C   0  0  0  0  0  0  0  0  0  0  0  0
    8.0164    9.4808    2.8685 C   0  0  0  0  0  0  0  0  0  0  0  0
    7.6391    9.6869    1.6832 O   0  0  0  0  0  0  0  0  0  0  0  0
    7.1375    9.7093    3.9781 N   0  0  0  0  0  0  0  0  0  0  0  0
    5.8024   10.1339    3.8648 N   0  0  0  0  0  0  0  0  0  0  0  0
    5.0891   10.4350    2.7649 C   0  0  0  0  0  0  0  0  0  0  0  0
    3.8511   10.8090    3.1324 N   0  0  0  0  0  0  0  0  0  0  0  0
    3.8326   10.7284    4.4568 N   0  0  0  0  0  0  0  0  0  0  0  0
    5.0103   10.3212    4.9024 N   0  0  0  0  0  0  0  0  0  0  0  0
   10.4250   10.1478    3.0673 C   0  0  0  0  0  0  0  0  0  0  0  0
   11.8597    9.6371    3.2822 C   0  0  0  0  0  0  0  0  0  0  0  0
   13.4184    6.3266    0.9274 H   0  0  0  0  0  0  0  0  0  0  0  0
   13.9786    7.8974    0.2277 H   0  0  0  0  0  0  0  0  0  0  0  0
   15.0967    6.8577    1.1807 H   0  0  0  0  0  0  0  0  0  0  0  0
   13.6924    7.2247    3.2393 H   0  0  0  0  0  0  0  0  0  0  0  0
   14.5437    9.7864    1.9687 H   0  0  0  0  0  0  0  0  0  0  0  0
   15.6011    8.6300    2.6300 H   0  0  0  0  0  0  0  0  0  0  0  0
   14.4973    9.3931    3.6370 H   0  0  0  0  0  0  0  0  0  0  0  0
   12.0884    8.9466    1.2543 H   0  0  0  0  0  0  0  0  0  0  0  0
   11.2361    6.9392    3.4637 H   0  0  0  0  0  0  0  0  0  0  0  0
   11.3838    6.5437    1.7209 H   0  0  0  0  0  0  0  0  0  0  0  0
    9.0585    7.0265    2.2773 H   0  0  0  0  0  0  0  0  0  0  0  0
    9.7125    8.2279    1.1053 H   0  0  0  0  0  0  0  0  0  0  0  0
    9.4457    8.5665    4.1631 H   0  0  0  0  0  0  0  0  0  0  0  0
    7.5111    9.5493    4.9409 H   0  0  0  0  0  0  0  0  0  0  0  0
    5.4204   10.3987    1.7401 H   0  0  0  0  0  0  0  0  0  0  0  0
   10.1866   10.8996    3.8512 H   0  0  0  0  0  0  0  0  0  0  0  0
   10.3596   10.6516    2.0770 H   0  0  0  0  0  0  0  0  0  0  0  0
   11.9752    9.2650    4.3241 H   0  0  0  0  0  0  0  0  0  0  0  0
   12.5387   10.5043    3.1424 H   0  0  0  0  0  0  0  0  0  0  0  0
  1  2  1  0
  2  3  1  0
  2  4  1  0
  4  5  1  0
  5  6  1  0
  6  7  1  0
  7  8  1  0
  8  9  2  0
  8 10  1  0
 10 11  1  0
 11 12  1  0
 12 13  2  0
 13 14  1  0
 14 15  2  0
  7 16  1  0
 16 17  1  0
 17  4  1  0
 15 11  1  0
  1 18  1  0
  1 19  1  0
  1 20  1  0
  2 21  1  0
  3 22  1  0
  3 23  1  0
  3 24  1  0
  4 25  1  0
  5 26  1  0
  5 27  1  0
  6 28  1  0
  6 29  1  0
  7 30  1  0
 10 31  1  0
 12 32  1  0
 16 33  1  0
 16 34  1  0
 17 35  1  0
 17 36  1  0
M  CHG  1   3   1
M  END
>  <EmbedRMS>  (76) 
0.030620254940186248

$$$$

     RDKit          3D

 34 34  0  0  0  0  0  0  0  0999 V2000
    5.8329   10.1084    3.8848 C   0  0  0  0  0  0  0  0  0  0  0  0
    7.2300    9.6721    3.9456 N   0  0  0  0  0  0  0  0  0  0  0  0
    7.9825    9.5176    2.7336 C   0  0  0  0  0  0  0  0  0  0  0  0
    7.4038    9.6808    1.6309 O   0  0  0  0  0  0  0  0  0  0  0  0
    9.4450    9.1949    2.6523 C   0  0  0  0  0  0  0  0  0  0  0  0
    9.7659    7.7145    2.4310 C   0  0  0  0  0  0  0  0  0  0  0  0
   11.2645    7.3643    2.5394 C   0  0  0  0  0  0  0  0  0  0  0  0
   12.1440    8.5865    2.2316 C   0  0  0  0  0  0  0  0  0  0  0  0
   13.6550    8.3396    1.9330 C   0  0  0  0  0  0  0  0  0  0  0  0
   14.0142    7.0445    1.2245 C   0  0  0  0  0  0  0  0  0  0  0  0
   14.6175    8.7737    2.9400 N   0  0  0  0  0  4  0  0  0  0  0  0
   11.8902    9.6847    3.2842 C   0  0  0  0  0  0  0  0  0  0  0  0
   10.4057   10.0818    3.4290 C   0  0  0  0  0  0  0  0  0  0  0  0
    5.7674   11.1015    3.3922 H   0  0  0  0  0  0  0  0  0  0  0  0
    5.4215   10.1915    4.9127 H   0  0  0  0  0  0  0  0  0  0  0  0
    5.2299    9.3684    3.3173 H   0  0  0  0  0  0  0  0  0  0  0  0
    7.6848    9.4991    4.8697 H   0  0  0  0  0  0  0  0  0  0  0  0
    9.6804    9.5858    1.6329 H   0  0  0  0  0  0  0  0  0  0  0  0
    9.2153    7.1145    3.1879 H   0  0  0  0  0  0  0  0  0  0  0  0
    9.3849    7.3947    1.4340 H   0  0  0  0  0  0  0  0  0  0  0  0
   11.4945    7.0012    3.5653 H   0  0  0  0  0  0  0  0  0  0  0  0
   11.4746    6.5314    1.8369 H   0  0  0  0  0  0  0  0  0  0  0  0
   11.7511    8.9795    1.2646 H   0  0  0  0  0  0  0  0  0  0  0  0
   13.8453    9.0650    1.1029 H   0  0  0  0  0  0  0  0  0  0  0  0
   15.0594    7.0787    0.8480 H   0  0  0  0  0  0  0  0  0  0  0  0
   13.3413    6.8737    0.3566 H   0  0  0  0  0  0  0  0  0  0  0  0
   13.9245    6.1932    1.9314 H   0  0  0  0  0  0  0  0  0  0  0  0
   15.5929    8.5546    2.6319 H   0  0  0  0  0  0  0  0  0  0  0  0
   14.5663    9.8048    3.1021 H   0  0  0  0  0  0  0  0  0  0  0  0
   14.4328    8.2662    3.8350 H   0  0  0  0  0  0  0  0  0  0  0  0
   12.2711    9.3420    4.2714 H   0  0  0  0  0  0  0  0  0  0  0  0
   12.4559   10.5993    3.0033 H   0  0  0  0  0  0  0  0  0  0  0  0
   10.1327   10.0263    4.5050 H   0  0  0  0  0  0  0  0  0  0  0  0
   10.2681   11.1447    3.1242 H   0  0  0  0  0  0  0  0  0  0  0  0
  1  2  1  0
  2  3  1  0
  3  4  2  0
  3  5  1  0
  5  6  1  0
  6  7  1  0
  7  8  1  0
  8  9  1  0
  9 10  1  0
  9 11  1  0
  8 12  1  0
 12 13  1  0
 13  5  1  0
  1 14  1  0
  1 15  1  0
  1 16  1  0
  2 17  1  0
  5 18  1  0
  6 19  1  0
  6 20  1  0
  7 21  1  0
  7 22  1  0
  8 23  1  0
  9 24  1  0
 10 25  1  0
 10 26  1  0
 10 27  1  0
 11 28  1  0
 11 29  1  0
 11 30  1  0
 12 31  1  0
 12 32  1  0
 13 33  1  0
 13 34  1  0
M  CHG  1  11   1
M  END
>  <EmbedRMS>  (77) 
0.29639754771625826

$$$$

     RDKit          3D

 43 43  0  0  0  0  0  0  0  0999 V2000
    5.1668   10.8957    4.9912 C   0  0  0  0  0  0  0  0  0  0  0  0
    5.8564    9.7580    4.2807 C   0  0  0  0  0  0  0  0  0  0  0  0
    4.9783    8.9456    3.3204 C   0  0  0  0  0  0  0  0  0  0  0  0
    4.7804    7.6252    3.9182 N   0  0  0  0  0  4  0  0  0  0  0  0
    7.2447   10.0138    3.9239 N   0  0  0  0  0  0  0  0  0  0  0  0
    8.0000    9.4904    2.8323 C   0  0  0  0  0  0  0  0  0  0  0  0
    7.5842    9.6383    1.6525 O   0  0  0  0  0  0  0  0  0  0  0  0
    9.4014    8.9926    3.0914 C   0  0  0  0  0  0  0  0  0  0  0  0
    9.7947    7.9198    2.0778 C   0  0  0  0  0  0  0  0  0  0  0  0
   11.1535    7.3108    2.4002 C   0  0  0  0  0  0  0  0  0  0  0  0
   12.2723    8.3197    2.7746 C   0  0  0  0  0  0  0  0  0  0  0  0
   13.5774    8.3573    1.9538 C   0  0  0  0  0  0  0  0  0  0  0  0
   13.9808    7.0995    1.1846 C   0  0  0  0  0  0  0  0  0  0  0  0
   14.7089    8.8835    2.7299 N   0  0  0  0  0  4  0  0  0  0  0  0
   11.8264    9.7140    3.3094 C   0  0  0  0  0  0  0  0  0  0  0  0
   10.3953   10.1493    2.9997 C   0  0  0  0  0  0  0  0  0  0  0  0
    4.2075   10.5564    5.4401 H   0  0  0  0  0  0  0  0  0  0  0  0
    5.8088   11.3084    5.7999 H   0  0  0  0  0  0  0  0  0  0  0  0
    4.9520   11.7071    4.2645 H   0  0  0  0  0  0  0  0  0  0  0  0
    6.0022    9.1004    5.1700 H   0  0  0  0  0  0  0  0  0  0  0  0
    5.4277    8.8350    2.3161 H   0  0  0  0  0  0  0  0  0  0  0  0
    3.9901    9.4381    3.1800 H   0  0  0  0  0  0  0  0  0  0  0  0
    4.1963    7.0514    3.2679 H   0  0  0  0  0  0  0  0  0  0  0  0
    5.6960    7.1337    4.0459 H   0  0  0  0  0  0  0  0  0  0  0  0
    4.2675    7.6990    4.8280 H   0  0  0  0  0  0  0  0  0  0  0  0
    7.8180   10.4539    4.6803 H   0  0  0  0  0  0  0  0  0  0  0  0
    9.4356    8.5554    4.1150 H   0  0  0  0  0  0  0  0  0  0  0  0
    9.0308    7.1105    2.0724 H   0  0  0  0  0  0  0  0  0  0  0  0
    9.8316    8.3538    1.0532 H   0  0  0  0  0  0  0  0  0  0  0  0
   10.9935    6.6036    3.2475 H   0  0  0  0  0  0  0  0  0  0  0  0
   11.4402    6.6723    1.5444 H   0  0  0  0  0  0  0  0  0  0  0  0
   12.6576    7.8367    3.7038 H   0  0  0  0  0  0  0  0  0  0  0  0
   13.3761    9.1020    1.1497 H   0  0  0  0  0  0  0  0  0  0  0  0
   13.2861    6.9098    0.3396 H   0  0  0  0  0  0  0  0  0  0  0  0
   14.9950    7.2152    0.7465 H   0  0  0  0  0  0  0  0  0  0  0  0
   13.9888    6.2228    1.8662 H   0  0  0  0  0  0  0  0  0  0  0  0
   14.9930    8.1889    3.4587 H   0  0  0  0  0  0  0  0  0  0  0  0
   14.4905    9.7892    3.1981 H   0  0  0  0  0  0  0  0  0  0  0  0
   15.5258    9.0535    2.0989 H   0  0  0  0  0  0  0  0  0  0  0  0
   12.4765   10.5226    2.9154 H   0  0  0  0  0  0  0  0  0  0  0  0
   11.9475    9.7370    4.4168 H   0  0  0  0  0  0  0  0  0  0  0  0
   10.3649   10.5830    1.9744 H   0  0  0  0  0  0  0  0  0  0  0  0
   10.1043   10.9570    3.7074 H   0  0  0  0  0  0  0  0  0  0  0  0
  1  2  1  0
  2  3  1  0
  3  4  1  0
  2  5  1  0
  5  6  1  0
  6  7  2  0
  6  8  1  0
  8  9  1  0
  9 10  1  0
 10 11  1  0
 11 12  1  0
 12 13  1  0
 12 14  1  0
 11 15  1  0
 15 16  1  0
 16  8  1  0
  1 17  1  0
  1 18  1  0
  1 19  1  0
  2 20  1  0
  3 21  1  0
  3 22  1  0
  4 23  1  0
  4 24  1  0
  4 25  1  0
  5 26  1  0
  8 27  1  0
  9 28  1  0
  9 29  1  0
 10 30  1  0
 10 31  1  0
 11 32  1  0
 12 33  1  0
 13 34  1  0
 13 35  1  0
 13 36  1  0
 14 37  1  0
 14 38  1  0
 14 39  1  0
 15 40  1  0
 15 41  1  0
 16 42  1  0
 16 43  1  0
M  CHG  2   4   1  14   1
M  END
>  <EmbedRMS>  (78) 
0.3005344476337905

$$$$

     RDKit          3D

 40 41  0  0  0  0  0  0  0  0999 V2000
   13.9332    7.3332    1.0251 C   0  0  0  0  0  0  0  0  0  0  0  0
   13.7125    7.9146    2.4297 C   0  0  0  0  0  0  0  0  0  0  0  0
   14.6504    9.0165    2.6726 N   0  0  0  0  0  4  0  0  0  0  0  0
   12.2364    8.2979    2.7979 C   0  0  0  0  0  0  0  0  0  0  0  0
   11.1515    7.3120    2.3262 C   0  0  0  0  0  0  0  0  0  0  0  0
    9.7912    7.9324    2.0765 C   0  0  0  0  0  0  0  0  0  0  0  0
    9.4261    8.9806    3.1220 C   0  0  0  0  0  0  0  0  0  0  0  0
    8.0225    9.4639    2.8667 C   0  0  0  0  0  0  0  0  0  0  0  0
    7.6546    9.6768    1.6802 O   0  0  0  0  0  0  0  0  0  0  0  0
    7.1435    9.7011    3.9767 N   0  0  0  0  0  0  0  0  0  0  0  0
    5.7719   10.1423    3.9218 C   0  0  0  0  0  0  0  0  0  0  0  0
    5.0682   10.2866    5.1272 C   0  0  0  0  0  0  0  0  0  0  0  0
    3.7425   10.7162    5.1245 C   0  0  0  0  0  0  0  0  0  0  0  0
    3.1199   11.0021    3.9115 C   0  0  0  0  0  0  0  0  0  0  0  0
    3.8030   10.8612    2.7487 N   0  0  0  0  0  0  0  0  0  0  0  0
    5.0935   10.4449    2.7201 C   0  0  0  0  0  0  0  0  0  0  0  0
   10.3969   10.1658    3.0679 C   0  0  0  0  0  0  0  0  0  0  0  0
   11.8884    9.7884    2.9926 C   0  0  0  0  0  0  0  0  0  0  0  0
   13.4390    7.9746    0.2649 H   0  0  0  0  0  0  0  0  0  0  0  0
   13.5402    6.2972    0.9560 H   0  0  0  0  0  0  0  0  0  0  0  0
   15.0172    7.2785    0.7884 H   0  0  0  0  0  0  0  0  0  0  0  0
   14.0108    7.0845    3.1148 H   0  0  0  0  0  0  0  0  0  0  0  0
   14.5446    9.3791    3.6472 H   0  0  0  0  0  0  0  0  0  0  0  0
   14.5091    9.7874    1.9809 H   0  0  0  0  0  0  0  0  0  0  0  0
   15.6338    8.6709    2.5809 H   0  0  0  0  0  0  0  0  0  0  0  0
   12.2424    8.0318    3.8833 H   0  0  0  0  0  0  0  0  0  0  0  0
   11.4353    6.8245    1.3751 H   0  0  0  0  0  0  0  0  0  0  0  0
   11.0353    6.4818    3.0616 H   0  0  0  0  0  0  0  0  0  0  0  0
    9.8005    8.4008    1.0657 H   0  0  0  0  0  0  0  0  0  0  0  0
    9.0262    7.1237    2.0652 H   0  0  0  0  0  0  0  0  0  0  0  0
    9.4833    8.5087    4.1284 H   0  0  0  0  0  0  0  0  0  0  0  0
    7.5457    9.5319    4.9268 H   0  0  0  0  0  0  0  0  0  0  0  0
    5.5478   10.0665    6.0729 H   0  0  0  0  0  0  0  0  0  0  0  0
    3.2017   10.8271    6.0555 H   0  0  0  0  0  0  0  0  0  0  0  0
    2.0913   11.3366    3.8945 H   0  0  0  0  0  0  0  0  0  0  0  0
    5.5409   10.3704    1.7502 H   0  0  0  0  0  0  0  0  0  0  0  0
   10.1534   10.7936    2.1801 H   0  0  0  0  0  0  0  0  0  0  0  0
   10.2256   10.8070    3.9610 H   0  0  0  0  0  0  0  0  0  0  0  0
   12.3112   10.3420    2.1274 H   0  0  0  0  0  0  0  0  0  0  0  0
   12.4001   10.1967    3.8942 H   0  0  0  0  0  0  0  0  0  0  0  0
  1  2  1  0
  2  3  1  0
  2  4  1  0
  4  5  1  0
  5  6  1  0
  6  7  1  0
  7  8  1  0
  8  9  2  0
  8 10  1  0
 10 11  1  0
 11 12  2  0
 12 13  1  0
 13 14  2  0
 14 15  1  0
 15 16  2  0
  7 17  1  0
 17 18  1  0
 18  4  1  0
 16 11  1  0
  1 19  1  0
  1 20  1  0
  1 21  1  0
  2 22  1  0
  3 23  1  0
  3 24  1  0
  3 25  1  0
  4 26  1  0
  5 27  1  0
  5 28  1  0
  6 29  1  0
  6 30  1  0
  7 31  1  0
 10 32  1  0
 12 33  1  0
 13 34  1  0
 14 35  1  0
 16 36  1  0
 17 37  1  0
 17 38  1  0
 18 39  1  0
 18 40  1  0
M  CHG  1   3   1
M  END
>  <EmbedRMS>  (79) 
0.16496192233382964

$$$$

     RDKit          3D

 41 41  0  0  0  0  0  0  0  0999 V2000
   14.0128    7.0451    1.2246 C   0  0  0  0  0  0  0  0  0  0  0  0
   13.6534    8.3401    1.9332 C   0  0  0  0  0  0  0  0  0  0  0  0
   14.6165    8.7744    2.9395 N   0  0  0  0  0  4  0  0  0  0  0  0
   12.1420    8.5872    2.2327 C   0  0  0  0  0  0  0  0  0  0  0  0
   11.2631    7.3648    2.5405 C   0  0  0  0  0  0  0  0  0  0  0  0
    9.7641    7.7145    2.4333 C   0  0  0  0  0  0  0  0  0  0  0  0
    9.4407    9.1935    2.6636 C   0  0  0  0  0  0  0  0  0  0  0  0
    7.9759    9.5184    2.7373 C   0  0  0  0  0  0  0  0  0  0  0  0
    7.4055    9.6789    1.6302 O   0  0  0  0  0  0  0  0  0  0  0  0
    7.2040    9.6832    3.9346 N   0  0  0  0  0  0  0  0  0  0  0  0
    5.8641   10.1055    3.8043 N   0  0  0  0  0  0  0  0  0  0  0  0
    5.0841   10.3002    4.8217 C   0  0  0  0  0  0  0  0  0  0  0  0
    3.7250   10.7402    4.6402 N   0  0  0  0  0  0  0  0  0  0  0  0
    3.1736   10.9931    3.3107 C   0  0  0  0  0  0  0  0  0  0  0  0
    2.9039   10.9373    5.7626 N   0  0  0  0  0  0  0  0  0  0  0  0
   10.4042   10.0821    3.4346 C   0  0  0  0  0  0  0  0  0  0  0  0
   11.8889    9.6848    3.2863 C   0  0  0  0  0  0  0  0  0  0  0  0
   13.3395    6.8740    0.3571 H   0  0  0  0  0  0  0  0  0  0  0  0
   13.9237    6.1938    1.9316 H   0  0  0  0  0  0  0  0  0  0  0  0
   15.0578    7.0796    0.8475 H   0  0  0  0  0  0  0  0  0  0  0  0
   13.8429    9.0655    1.1030 H   0  0  0  0  0  0  0  0  0  0  0  0
   14.5651    9.8056    3.1016 H   0  0  0  0  0  0  0  0  0  0  0  0
   15.5918    8.5556    2.6309 H   0  0  0  0  0  0  0  0  0  0  0  0
   14.4325    8.2671    3.8348 H   0  0  0  0  0  0  0  0  0  0  0  0
   11.7481    8.9809    1.2663 H   0  0  0  0  0  0  0  0  0  0  0  0
   11.4729    6.5322    1.8376 H   0  0  0  0  0  0  0  0  0  0  0  0
   11.4938    7.0013    3.5661 H   0  0  0  0  0  0  0  0  0  0  0  0
    9.2137    7.1097    3.1865 H   0  0  0  0  0  0  0  0  0  0  0  0
    9.3838    7.3994    1.4344 H   0  0  0  0  0  0  0  0  0  0  0  0
    9.6779    9.5856    1.6451 H   0  0  0  0  0  0  0  0  0  0  0  0
    7.6358    9.5215    4.8725 H   0  0  0  0  0  0  0  0  0  0  0  0
    5.4574   10.1340    5.8255 H   0  0  0  0  0  0  0  0  0  0  0  0
    3.7613   11.7883    2.8055 H   0  0  0  0  0  0  0  0  0  0  0  0
    3.2128   10.0634    2.7049 H   0  0  0  0  0  0  0  0  0  0  0  0
    2.1160   11.3250    3.3845 H   0  0  0  0  0  0  0  0  0  0  0  0
    2.8597   10.0339    6.2873 H   0  0  0  0  0  0  0  0  0  0  0  0
    3.3700   11.6423    6.3784 H   0  0  0  0  0  0  0  0  0  0  0  0
   10.1334   10.0287    4.5113 H   0  0  0  0  0  0  0  0  0  0  0  0
   10.2657   11.1447    3.1286 H   0  0  0  0  0  0  0  0  0  0  0  0
   12.2714    9.3416    4.2727 H   0  0  0  0  0  0  0  0  0  0  0  0
   12.4541   10.5996    3.0053 H   0  0  0  0  0  0  0  0  0  0  0  0
  1  2  1  0
  2  3  1  0
  2  4  1  0
  4  5  1  0
  5  6  1  0
  6  7  1  0
  7  8  1  0
  8  9  2  0
  8 10  1  0
 10 11  1  0
 11 12  2  3
 12 13  1  0
 13 14  1  0
 13 15  1  0
  7 16  1  0
 16 17  1  0
 17  4  1  0
  1 18  1  0
  1 19  1  0
  1 20  1  0
  2 21  1  0
  3 22  1  0
  3 23  1  0
  3 24  1  0
  4 25  1  0
  5 26  1  0
  5 27  1  0
  6 28  1  0
  6 29  1  0
  7 30  1  0
 10 31  1  0
 12 32  1  0
 14 33  1  0
 14 34  1  0
 14 35  1  0
 15 36  1  0
 15 37  1  0
 16 38  1  0
 16 39  1  0
 17 40  1  0
 17 41  1  0
M  CHG  1   3   1
M  END
>  <EmbedRMS>  (80) 
0.2570984896337683

$$$$

     RDKit          3D

 39 40  0  0  0  0  0  0  0  0999 V2000
   14.0110    7.0511    1.2526 C   0  0  0  0  0  0  0  0  0  0  0  0
   13.6007    8.3248    1.9901 C   0  0  0  0  0  0  0  0  0  0  0  0
   14.7033    8.8921    2.7690 N   0  0  0  0  0  4  0  0  0  0  0  0
   12.2625    8.3270    2.7691 C   0  0  0  0  0  0  0  0  0  0  0  0
   11.1802    7.4398    2.1370 C   0  0  0  0  0  0  0  0  0  0  0  0
    9.7464    7.7250    2.5506 C   0  0  0  0  0  0  0  0  0  0  0  0
    9.4528    9.2006    2.6508 C   0  0  0  0  0  0  0  0  0  0  0  0
    7.9907    9.5272    2.7197 C   0  0  0  0  0  0  0  0  0  0  0  0
    7.4511    9.6605    1.5982 O   0  0  0  0  0  0  0  0  0  0  0  0
    7.2032    9.6917    3.9188 N   0  0  0  0  0  0  0  0  0  0  0  0
    5.8190   10.1244    3.8864 C   0  0  0  0  0  0  0  0  0  0  0  0
    5.0492   10.4501    2.7707 C   0  0  0  0  0  0  0  0  0  0  0  0
    3.8118   10.8137    3.2504 C   0  0  0  0  0  0  0  0  0  0  0  0
    3.7917   10.7296    4.5924 N   0  0  0  0  0  0  0  0  0  0  0  0
    5.0092   10.3116    4.9903 C   0  0  0  0  0  0  0  0  0  0  0  0
   10.3879   10.0193    3.4937 C   0  0  0  0  0  0  0  0  0  0  0  0
   11.8511    9.7804    3.1265 C   0  0  0  0  0  0  0  0  0  0  0  0
   13.2659    6.7648    0.4822 H   0  0  0  0  0  0  0  0  0  0  0  0
   14.9817    7.1940    0.7316 H   0  0  0  0  0  0  0  0  0  0  0  0
   14.1182    6.2183    1.9789 H   0  0  0  0  0  0  0  0  0  0  0  0
   13.4353    9.0292    1.1418 H   0  0  0  0  0  0  0  0  0  0  0  0
   14.5218    9.8930    3.0061 H   0  0  0  0  0  0  0  0  0  0  0  0
   15.5925    8.8665    2.2188 H   0  0  0  0  0  0  0  0  0  0  0  0
   14.8389    8.3426    3.6484 H   0  0  0  0  0  0  0  0  0  0  0  0
   12.4711    7.8390    3.7480 H   0  0  0  0  0  0  0  0  0  0  0  0
   11.2117    7.5939    1.0361 H   0  0  0  0  0  0  0  0  0  0  0  0
   11.4077    6.3669    2.3236 H   0  0  0  0  0  0  0  0  0  0  0  0
    9.0547    7.2379    1.8268 H   0  0  0  0  0  0  0  0  0  0  0  0
    9.5649    7.2656    3.5467 H   0  0  0  0  0  0  0  0  0  0  0  0
    9.7356    9.5600    1.6294 H   0  0  0  0  0  0  0  0  0  0  0  0
    7.6552    9.5149    4.8435 H   0  0  0  0  0  0  0  0  0  0  0  0
    5.3065   10.4537    1.7245 H   0  0  0  0  0  0  0  0  0  0  0  0
    2.9693   11.1301    2.6494 H   0  0  0  0  0  0  0  0  0  0  0  0
    2.9817   10.9503    5.2127 H   0  0  0  0  0  0  0  0  0  0  0  0
    5.2923   10.1545    6.0229 H   0  0  0  0  0  0  0  0  0  0  0  0
   10.1492   11.1022    3.3982 H   0  0  0  0  0  0  0  0  0  0  0  0
   10.2369    9.7340    4.5575 H   0  0  0  0  0  0  0  0  0  0  0  0
   12.4748   10.1510    3.9689 H   0  0  0  0  0  0  0  0  0  0  0  0
   12.0642   10.4412    2.2573 H   0  0  0  0  0  0  0  0  0  0  0  0
  1  2  1  0
  2  3  1  0
  2  4  1  0
  4  5  1  0
  5  6  1  0
  6  7  1  0
  7  8  1  0
  8  9  2  0
  8 10  1  0
 10 11  1  0
 11 12  1  0
 12 13  2  0
 13 14  1  0
 14 15  1  0
  7 16  1  0
 16 17  1  0
 17  4  1  0
 15 11  2  0
  1 18  1  0
  1 19  1  0
  1 20  1  0
  2 21  1  0
  3 22  1  0
  3 23  1  0
  3 24  1  0
  4 25  1  0
  5 26  1  0
  5 27  1  0
  6 28  1  0
  6 29  1  0
  7 30  1  0
 10 31  1  0
 12 32  1  0
 13 33  1  0
 14 34  1  0
 15 35  1  0
 16 36  1  0
 16 37  1  0
 17 38  1  0
 17 39  1  0
M  CHG  1   3   1
M  END
>  <EmbedRMS>  (81) 
0.3005329260886256

$$$$

     RDKit          3D

 39 40  0  0  0  0  0  0  0  0999 V2000
   14.0110    7.0511    1.2526 C   0  0  0  0  0  0  0  0  0  0  0  0
   13.6007    8.3248    1.9901 C   0  0  0  0  0  0  0  0  0  0  0  0
   14.7033    8.8921    2.7690 N   0  0  0  0  0  4  0  0  0  0  0  0
   12.2625    8.3270    2.7691 C   0  0  0  0  0  0  0  0  0  0  0  0
   11.1802    7.4398    2.1370 C   0  0  0  0  0  0  0  0  0  0  0  0
    9.7464    7.7250    2.5506 C   0  0  0  0  0  0  0  0  0  0  0  0
    9.4528    9.2006    2.6508 C   0  0  0  0  0  0  0  0  0  0  0  0
    7.9907    9.5272    2.7197 C   0  0  0  0  0  0  0  0  0  0  0  0
    7.4511    9.6605    1.5982 O   0  0  0  0  0  0  0  0  0  0  0  0
    7.2032    9.6917    3.9188 N   0  0  0  0  0  0  0  0  0  0  0  0
    5.8190   10.1244    3.8864 C   0  0  0  0  0  0  0  0  0  0  0  0
    5.0492   10.4501    2.7707 C   0  0  0  0  0  0  0  0  0  0  0  0
    3.8118   10.8137    3.2504 C   0  0  0  0  0  0  0  0  0  0  0  0
    3.7917   10.7296    4.5924 N   0  0  0  0  0  0  0  0  0  0  0  0
    5.0092   10.3116    4.9903 C   0  0  0  0  0  0  0  0  0  0  0  0
   10.3879   10.0193    3.4937 C   0  0  0  0  0  0  0  0  0  0  0  0
   11.8511    9.7804    3.1265 C   0  0  0  0  0  0  0  0  0  0  0  0
   13.2659    6.7648    0.4822 H   0  0  0  0  0  0  0  0  0  0  0  0
   14.9817    7.1940    0.7316 H   0  0  0  0  0  0  0  0  0  0  0  0
   14.1182    6.2183    1.9789 H   0  0  0  0  0  0  0  0  0  0  0  0
   13.4353    9.0292    1.1418 H   0  0  0  0  0  0  0  0  0  0  0  0
   14.5218    9.8930    3.0061 H   0  0  0  0  0  0  0  0  0  0  0  0
   15.5925    8.8665    2.2188 H   0  0  0  0  0  0  0  0  0  0  0  0
   14.8389    8.3426    3.6484 H   0  0  0  0  0  0  0  0  0  0  0  0
   12.4711    7.8390    3.7480 H   0  0  0  0  0  0  0  0  0  0  0  0
   11.2117    7.5939    1.0361 H   0  0  0  0  0  0  0  0  0  0  0  0
   11.4077    6.3669    2.3236 H   0  0  0  0  0  0  0  0  0  0  0  0
    9.0547    7.2379    1.8268 H   0  0  0  0  0  0  0  0  0  0  0  0
    9.5649    7.2656    3.5467 H   0  0  0  0  0  0  0  0  0  0  0  0
    9.7356    9.5600    1.6294 H   0  0  0  0  0  0  0  0  0  0  0  0
    7.6552    9.5149    4.8435 H   0  0  0  0  0  0  0  0  0  0  0  0
    5.3065   10.4537    1.7245 H   0  0  0  0  0  0  0  0  0  0  0  0
    2.9693   11.1301    2.6494 H   0  0  0  0  0  0  0  0  0  0  0  0
    2.9817   10.9503    5.2127 H   0  0  0  0  0  0  0  0  0  0  0  0
    5.2923   10.1545    6.0229 H   0  0  0  0  0  0  0  0  0  0  0  0
   10.1492   11.1022    3.3982 H   0  0  0  0  0  0  0  0  0  0  0  0
   10.2369    9.7340    4.5575 H   0  0  0  0  0  0  0  0  0  0  0  0
   12.4748   10.1510    3.9689 H   0  0  0  0  0  0  0  0  0  0  0  0
   12.0642   10.4412    2.2573 H   0  0  0  0  0  0  0  0  0  0  0  0
  1  2  1  0
  2  3  1  0
  2  4  1  0
  4  5  1  0
  5  6  1  0
  6  7  1  0
  7  8  1  0
  8  9  2  0
  8 10  1  0
 10 11  1  0
 11 12  1  0
 12 13  2  0
 13 14  1  0
 14 15  1  0
  7 16  1  0
 16 17  1  0
 17  4  1  0
 15 11  2  0
  1 18  1  0
  1 19  1  0
  1 20  1  0
  2 21  1  0
  3 22  1  0
  3 23  1  0
  3 24  1  0
  4 25  1  0
  5 26  1  0
  5 27  1  0
  6 28  1  0
  6 29  1  0
  7 30  1  0
 10 31  1  0
 12 32  1  0
 13 33  1  0
 14 34  1  0
 15 35  1  0
 16 36  1  0
 16 37  1  0
 17 38  1  0
 17 39  1  0
M  CHG  1   3   1
M  END
>  <EmbedRMS>  (82) 
0.3005329260886256

$$$$

     RDKit          3D

 39 40  0  0  0  0  0  0  0  0999 V2000
   14.0110    7.0511    1.2526 C   0  0  0  0  0  0  0  0  0  0  0  0
   13.6007    8.3248    1.9901 C   0  0  0  0  0  0  0  0  0  0  0  0
   14.7033    8.8921    2.7690 N   0  0  0  0  0  4  0  0  0  0  0  0
   12.2625    8.3270    2.7691 C   0  0  0  0  0  0  0  0  0  0  0  0
   11.1802    7.4398    2.1370 C   0  0  0  0  0  0  0  0  0  0  0  0
    9.7464    7.7250    2.5506 C   0  0  0  0  0  0  0  0  0  0  0  0
    9.4528    9.2006    2.6508 C   0  0  0  0  0  0  0  0  0  0  0  0
    7.9907    9.5272    2.7197 C   0  0  0  0  0  0  0  0  0  0  0  0
    7.4511    9.6605    1.5982 O   0  0  0  0  0  0  0  0  0  0  0  0
    7.2032    9.6917    3.9188 N   0  0  0  0  0  0  0  0  0  0  0  0
    5.8190   10.1244    3.8864 C   0  0  0  0  0  0  0  0  0  0  0  0
    5.0492   10.4501    2.7707 C   0  0  0  0  0  0  0  0  0  0  0  0
    3.8118   10.8137    3.2504 C   0  0  0  0  0  0  0  0  0  0  0  0
    3.7917   10.7296    4.5924 N   0  0  0  0  0  0  0  0  0  0  0  0
    5.0092   10.3116    4.9903 C   0  0  0  0  0  0  0  0  0  0  0  0
   10.3879   10.0193    3.4937 C   0  0  0  0  0  0  0  0  0  0  0  0
   11.8511    9.7804    3.1265 C   0  0  0  0  0  0  0  0  0  0  0  0
   13.2659    6.7648    0.4822 H   0  0  0  0  0  0  0  0  0  0  0  0
   14.9817    7.1940    0.7316 H   0  0  0  0  0  0  0  0  0  0  0  0
   14.1182    6.2183    1.9789 H   0  0  0  0  0  0  0  0  0  0  0  0
   13.4353    9.0292    1.1418 H   0  0  0  0  0  0  0  0  0  0  0  0
   14.5218    9.8930    3.0061 H   0  0  0  0  0  0  0  0  0  0  0  0
   15.5925    8.8665    2.2188 H   0  0  0  0  0  0  0  0  0  0  0  0
   14.8389    8.3426    3.6484 H   0  0  0  0  0  0  0  0  0  0  0  0
   12.4711    7.8390    3.7480 H   0  0  0  0  0  0  0  0  0  0  0  0
   11.2117    7.5939    1.0361 H   0  0  0  0  0  0  0  0  0  0  0  0
   11.4077    6.3669    2.3236 H   0  0  0  0  0  0  0  0  0  0  0  0
    9.0547    7.2379    1.8268 H   0  0  0  0  0  0  0  0  0  0  0  0
    9.5649    7.2656    3.5467 H   0  0  0  0  0  0  0  0  0  0  0  0
    9.7356    9.5600    1.6294 H   0  0  0  0  0  0  0  0  0  0  0  0
    7.6552    9.5149    4.8435 H   0  0  0  0  0  0  0  0  0  0  0  0
    5.3065   10.4537    1.7245 H   0  0  0  0  0  0  0  0  0  0  0  0
    2.9693   11.1301    2.6494 H   0  0  0  0  0  0  0  0  0  0  0  0
    2.9817   10.9503    5.2127 H   0  0  0  0  0  0  0  0  0  0  0  0
    5.2923   10.1545    6.0229 H   0  0  0  0  0  0  0  0  0  0  0  0
   10.1492   11.1022    3.3982 H   0  0  0  0  0  0  0  0  0  0  0  0
   10.2369    9.7340    4.5575 H   0  0  0  0  0  0  0  0  0  0  0  0
   12.4748   10.1510    3.9689 H   0  0  0  0  0  0  0  0  0  0  0  0
   12.0642   10.4412    2.2573 H   0  0  0  0  0  0  0  0  0  0  0  0
  1  2  1  0
  2  3  1  0
  2  4  1  0
  4  5  1  0
  5  6  1  0
  6  7  1  0
  7  8  1  0
  8  9  2  0
  8 10  1  0
 10 11  1  0
 11 12  1  0
 12 13  2  0
 13 14  1  0
 14 15  1  0
  7 16  1  0
 16 17  1  0
 17  4  1  0
 15 11  2  0
  1 18  1  0
  1 19  1  0
  1 20  1  0
  2 21  1  0
  3 22  1  0
  3 23  1  0
  3 24  1  0
  4 25  1  0
  5 26  1  0
  5 27  1  0
  6 28  1  0
  6 29  1  0
  7 30  1  0
 10 31  1  0
 12 32  1  0
 13 33  1  0
 14 34  1  0
 15 35  1  0
 16 36  1  0
 16 37  1  0
 17 38  1  0
 17 39  1  0
M  CHG  1   3   1
M  END
>  <EmbedRMS>  (83) 
0.3005329260886256

$$$$

     RDKit          3D

 41 41  0  0  0  0  0  0  0  0999 V2000
    5.6637   11.5141    5.8986 C   0  0  0  0  0  0  0  0  0  0  0  0
    5.1208   10.2845    5.1719 C   0  0  0  0  0  0  0  0  0  0  0  0
    3.3231   10.4802    4.9168 S   0  0  0  0  0  0  0  0  0  0  0  0
    5.8045   10.0983    3.8148 C   0  0  0  0  0  0  0  0  0  0  0  0
    7.2122    9.6835    3.9371 N   0  0  0  0  0  0  0  0  0  0  0  0
    7.9816    9.5187    2.7342 C   0  0  0  0  0  0  0  0  0  0  0  0
    7.4140    9.6757    1.6243 O   0  0  0  0  0  0  0  0  0  0  0  0
    9.4445    9.1939    2.6618 C   0  0  0  0  0  0  0  0  0  0  0  0
    9.7658    7.7145    2.4336 C   0  0  0  0  0  0  0  0  0  0  0  0
   11.2644    7.3644    2.5406 C   0  0  0  0  0  0  0  0  0  0  0  0
   12.1435    8.5869    2.2328 C   0  0  0  0  0  0  0  0  0  0  0  0
   13.6545    8.3400    1.9333 C   0  0  0  0  0  0  0  0  0  0  0  0
   14.0136    7.0449    1.2245 C   0  0  0  0  0  0  0  0  0  0  0  0
   14.6175    8.7740    2.9398 N   0  0  0  0  0  4  0  0  0  0  0  0
   11.8904    9.6848    3.2863 C   0  0  0  0  0  0  0  0  0  0  0  0
   10.4059   10.0816    3.4352 C   0  0  0  0  0  0  0  0  0  0  0  0
    5.1631   11.6240    6.8838 H   0  0  0  0  0  0  0  0  0  0  0  0
    5.4826   12.4339    5.3021 H   0  0  0  0  0  0  0  0  0  0  0  0
    6.7543   11.4121    6.0792 H   0  0  0  0  0  0  0  0  0  0  0  0
    5.2896    9.3801    5.7963 H   0  0  0  0  0  0  0  0  0  0  0  0
    3.0332   10.3754    6.2909 H   0  0  0  0  0  0  0  0  0  0  0  0
    5.7438   11.0461    3.2349 H   0  0  0  0  0  0  0  0  0  0  0  0
    5.2576    9.3146    3.2456 H   0  0  0  0  0  0  0  0  0  0  0  0
    7.6555    9.5107    4.8670 H   0  0  0  0  0  0  0  0  0  0  0  0
    9.6838    9.5860    1.6436 H   0  0  0  0  0  0  0  0  0  0  0  0
    9.3850    7.3986    1.4352 H   0  0  0  0  0  0  0  0  0  0  0  0
    9.2152    7.1113    3.1879 H   0  0  0  0  0  0  0  0  0  0  0  0
   11.4952    7.0009    3.5662 H   0  0  0  0  0  0  0  0  0  0  0  0
   11.4740    6.5319    1.8376 H   0  0  0  0  0  0  0  0  0  0  0  0
   11.7501    8.9804    1.2662 H   0  0  0  0  0  0  0  0  0  0  0  0
   13.8443    9.0654    1.1032 H   0  0  0  0  0  0  0  0  0  0  0  0
   13.9242    6.1935    1.9314 H   0  0  0  0  0  0  0  0  0  0  0  0
   13.3404    6.8741    0.3569 H   0  0  0  0  0  0  0  0  0  0  0  0
   15.0586    7.0791    0.8477 H   0  0  0  0  0  0  0  0  0  0  0  0
   14.4337    8.2660    3.8347 H   0  0  0  0  0  0  0  0  0  0  0  0
   14.5659    9.8050    3.1025 H   0  0  0  0  0  0  0  0  0  0  0  0
   15.5928    8.5555    2.6310 H   0  0  0  0  0  0  0  0  0  0  0  0
   12.2735    9.3421    4.2727 H   0  0  0  0  0  0  0  0  0  0  0  0
   12.4551   10.5999    3.0047 H   0  0  0  0  0  0  0  0  0  0  0  0
   10.2669   11.1446    3.1312 H   0  0  0  0  0  0  0  0  0  0  0  0
   10.1346   10.0257    4.5117 H   0  0  0  0  0  0  0  0  0  0  0  0
  1  2  1  0
  2  3  1  0
  2  4  1  0
  4  5  1  0
  5  6  1  0
  6  7  2  0
  6  8  1  0
  8  9  1  0
  9 10  1  0
 10 11  1  0
 11 12  1  0
 12 13  1  0
 12 14  1  0
 11 15  1  0
 15 16  1  0
 16  8  1  0
  1 17  1  0
  1 18  1  0
  1 19  1  0
  2 20  1  0
  3 21  1  0
  4 22  1  0
  4 23  1  0
  5 24  1  0
  8 25  1  0
  9 26  1  0
  9 27  1  0
 10 28  1  0
 10 29  1  0
 11 30  1  0
 12 31  1  0
 13 32  1  0
 13 33  1  0
 13 34  1  0
 14 35  1  0
 14 36  1  0
 14 37  1  0
 15 38  1  0
 15 39  1  0
 16 40  1  0
 16 41  1  0
M  CHG  1  14   1
M  END
>  <EmbedRMS>  (84) 
0.26514690107460426

$$$$

     RDKit          3D

 40 41  0  0  0  0  0  0  0  0999 V2000
   13.9332    7.3332    1.0251 C   0  0  0  0  0  0  0  0  0  0  0  0
   13.7125    7.9146    2.4297 C   0  0  0  0  0  0  0  0  0  0  0  0
   14.6504    9.0165    2.6726 N   0  0  0  0  0  4  0  0  0  0  0  0
   12.2364    8.2979    2.7979 C   0  0  0  0  0  0  0  0  0  0  0  0
   11.1515    7.3120    2.3262 C   0  0  0  0  0  0  0  0  0  0  0  0
    9.7912    7.9324    2.0765 C   0  0  0  0  0  0  0  0  0  0  0  0
    9.4261    8.9806    3.1220 C   0  0  0  0  0  0  0  0  0  0  0  0
    8.0225    9.4639    2.8667 C   0  0  0  0  0  0  0  0  0  0  0  0
    7.6546    9.6768    1.6802 O   0  0  0  0  0  0  0  0  0  0  0  0
    7.1435    9.7011    3.9767 N   0  0  0  0  0  0  0  0  0  0  0  0
    5.7719   10.1423    3.9218 C   0  0  0  0  0  0  0  0  0  0  0  0
    5.0682   10.2866    5.1272 C   0  0  0  0  0  0  0  0  0  0  0  0
    3.7425   10.7162    5.1245 C   0  0  0  0  0  0  0  0  0  0  0  0
    3.1199   11.0021    3.9115 C   0  0  0  0  0  0  0  0  0  0  0  0
    3.8030   10.8612    2.7487 N   0  0  0  0  0  0  0  0  0  0  0  0
    5.0935   10.4449    2.7201 C   0  0  0  0  0  0  0  0  0  0  0  0
   10.3969   10.1658    3.0679 C   0  0  0  0  0  0  0  0  0  0  0  0
   11.8884    9.7884    2.9926 C   0  0  0  0  0  0  0  0  0  0  0  0
   13.4390    7.9746    0.2649 H   0  0  0  0  0  0  0  0  0  0  0  0
   13.5402    6.2972    0.9560 H   0  0  0  0  0  0  0  0  0  0  0  0
   15.0172    7.2785    0.7884 H   0  0  0  0  0  0  0  0  0  0  0  0
   14.0108    7.0845    3.1148 H   0  0  0  0  0  0  0  0  0  0  0  0
   14.5446    9.3791    3.6472 H   0  0  0  0  0  0  0  0  0  0  0  0
   14.5091    9.7874    1.9809 H   0  0  0  0  0  0  0  0  0  0  0  0
   15.6338    8.6709    2.5809 H   0  0  0  0  0  0  0  0  0  0  0  0
   12.2424    8.0318    3.8833 H   0  0  0  0  0  0  0  0  0  0  0  0
   11.4353    6.8245    1.3751 H   0  0  0  0  0  0  0  0  0  0  0  0
   11.0353    6.4818    3.0616 H   0  0  0  0  0  0  0  0  0  0  0  0
    9.8005    8.4008    1.0657 H   0  0  0  0  0  0  0  0  0  0  0  0
    9.0262    7.1237    2.0652 H   0  0  0  0  0  0  0  0  0  0  0  0
    9.4833    8.5087    4.1284 H   0  0  0  0  0  0  0  0  0  0  0  0
    7.5457    9.5319    4.9268 H   0  0  0  0  0  0  0  0  0  0  0  0
    5.5478   10.0665    6.0729 H   0  0  0  0  0  0  0  0  0  0  0  0
    3.2017   10.8271    6.0555 H   0  0  0  0  0  0  0  0  0  0  0  0
    2.0913   11.3366    3.8945 H   0  0  0  0  0  0  0  0  0  0  0  0
    5.5409   10.3704    1.7502 H   0  0  0  0  0  0  0  0  0  0  0  0
   10.1534   10.7936    2.1801 H   0  0  0  0  0  0  0  0  0  0  0  0
   10.2256   10.8070    3.9610 H   0  0  0  0  0  0  0  0  0  0  0  0
   12.3112   10.3420    2.1274 H   0  0  0  0  0  0  0  0  0  0  0  0
   12.4001   10.1967    3.8942 H   0  0  0  0  0  0  0  0  0  0  0  0
  1  2  1  0
  2  3  1  0
  2  4  1  0
  4  5  1  0
  5  6  1  0
  6  7  1  0
  7  8  1  0
  8  9  2  0
  8 10  1  0
 10 11  1  0
 11 12  2  0
 12 13  1  0
 13 14  2  0
 14 15  1  0
 15 16  2  0
  7 17  1  0
 17 18  1  0
 18  4  1  0
 16 11  1  0
  1 19  1  0
  1 20  1  0
  1 21  1  0
  2 22  1  0
  3 23  1  0
  3 24  1  0
  3 25  1  0
  4 26  1  0
  5 27  1  0
  5 28  1  0
  6 29  1  0
  6 30  1  0
  7 31  1  0
 10 32  1  0
 12 33  1  0
 13 34  1  0
 14 35  1  0
 16 36  1  0
 17 37  1  0
 17 38  1  0
 18 39  1  0
 18 40  1  0
M  CHG  1   3   1
M  END
>  <EmbedRMS>  (85) 
0.16496192233382964

$$$$

     RDKit          3D

 39 40  0  0  0  0  0  0  0  0999 V2000
   14.0110    7.0511    1.2526 C   0  0  0  0  0  0  0  0  0  0  0  0
   13.6007    8.3248    1.9901 C   0  0  0  0  0  0  0  0  0  0  0  0
   14.7033    8.8921    2.7690 N   0  0  0  0  0  4  0  0  0  0  0  0
   12.2625    8.3270    2.7691 C   0  0  0  0  0  0  0  0  0  0  0  0
   11.1802    7.4398    2.1370 C   0  0  0  0  0  0  0  0  0  0  0  0
    9.7464    7.7250    2.5506 C   0  0  0  0  0  0  0  0  0  0  0  0
    9.4528    9.2006    2.6508 C   0  0  0  0  0  0  0  0  0  0  0  0
    7.9907    9.5272    2.7197 C   0  0  0  0  0  0  0  0  0  0  0  0
    7.4511    9.6605    1.5982 O   0  0  0  0  0  0  0  0  0  0  0  0
    7.2032    9.6917    3.9188 N   0  0  0  0  0  0  0  0  0  0  0  0
    5.8190   10.1244    3.8864 C   0  0  0  0  0  0  0  0  0  0  0  0
    5.0492   10.4501    2.7707 C   0  0  0  0  0  0  0  0  0  0  0  0
    3.8118   10.8137    3.2504 C   0  0  0  0  0  0  0  0  0  0  0  0
    3.7917   10.7296    4.5924 N   0  0  0  0  0  0  0  0  0  0  0  0
    5.0092   10.3116    4.9903 C   0  0  0  0  0  0  0  0  0  0  0  0
   10.3879   10.0193    3.4937 C   0  0  0  0  0  0  0  0  0  0  0  0
   11.8511    9.7804    3.1265 C   0  0  0  0  0  0  0  0  0  0  0  0
   13.2659    6.7648    0.4822 H   0  0  0  0  0  0  0  0  0  0  0  0
   14.9817    7.1940    0.7316 H   0  0  0  0  0  0  0  0  0  0  0  0
   14.1182    6.2183    1.9789 H   0  0  0  0  0  0  0  0  0  0  0  0
   13.4353    9.0292    1.1418 H   0  0  0  0  0  0  0  0  0  0  0  0
   14.5218    9.8930    3.0061 H   0  0  0  0  0  0  0  0  0  0  0  0
   15.5925    8.8665    2.2188 H   0  0  0  0  0  0  0  0  0  0  0  0
   14.8389    8.3426    3.6484 H   0  0  0  0  0  0  0  0  0  0  0  0
   12.4711    7.8390    3.7480 H   0  0  0  0  0  0  0  0  0  0  0  0
   11.2117    7.5939    1.0361 H   0  0  0  0  0  0  0  0  0  0  0  0
   11.4077    6.3669    2.3236 H   0  0  0  0  0  0  0  0  0  0  0  0
    9.0547    7.2379    1.8268 H   0  0  0  0  0  0  0  0  0  0  0  0
    9.5649    7.2656    3.5467 H   0  0  0  0  0  0  0  0  0  0  0  0
    9.7356    9.5600    1.6294 H   0  0  0  0  0  0  0  0  0  0  0  0
    7.6552    9.5149    4.8435 H   0  0  0  0  0  0  0  0  0  0  0  0
    5.3065   10.4537    1.7245 H   0  0  0  0  0  0  0  0  0  0  0  0
    2.9693   11.1301    2.6494 H   0  0  0  0  0  0  0  0  0  0  0  0
    2.9817   10.9503    5.2127 H   0  0  0  0  0  0  0  0  0  0  0  0
    5.2923   10.1545    6.0229 H   0  0  0  0  0  0  0  0  0  0  0  0
   10.1492   11.1022    3.3982 H   0  0  0  0  0  0  0  0  0  0  0  0
   10.2369    9.7340    4.5575 H   0  0  0  0  0  0  0  0  0  0  0  0
   12.4748   10.1510    3.9689 H   0  0  0  0  0  0  0  0  0  0  0  0
   12.0642   10.4412    2.2573 H   0  0  0  0  0  0  0  0  0  0  0  0
  1  2  1  0
  2  3  1  0
  2  4  1  0
  4  5  1  0
  5  6  1  0
  6  7  1  0
  7  8  1  0
  8  9  2  0
  8 10  1  0
 10 11  1  0
 11 12  1  0
 12 13  2  0
 13 14  1  0
 14 15  1  0
  7 16  1  0
 16 17  1  0
 17  4  1  0
 15 11  2  0
  1 18  1  0
  1 19  1  0
  1 20  1  0
  2 21  1  0
  3 22  1  0
  3 23  1  0
  3 24  1  0
  4 25  1  0
  5 26  1  0
  5 27  1  0
  6 28  1  0
  6 29  1  0
  7 30  1  0
 10 31  1  0
 12 32  1  0
 13 33  1  0
 14 34  1  0
 15 35  1  0
 16 36  1  0
 16 37  1  0
 17 38  1  0
 17 39  1  0
M  CHG  1   3   1
M  END
>  <EmbedRMS>  (86) 
0.3005329260886256

$$$$

     RDKit          3D

 41 41  0  0  0  0  0  0  0  0999 V2000
    5.1340   10.6838    4.8168 C   0  0  0  0  0  0  0  0  0  0  0  0
    5.7233    9.9077    3.9051 C   0  0  0  0  0  0  0  0  0  0  0  0
    7.1429    9.7009    3.9912 N   0  0  0  0  0  0  0  0  0  0  0  0
    8.0087    9.4794    2.8728 C   0  0  0  0  0  0  0  0  0  0  0  0
    7.6161    9.7124    1.6955 O   0  0  0  0  0  0  0  0  0  0  0  0
    9.4071    8.9949    3.1294 C   0  0  0  0  0  0  0  0  0  0  0  0
    9.7698    7.8726    2.1526 C   0  0  0  0  0  0  0  0  0  0  0  0
   11.1785    7.3663    2.4334 C   0  0  0  0  0  0  0  0  0  0  0  0
   12.1991    8.5123    2.2731 C   0  0  0  0  0  0  0  0  0  0  0  0
   13.6486    7.9558    2.3994 C   0  0  0  0  0  0  0  0  0  0  0  0
   14.0484    7.2193    1.1056 C   0  0  0  0  0  0  0  0  0  0  0  0
   14.6279    9.0158    2.6718 N   0  0  0  0  0  4  0  0  0  0  0  0
   11.8567    9.6380    3.2807 C   0  0  0  0  0  0  0  0  0  0  0  0
   10.4218   10.1492    3.0642 C   0  0  0  0  0  0  0  0  0  0  0  0
    4.8746    9.1652    2.9314 C   0  0  0  0  0  0  0  0  0  0  0  0
    5.3290    7.8654    2.3378 C   0  0  0  0  0  0  0  0  0  0  0  0
    3.6881    9.5920    2.6216 N   0  0  0  0  0  0  0  0  0  0  0  0
    5.7069   11.2044    5.5739 H   0  0  0  0  0  0  0  0  0  0  0  0
    5.7069   11.2044    5.5739 H   0  0  0  0  0  0  0  0  0  0  0  0
    7.5914    9.7813    4.9328 H   0  0  0  0  0  0  0  0  0  0  0  0
    9.4431    8.5664    4.1570 H   0  0  0  0  0  0  0  0  0  0  0  0
    9.7080    8.2320    1.1008 H   0  0  0  0  0  0  0  0  0  0  0  0
    9.0535    7.0296    2.2713 H   0  0  0  0  0  0  0  0  0  0  0  0
   11.3809    6.5455    1.7171 H   0  0  0  0  0  0  0  0  0  0  0  0
   11.2312    6.9397    3.4601 H   0  0  0  0  0  0  0  0  0  0  0  0
   12.0879    8.9479    1.2532 H   0  0  0  0  0  0  0  0  0  0  0  0
   13.6895    7.2253    3.2396 H   0  0  0  0  0  0  0  0  0  0  0  0
   13.9785    7.8971    0.2280 H   0  0  0  0  0  0  0  0  0  0  0  0
   15.0957    6.8574    1.1823 H   0  0  0  0  0  0  0  0  0  0  0  0
   13.4174    6.3267    0.9278 H   0  0  0  0  0  0  0  0  0  0  0  0
   14.5428    9.7863    1.9689 H   0  0  0  0  0  0  0  0  0  0  0  0
   14.4947    9.3938    3.6373 H   0  0  0  0  0  0  0  0  0  0  0  0
   15.5994    8.6298    2.6317 H   0  0  0  0  0  0  0  0  0  0  0  0
   12.5362   10.5049    3.1420 H   0  0  0  0  0  0  0  0  0  0  0  0
   11.9707    9.2655    4.3227 H   0  0  0  0  0  0  0  0  0  0  0  0
   10.1824   10.9004    3.8483 H   0  0  0  0  0  0  0  0  0  0  0  0
   10.3573   10.6536    2.0742 H   0  0  0  0  0  0  0  0  0  0  0  0
    5.6784    8.0261    1.2971 H   0  0  0  0  0  0  0  0  0  0  0  0
    4.4836    7.1452    2.3167 H   0  0  0  0  0  0  0  0  0  0  0  0
    6.1422    7.4094    2.9402 H   0  0  0  0  0  0  0  0  0  0  0  0
    3.2812   10.4775    2.9972 H   0  0  0  0  0  0  0  0  0  0  0  0
  1  2  2  3
  2  3  1  0
  3  4  1  0
  4  5  2  0
  4  6  1  0
  6  7  1  0
  7  8  1  0
  8  9  1  0
  9 10  1  0
 10 11  1  0
 10 12  1  0
  9 13  1  0
 13 14  1  0
  2 15  1  0
 15 16  1  0
 15 17  2  3
 14  6  1  0
  1 18  1  0
  1 19  1  0
  3 20  1  0
  6 21  1  0
  7 22  1  0
  7 23  1  0
  8 24  1  0
  8 25  1  0
  9 26  1  0
 10 27  1  0
 11 28  1  0
 11 29  1  0
 11 30  1  0
 12 31  1  0
 12 32  1  0
 12 33  1  0
 13 34  1  0
 13 35  1  0
 14 36  1  0
 14 37  1  0
 16 38  1  0
 16 39  1  0
 16 40  1  0
 17 41  1  0
M  CHG  1  12   1
M  END
>  <EmbedRMS>  (87) 
0.033034174538590914

$$$$

     RDKit          3D

 41 42  0  0  0  0  0  0  0  0999 V2000
   14.0095    7.0504    1.2533 C   0  0  0  0  0  0  0  0  0  0  0  0
   13.5989    8.3243    1.9899 C   0  0  0  0  0  0  0  0  0  0  0  0
   14.7011    8.8919    2.7694 N   0  0  0  0  0  4  0  0  0  0  0  0
   12.2592    8.3278    2.7674 C   0  0  0  0  0  0  0  0  0  0  0  0
   11.1759    7.4411    2.1356 C   0  0  0  0  0  0  0  0  0  0  0  0
    9.7400    7.7280    2.5467 C   0  0  0  0  0  0  0  0  0  0  0  0
    9.4448    9.2039    2.6453 C   0  0  0  0  0  0  0  0  0  0  0  0
    7.9811    9.5345    2.7316 C   0  0  0  0  0  0  0  0  0  0  0  0
    7.4312    9.7485    1.6252 O   0  0  0  0  0  0  0  0  0  0  0  0
    7.2028    9.6519    3.9403 N   0  0  0  0  0  0  0  0  0  0  0  0
    5.7647    9.8228    3.9029 C   0  0  0  0  0  0  0  0  0  0  0  0
    5.0339   10.6545    4.7293 C   0  0  0  0  0  0  0  0  0  0  0  0
    3.7178   10.4471    4.3485 C   0  0  0  0  0  0  0  0  0  0  0  0
    3.6678    9.5270    3.3645 N   0  0  0  0  0  0  0  0  0  0  0  0
    4.9080    9.1444    3.1025 N   0  0  0  0  0  0  0  0  0  0  0  0
    5.2116    8.0687    2.1641 C   0  0  0  0  0  0  0  0  0  0  0  0
   10.3846   10.0206    3.4874 C   0  0  0  0  0  0  0  0  0  0  0  0
   11.8476    9.7815    3.1207 C   0  0  0  0  0  0  0  0  0  0  0  0
   13.2641    6.7630    0.4837 H   0  0  0  0  0  0  0  0  0  0  0  0
   14.9800    7.1933    0.7318 H   0  0  0  0  0  0  0  0  0  0  0  0
   14.1174    6.2183    1.9804 H   0  0  0  0  0  0  0  0  0  0  0  0
   13.4348    9.0282    1.1409 H   0  0  0  0  0  0  0  0  0  0  0  0
   14.5199    9.8932    3.0051 H   0  0  0  0  0  0  0  0  0  0  0  0
   15.5910    8.8651    2.2203 H   0  0  0  0  0  0  0  0  0  0  0  0
   14.8352    8.3434    3.6497 H   0  0  0  0  0  0  0  0  0  0  0  0
   12.4662    7.8415    3.7474 H   0  0  0  0  0  0  0  0  0  0  0  0
   11.2089    7.5939    1.0347 H   0  0  0  0  0  0  0  0  0  0  0  0
   11.4022    6.3682    2.3235 H   0  0  0  0  0  0  0  0  0  0  0  0
    9.0483    7.2415    1.8226 H   0  0  0  0  0  0  0  0  0  0  0  0
    9.5565    7.2691    3.5427 H   0  0  0  0  0  0  0  0  0  0  0  0
    9.7192    9.5615    1.6215 H   0  0  0  0  0  0  0  0  0  0  0  0
    7.7017    9.7686    4.8500 H   0  0  0  0  0  0  0  0  0  0  0  0
    5.4044   11.3205    5.4970 H   0  0  0  0  0  0  0  0  0  0  0  0
    2.8492   10.9330    4.7718 H   0  0  0  0  0  0  0  0  0  0  0  0
    4.3831    7.3291    2.1649 H   0  0  0  0  0  0  0  0  0  0  0  0
    5.3078    8.4776    1.1374 H   0  0  0  0  0  0  0  0  0  0  0  0
    6.1374    7.5328    2.4609 H   0  0  0  0  0  0  0  0  0  0  0  0
   10.1473   11.1039    3.3931 H   0  0  0  0  0  0  0  0  0  0  0  0
   10.2352    9.7351    4.5514 H   0  0  0  0  0  0  0  0  0  0  0  0
   12.4714   10.1547    3.9619 H   0  0  0  0  0  0  0  0  0  0  0  0
   12.0600   10.4399    2.2495 H   0  0  0  0  0  0  0  0  0  0  0  0
  1  2  1  0
  2  3  1  0
  2  4  1  0
  4  5  1  0
  5  6  1  0
  6  7  1  0
  7  8  1  0
  8  9  2  0
  8 10  1  0
 10 11  1  0
 11 12  2  0
 12 13  1  0
 13 14  2  0
 14 15  1  0
 15 16  1  0
  7 17  1  0
 17 18  1  0
 18  4  1  0
 15 11  1  0
  1 19  1  0
  1 20  1  0
  1 21  1  0
  2 22  1  0
  3 23  1  0
  3 24  1  0
  3 25  1  0
  4 26  1  0
  5 27  1  0
  5 28  1  0
  6 29  1  0
  6 30  1  0
  7 31  1  0
 10 32  1  0
 12 33  1  0
 13 34  1  0
 16 35  1  0
 16 36  1  0
 16 37  1  0
 17 38  1  0
 17 39  1  0
 18 40  1  0
 18 41  1  0
M  CHG  1   3   1
M  END
>  <EmbedRMS>  (88) 
0.2930144483433324

$$$$

     RDKit          3D

 43 43  0  0  0  0  0  0  0  0999 V2000
   14.0146    7.0445    1.2242 C   0  0  0  0  0  0  0  0  0  0  0  0
   13.6556    8.3395    1.9330 C   0  0  0  0  0  0  0  0  0  0  0  0
   14.6184    8.7734    2.9398 N   0  0  0  0  0  4  0  0  0  0  0  0
   12.1448    8.5863    2.2322 C   0  0  0  0  0  0  0  0  0  0  0  0
   11.2656    7.3637    2.5388 C   0  0  0  0  0  0  0  0  0  0  0  0
    9.7674    7.7141    2.4306 C   0  0  0  0  0  0  0  0  0  0  0  0
    9.4460    9.1937    2.6555 C   0  0  0  0  0  0  0  0  0  0  0  0
    7.9824    9.5124    2.7303 C   0  0  0  0  0  0  0  0  0  0  0  0
    7.4094    9.6586    1.6225 O   0  0  0  0  0  0  0  0  0  0  0  0
    7.2288    9.7003    3.9392 N   0  0  0  0  0  0  0  0  0  0  0  0
    5.8269   10.1416    3.8902 C   0  0  0  0  0  0  0  0  0  0  0  0
    5.6901   11.6481    4.1506 C   0  0  0  0  0  0  0  0  0  0  0  0
    6.2706   12.5267    3.0282 C   0  0  0  0  0  0  0  0  0  0  0  0
    7.7254   12.7003    3.1457 N   0  0  0  0  0  4  0  0  0  0  0  0
   10.4081   10.0817    3.4304 C   0  0  0  0  0  0  0  0  0  0  0  0
   11.8916    9.6821    3.2871 C   0  0  0  0  0  0  0  0  0  0  0  0
   13.3416    6.8740    0.3563 H   0  0  0  0  0  0  0  0  0  0  0  0
   15.0597    7.0786    0.8476 H   0  0  0  0  0  0  0  0  0  0  0  0
   13.9249    6.1931    1.9310 H   0  0  0  0  0  0  0  0  0  0  0  0
   13.8457    9.0650    1.1030 H   0  0  0  0  0  0  0  0  0  0  0  0
   15.5936    8.5532    2.6321 H   0  0  0  0  0  0  0  0  0  0  0  0
   14.5683    9.8046    3.1013 H   0  0  0  0  0  0  0  0  0  0  0  0
   14.4333    8.2666    3.8352 H   0  0  0  0  0  0  0  0  0  0  0  0
   11.7517    8.9811    1.2660 H   0  0  0  0  0  0  0  0  0  0  0  0
   11.4955    6.9994    3.5643 H   0  0  0  0  0  0  0  0  0  0  0  0
   11.4755    6.5316    1.8354 H   0  0  0  0  0  0  0  0  0  0  0  0
    9.3870    7.3965    1.4326 H   0  0  0  0  0  0  0  0  0  0  0  0
    9.2166    7.1122    3.1859 H   0  0  0  0  0  0  0  0  0  0  0  0
    9.6828    9.5863    1.6370 H   0  0  0  0  0  0  0  0  0  0  0  0
    7.7104    9.6295    4.8632 H   0  0  0  0  0  0  0  0  0  0  0  0
    5.3469    9.8723    2.9247 H   0  0  0  0  0  0  0  0  0  0  0  0
    5.2653    9.5996    4.6810 H   0  0  0  0  0  0  0  0  0  0  0  0
    6.1402   11.9102    5.1328 H   0  0  0  0  0  0  0  0  0  0  0  0
    4.6039   11.8721    4.2304 H   0  0  0  0  0  0  0  0  0  0  0  0
    5.7781   13.5236    3.0893 H   0  0  0  0  0  0  0  0  0  0  0  0
    6.0066   12.1048    2.0325 H   0  0  0  0  0  0  0  0  0  0  0  0
    8.2041   12.2189    2.3518 H   0  0  0  0  0  0  0  0  0  0  0  0
    7.9628   13.7170    3.0841 H   0  0  0  0  0  0  0  0  0  0  0  0
    8.1062   12.3346    4.0481 H   0  0  0  0  0  0  0  0  0  0  0  0
   10.1346   10.0323    4.5063 H   0  0  0  0  0  0  0  0  0  0  0  0
   10.2782   11.1433    3.1214 H   0  0  0  0  0  0  0  0  0  0  0  0
   12.4598   10.5963    3.0099 H   0  0  0  0  0  0  0  0  0  0  0  0
   12.2700    9.3360    4.2741 H   0  0  0  0  0  0  0  0  0  0  0  0
  1  2  1  0
  2  3  1  0
  2  4  1  0
  4  5  1  0
  5  6  1  0
  6  7  1  0
  7  8  1  0
  8  9  2  0
  8 10  1  0
 10 11  1  0
 11 12  1  0
 12 13  1  0
 13 14  1  0
  7 15  1  0
 15 16  1  0
 16  4  1  0
  1 17  1  0
  1 18  1  0
  1 19  1  0
  2 20  1  0
  3 21  1  0
  3 22  1  0
  3 23  1  0
  4 24  1  0
  5 25  1  0
  5 26  1  0
  6 27  1  0
  6 28  1  0
  7 29  1  0
 10 30  1  0
 11 31  1  0
 11 32  1  0
 12 33  1  0
 12 34  1  0
 13 35  1  0
 13 36  1  0
 14 37  1  0
 14 38  1  0
 14 39  1  0
 15 40  1  0
 15 41  1  0
 16 42  1  0
 16 43  1  0
M  CHG  2   3   1  14   1
M  END
>  <EmbedRMS>  (89) 
0.26685653268904913

$$$$

     RDKit          3D

 43 44  0  0  0  0  0  0  0  0999 V2000
   14.0276    7.2301    1.0858 C   0  0  0  0  0  0  0  0  0  0  0  0
   13.6459    7.9626    2.3850 C   0  0  0  0  0  0  0  0  0  0  0  0
   14.6273    9.0243    2.6470 N   0  0  0  0  0  4  0  0  0  0  0  0
   12.1819    8.5085    2.2960 C   0  0  0  0  0  0  0  0  0  0  0  0
   11.1978    7.3499    2.5409 C   0  0  0  0  0  0  0  0  0  0  0  0
    9.7345    7.7437    2.3739 C   0  0  0  0  0  0  0  0  0  0  0  0
    9.4500    9.2139    2.6409 C   0  0  0  0  0  0  0  0  0  0  0  0
    7.9871    9.5385    2.7237 C   0  0  0  0  0  0  0  0  0  0  0  0
    7.4165    9.6879    1.6153 O   0  0  0  0  0  0  0  0  0  0  0  0
    7.2149    9.6895    3.9283 N   0  0  0  0  0  0  0  0  0  0  0  0
    5.8138   10.1222    3.8054 C   0  0  0  0  0  0  0  0  0  0  0  0
    5.1472   10.2607    5.1400 C   0  0  0  0  0  0  0  0  0  0  0  0
    4.4718    9.1754    5.7134 C   0  0  0  0  0  0  0  0  0  0  0  0
    3.8687    9.3139    6.9637 C   0  0  0  0  0  0  0  0  0  0  0  0
    3.9494   10.5386    7.6297 C   0  0  0  0  0  0  0  0  0  0  0  0
    4.6077   11.5829    7.0597 N   0  0  0  0  0  0  0  0  0  0  0  0
    5.2027   11.4727    5.8424 C   0  0  0  0  0  0  0  0  0  0  0  0
   10.4185   10.0737    3.4302 C   0  0  0  0  0  0  0  0  0  0  0  0
   11.8964    9.6377    3.3188 C   0  0  0  0  0  0  0  0  0  0  0  0
   13.3803    6.3499    0.9044 H   0  0  0  0  0  0  0  0  0  0  0  0
   13.9572    7.9169    0.2153 H   0  0  0  0  0  0  0  0  0  0  0  0
   15.0709    6.8548    1.1517 H   0  0  0  0  0  0  0  0  0  0  0  0
   13.7144    7.2277    3.2199 H   0  0  0  0  0  0  0  0  0  0  0  0
   15.5990    8.6418    2.5845 H   0  0  0  0  0  0  0  0  0  0  0  0
   14.5149    9.3994    3.6159 H   0  0  0  0  0  0  0  0  0  0  0  0
   14.5263    9.7976    1.9494 H   0  0  0  0  0  0  0  0  0  0  0  0
   12.0112    8.9222    1.2764 H   0  0  0  0  0  0  0  0  0  0  0  0
   11.3979    6.4997    1.8580 H   0  0  0  0  0  0  0  0  0  0  0  0
   11.3436    6.9702    3.5775 H   0  0  0  0  0  0  0  0  0  0  0  0
    9.3957    7.4730    1.3468 H   0  0  0  0  0  0  0  0  0  0  0  0
    9.1283    7.1284    3.0751 H   0  0  0  0  0  0  0  0  0  0  0  0
    9.7095    9.6218    1.6318 H   0  0  0  0  0  0  0  0  0  0  0  0
    7.6566    9.5244    4.8608 H   0  0  0  0  0  0  0  0  0  0  0  0
    5.2544    9.3860    3.1871 H   0  0  0  0  0  0  0  0  0  0  0  0
    5.7751   11.0969    3.2707 H   0  0  0  0  0  0  0  0  0  0  0  0
    4.4175    8.2247    5.1974 H   0  0  0  0  0  0  0  0  0  0  0  0
    3.3461    8.4800    7.4142 H   0  0  0  0  0  0  0  0  0  0  0  0
    3.4872   10.6595    8.6003 H   0  0  0  0  0  0  0  0  0  0  0  0
    5.7224   12.3263    5.4264 H   0  0  0  0  0  0  0  0  0  0  0  0
   10.1212   10.0281    4.5004 H   0  0  0  0  0  0  0  0  0  0  0  0
   10.3159   11.1407    3.1251 H   0  0  0  0  0  0  0  0  0  0  0  0
   12.2359    9.3018    4.3242 H   0  0  0  0  0  0  0  0  0  0  0  0
   12.4950   10.5353    3.0521 H   0  0  0  0  0  0  0  0  0  0  0  0
  1  2  1  0
  2  3  1  0
  2  4  1  0
  4  5  1  0
  5  6  1  0
  6  7  1  0
  7  8  1  0
  8  9  2  0
  8 10  1  0
 10 11  1  0
 11 12  1  0
 12 13  2  0
 13 14  1  0
 14 15  2  0
 15 16  1  0
 16 17  2  0
  7 18  1  0
 18 19  1  0
 19  4  1  0
 17 12  1  0
  1 20  1  0
  1 21  1  0
  1 22  1  0
  2 23  1  0
  3 24  1  0
  3 25  1  0
  3 26  1  0
  4 27  1  0
  5 28  1  0
  5 29  1  0
  6 30  1  0
  6 31  1  0
  7 32  1  0
 10 33  1  0
 11 34  1  0
 11 35  1  0
 13 36  1  0
 14 37  1  0
 15 38  1  0
 17 39  1  0
 18 40  1  0
 18 41  1  0
 19 42  1  0
 19 43  1  0
M  CHG  1   3   1
M  END
>  <EmbedRMS>  (90) 
0.17084101544492625

$$$$

     RDKit          3D

 42 43  0  0  0  0  0  0  0  0999 V2000
    5.3195   10.1269    6.4139 C   0  0  0  0  0  0  0  0  0  0  0  0
    4.9792   10.3195    4.9744 C   0  0  0  0  0  0  0  0  0  0  0  0
    3.7594   10.7463    4.4825 C   0  0  0  0  0  0  0  0  0  0  0  0
    3.8086   10.8209    3.1423 N   0  0  0  0  0  0  0  0  0  0  0  0
    5.0435   10.4532    2.7617 C   0  0  0  0  0  0  0  0  0  0  0  0
    5.8112   10.1281    3.8813 C   0  0  0  0  0  0  0  0  0  0  0  0
    7.2009    9.6998    3.9184 N   0  0  0  0  0  0  0  0  0  0  0  0
    7.9916    9.5355    2.7198 C   0  0  0  0  0  0  0  0  0  0  0  0
    7.4509    9.6633    1.5984 O   0  0  0  0  0  0  0  0  0  0  0  0
    9.4538    9.2013    2.6443 C   0  0  0  0  0  0  0  0  0  0  0  0
    9.7381    7.7217    2.5436 C   0  0  0  0  0  0  0  0  0  0  0  0
   11.1755    7.4157    2.1525 C   0  0  0  0  0  0  0  0  0  0  0  0
   12.2311    8.2933    2.8233 C   0  0  0  0  0  0  0  0  0  0  0  0
   13.7087    7.9212    2.4416 C   0  0  0  0  0  0  0  0  0  0  0  0
   13.9228    7.3287    1.0384 C   0  0  0  0  0  0  0  0  0  0  0  0
   14.6434    9.0272    2.6696 N   0  0  0  0  0  4  0  0  0  0  0  0
   11.8807    9.7841    3.0029 C   0  0  0  0  0  0  0  0  0  0  0  0
   10.4271   10.0502    3.4278 C   0  0  0  0  0  0  0  0  0  0  0  0
    6.1190   10.8397    6.7049 H   0  0  0  0  0  0  0  0  0  0  0  0
    4.4289   10.3031    7.0535 H   0  0  0  0  0  0  0  0  0  0  0  0
    5.6775    9.0889    6.5765 H   0  0  0  0  0  0  0  0  0  0  0  0
    2.8852   10.9917    5.0719 H   0  0  0  0  0  0  0  0  0  0  0  0
    3.0316   11.1198    2.5124 H   0  0  0  0  0  0  0  0  0  0  0  0
    5.3287   10.4524    1.7236 H   0  0  0  0  0  0  0  0  0  0  0  0
    7.6565    9.5276    4.8420 H   0  0  0  0  0  0  0  0  0  0  0  0
    9.7172    9.5343    1.6086 H   0  0  0  0  0  0  0  0  0  0  0  0
    9.5359    7.2644    3.5367 H   0  0  0  0  0  0  0  0  0  0  0  0
    9.0519    7.2414    1.8101 H   0  0  0  0  0  0  0  0  0  0  0  0
   11.3834    6.3422    2.3586 H   0  0  0  0  0  0  0  0  0  0  0  0
   11.2455    7.5661    1.0536 H   0  0  0  0  0  0  0  0  0  0  0  0
   12.1658    7.9484    3.8826 H   0  0  0  0  0  0  0  0  0  0  0  0
   14.0135    7.0970    3.1296 H   0  0  0  0  0  0  0  0  0  0  0  0
   13.3783    6.3681    0.9250 H   0  0  0  0  0  0  0  0  0  0  0  0
   13.5722    8.0454    0.2658 H   0  0  0  0  0  0  0  0  0  0  0  0
   14.9997    7.1191    0.8644 H   0  0  0  0  0  0  0  0  0  0  0  0
   15.6240    8.7100    2.4896 H   0  0  0  0  0  0  0  0  0  0  0  0
   14.4327    9.8284    2.0315 H   0  0  0  0  0  0  0  0  0  0  0  0
   14.6013    9.3360    3.6675 H   0  0  0  0  0  0  0  0  0  0  0  0
   12.0564   10.2973    2.0326 H   0  0  0  0  0  0  0  0  0  0  0  0
   12.5423   10.2594    3.7576 H   0  0  0  0  0  0  0  0  0  0  0  0
   10.1934   11.1297    3.2939 H   0  0  0  0  0  0  0  0  0  0  0  0
   10.3154    9.8086    4.5070 H   0  0  0  0  0  0  0  0  0  0  0  0
  1  2  1  0
  2  3  2  0
  3  4  1  0
  4  5  1  0
  5  6  2  0
  6  7  1  0
  7  8  1  0
  8  9  2  0
  8 10  1  0
 10 11  1  0
 11 12  1  0
 12 13  1  0
 13 14  1  0
 14 15  1  0
 14 16  1  0
 13 17  1  0
 17 18  1  0
  6  2  1  0
 18 10  1  0
  1 19  1  0
  1 20  1  0
  1 21  1  0
  3 22  1  0
  4 23  1  0
  5 24  1  0
  7 25  1  0
 10 26  1  0
 11 27  1  0
 11 28  1  0
 12 29  1  0
 12 30  1  0
 13 31  1  0
 14 32  1  0
 15 33  1  0
 15 34  1  0
 15 35  1  0
 16 36  1  0
 16 37  1  0
 16 38  1  0
 17 39  1  0
 17 40  1  0
 18 41  1  0
 18 42  1  0
M  CHG  1  16   1
M  END
>  <EmbedRMS>  (91) 
0.25960676527829957

$$$$

     RDKit          3D

 38 39  0  0  0  0  0  0  0  0999 V2000
   13.9842    7.0987    1.1853 C   0  0  0  0  0  0  0  0  0  0  0  0
   13.5812    8.3572    1.9537 C   0  0  0  0  0  0  0  0  0  0  0  0
   14.7119    8.8839    2.7302 N   0  0  0  0  0  4  0  0  0  0  0  0
   12.2765    8.3213    2.7737 C   0  0  0  0  0  0  0  0  0  0  0  0
   11.1597    7.3114    2.3967 C   0  0  0  0  0  0  0  0  0  0  0  0
    9.8012    7.9211    2.0835 C   0  0  0  0  0  0  0  0  0  0  0  0
    9.4166    8.9879    3.1066 C   0  0  0  0  0  0  0  0  0  0  0  0
    8.0125    9.4689    2.8599 C   0  0  0  0  0  0  0  0  0  0  0  0
    7.6232    9.6834    1.6795 O   0  0  0  0  0  0  0  0  0  0  0  0
    7.1436    9.7001    3.9777 N   0  0  0  0  0  0  0  0  0  0  0  0
    5.7812   10.1373    3.8965 C   0  0  0  0  0  0  0  0  0  0  0  0
    5.0590   10.4418    2.7529 C   0  0  0  0  0  0  0  0  0  0  0  0
    3.8212   10.8093    3.2325 C   0  0  0  0  0  0  0  0  0  0  0  0
    3.8279   10.7216    4.5742 N   0  0  0  0  0  0  0  0  0  0  0  0
    5.0150   10.3141    4.9886 N   0  0  0  0  0  0  0  0  0  0  0  0
   10.3981   10.1506    3.0073 C   0  0  0  0  0  0  0  0  0  0  0  0
   11.8327    9.7188    3.3047 C   0  0  0  0  0  0  0  0  0  0  0  0
   13.2929    6.9111    0.3372 H   0  0  0  0  0  0  0  0  0  0  0  0
   15.0005    7.2120    0.7515 H   0  0  0  0  0  0  0  0  0  0  0  0
   13.9876    6.2216    1.8665 H   0  0  0  0  0  0  0  0  0  0  0  0
   13.3808    9.1011    1.1485 H   0  0  0  0  0  0  0  0  0  0  0  0
   14.9955    8.1898    3.4595 H   0  0  0  0  0  0  0  0  0  0  0  0
   14.4928    9.7899    3.1975 H   0  0  0  0  0  0  0  0  0  0  0  0
   15.5292    9.0536    2.0996 H   0  0  0  0  0  0  0  0  0  0  0  0
   12.6593    7.8397    3.7046 H   0  0  0  0  0  0  0  0  0  0  0  0
   11.4436    6.6805    1.5344 H   0  0  0  0  0  0  0  0  0  0  0  0
   11.0047    6.5972    3.2389 H   0  0  0  0  0  0  0  0  0  0  0  0
    9.8330    8.3602    1.0608 H   0  0  0  0  0  0  0  0  0  0  0  0
    9.0379    7.1111    2.0779 H   0  0  0  0  0  0  0  0  0  0  0  0
    9.4755    8.5442    4.1262 H   0  0  0  0  0  0  0  0  0  0  0  0
    7.5254    9.5361    4.9365 H   0  0  0  0  0  0  0  0  0  0  0  0
    5.3557   10.4142    1.7158 H   0  0  0  0  0  0  0  0  0  0  0  0
    2.9703   11.1209    2.6412 H   0  0  0  0  0  0  0  0  0  0  0  0
    3.0273   10.9388    5.2077 H   0  0  0  0  0  0  0  0  0  0  0  0
   10.1052   10.9525    3.7212 H   0  0  0  0  0  0  0  0  0  0  0  0
   10.3568   10.5867    1.9833 H   0  0  0  0  0  0  0  0  0  0  0  0
   12.4776   10.5259    2.8988 H   0  0  0  0  0  0  0  0  0  0  0  0
   11.9660    9.7492    4.4105 H   0  0  0  0  0  0  0  0  0  0  0  0
  1  2  1  0
  2  3  1  0
  2  4  1  0
  4  5  1  0
  5  6  1  0
  6  7  1  0
  7  8  1  0
  8  9  2  0
  8 10  1  0
 10 11  1  0
 11 12  1  0
 12 13  2  0
 13 14  1  0
 14 15  1  0
  7 16  1  0
 16 17  1  0
 17  4  1  0
 15 11  2  0
  1 18  1  0
  1 19  1  0
  1 20  1  0
  2 21  1  0
  3 22  1  0
  3 23  1  0
  3 24  1  0
  4 25  1  0
  5 26  1  0
  5 27  1  0
  6 28  1  0
  6 29  1  0
  7 30  1  0
 10 31  1  0
 12 32  1  0
 13 33  1  0
 14 34  1  0
 16 35  1  0
 16 36  1  0
 17 37  1  0
 17 38  1  0
M  CHG  1   3   1
M  END
>  <EmbedRMS>  (92) 
0.20783527019262546

$$$$

     RDKit          3D

 43 43  0  0  0  0  0  0  0  0999 V2000
    6.4435   12.7934    4.2249 C   0  0  0  0  0  0  0  0  0  0  0  0
    5.8287   11.6204    3.4619 C   0  0  0  0  0  0  0  0  0  0  0  0
    6.0482   10.3602    4.3154 C   0  0  0  0  0  0  0  0  0  0  0  0
    4.7996    9.7680    4.9231 C   0  0  0  0  0  0  0  0  0  0  0  0
    7.0303    9.3771    3.8803 N   0  0  0  0  0  0  0  0  0  0  0  0
    7.9952    9.4698    2.8329 C   0  0  0  0  0  0  0  0  0  0  0  0
    7.6269    9.7505    1.6616 O   0  0  0  0  0  0  0  0  0  0  0  0
    9.4076    9.0017    3.0937 C   0  0  0  0  0  0  0  0  0  0  0  0
    9.7971    7.9237    2.0832 C   0  0  0  0  0  0  0  0  0  0  0  0
   11.1557    7.3147    2.4018 C   0  0  0  0  0  0  0  0  0  0  0  0
   12.2729    8.3254    2.7745 C   0  0  0  0  0  0  0  0  0  0  0  0
   13.5784    8.3588    1.9544 C   0  0  0  0  0  0  0  0  0  0  0  0
   13.9808    7.0998    1.1862 C   0  0  0  0  0  0  0  0  0  0  0  0
   14.7098    8.8846    2.7306 N   0  0  0  0  0  4  0  0  0  0  0  0
   11.8264    9.7235    3.3030 C   0  0  0  0  0  0  0  0  0  0  0  0
   10.3936   10.1595    2.9931 C   0  0  0  0  0  0  0  0  0  0  0  0
    7.5339   12.6379    4.3783 H   0  0  0  0  0  0  0  0  0  0  0  0
    5.9372   12.9432    5.2036 H   0  0  0  0  0  0  0  0  0  0  0  0
    6.3121   13.7215    3.6297 H   0  0  0  0  0  0  0  0  0  0  0  0
    4.7441   11.8152    3.3133 H   0  0  0  0  0  0  0  0  0  0  0  0
    6.2890   11.5531    2.4603 H   0  0  0  0  0  0  0  0  0  0  0  0
    6.5229   10.7015    5.2666 H   0  0  0  0  0  0  0  0  0  0  0  0
    4.2014   10.5529    5.4356 H   0  0  0  0  0  0  0  0  0  0  0  0
    4.1793    9.3143    4.1218 H   0  0  0  0  0  0  0  0  0  0  0  0
    5.0516    8.9773    5.6634 H   0  0  0  0  0  0  0  0  0  0  0  0
    7.1818    8.5848    4.5466 H   0  0  0  0  0  0  0  0  0  0  0  0
    9.4672    8.5742    4.1202 H   0  0  0  0  0  0  0  0  0  0  0  0
    9.8290    8.3532    1.0565 H   0  0  0  0  0  0  0  0  0  0  0  0
    9.0337    7.1137    2.0838 H   0  0  0  0  0  0  0  0  0  0  0  0
   10.9984    6.6064    3.2486 H   0  0  0  0  0  0  0  0  0  0  0  0
   11.4408    6.6778    1.5443 H   0  0  0  0  0  0  0  0  0  0  0  0
   12.6565    7.8465    3.7065 H   0  0  0  0  0  0  0  0  0  0  0  0
   13.3789    9.1028    1.1491 H   0  0  0  0  0  0  0  0  0  0  0  0
   13.2872    6.9109    0.3401 H   0  0  0  0  0  0  0  0  0  0  0  0
   14.9959    7.2135    0.7498 H   0  0  0  0  0  0  0  0  0  0  0  0
   13.9863    6.2235    1.8682 H   0  0  0  0  0  0  0  0  0  0  0  0
   14.9942    8.1894    3.4587 H   0  0  0  0  0  0  0  0  0  0  0  0
   15.5265    9.0555    2.0995 H   0  0  0  0  0  0  0  0  0  0  0  0
   14.4907    9.7897    3.1997 H   0  0  0  0  0  0  0  0  0  0  0  0
   12.4768   10.5295    2.9043 H   0  0  0  0  0  0  0  0  0  0  0  0
   11.9492    9.7522    4.4101 H   0  0  0  0  0  0  0  0  0  0  0  0
   10.0974   10.9668    3.6996 H   0  0  0  0  0  0  0  0  0  0  0  0
   10.3602   10.5886    1.9661 H   0  0  0  0  0  0  0  0  0  0  0  0
  1  2  1  0
  2  3  1  0
  3  4  1  0
  3  5  1  0
  5  6  1  0
  6  7  2  0
  6  8  1  0
  8  9  1  0
  9 10  1  0
 10 11  1  0
 11 12  1  0
 12 13  1  0
 12 14  1  0
 11 15  1  0
 15 16  1  0
 16  8  1  0
  1 17  1  0
  1 18  1  0
  1 19  1  0
  2 20  1  0
  2 21  1  0
  3 22  1  0
  4 23  1  0
  4 24  1  0
  4 25  1  0
  5 26  1  0
  8 27  1  0
  9 28  1  0
  9 29  1  0
 10 30  1  0
 10 31  1  0
 11 32  1  0
 12 33  1  0
 13 34  1  0
 13 35  1  0
 13 36  1  0
 14 37  1  0
 14 38  1  0
 14 39  1  0
 15 40  1  0
 15 41  1  0
 16 42  1  0
 16 43  1  0
M  CHG  1  14   1
M  END
>  <EmbedRMS>  (93) 
0.29993262092162043

$$$$

     RDKit          3D

 42 43  0  0  0  0  0  0  0  0999 V2000
   14.0499    7.2191    1.1050 C   0  0  0  0  0  0  0  0  0  0  0  0
   13.6507    7.9553    2.3992 C   0  0  0  0  0  0  0  0  0  0  0  0
   14.6298    9.0155    2.6714 N   0  0  0  0  0  4  0  0  0  0  0  0
   12.2016    8.5115    2.2736 C   0  0  0  0  0  0  0  0  0  0  0  0
   11.1821    7.3649    2.4346 C   0  0  0  0  0  0  0  0  0  0  0  0
    9.7745    7.8706    2.1532 C   0  0  0  0  0  0  0  0  0  0  0  0
    9.4118    8.9929    3.1301 C   0  0  0  0  0  0  0  0  0  0  0  0
    8.0166    9.4804    2.8666 C   0  0  0  0  0  0  0  0  0  0  0  0
    7.6327    9.6874    1.6831 O   0  0  0  0  0  0  0  0  0  0  0  0
    7.1460    9.7087    3.9808 N   0  0  0  0  0  0  0  0  0  0  0  0
    5.7793   10.1388    3.9052 C   0  0  0  0  0  0  0  0  0  0  0  0
    5.0644   10.4416    2.7555 C   0  0  0  0  0  0  0  0  0  0  0  0
    3.8142   10.8147    3.1974 C   0  0  0  0  0  0  0  0  0  0  0  0
    2.7808   11.1997    2.4141 F   0  0  0  0  0  0  0  0  0  0  0  0
    3.7995   10.7309    4.5717 C   0  0  0  0  0  0  0  0  0  0  0  0
    5.0054   10.3154    4.9984 N   0  0  0  0  0  0  0  0  0  0  0  0
    5.3927   10.1028    6.3895 C   0  0  0  0  0  0  0  0  0  0  0  0
   10.4254   10.1479    3.0652 C   0  0  0  0  0  0  0  0  0  0  0  0
   11.8597    9.6370    3.2815 C   0  0  0  0  0  0  0  0  0  0  0  0
   15.0974    6.8579    1.1809 H   0  0  0  0  0  0  0  0  0  0  0  0
   13.9791    7.8970    0.2276 H   0  0  0  0  0  0  0  0  0  0  0  0
   13.4195    6.3261    0.9275 H   0  0  0  0  0  0  0  0  0  0  0  0
   13.6923    7.2246    3.2393 H   0  0  0  0  0  0  0  0  0  0  0  0
   14.5441    9.7862    1.9689 H   0  0  0  0  0  0  0  0  0  0  0  0
   14.4972    9.3930    3.6372 H   0  0  0  0  0  0  0  0  0  0  0  0
   15.6013    8.6298    2.6305 H   0  0  0  0  0  0  0  0  0  0  0  0
   12.0899    8.9471    1.2537 H   0  0  0  0  0  0  0  0  0  0  0  0
   11.3847    6.5437    1.7189 H   0  0  0  0  0  0  0  0  0  0  0  0
   11.2349    6.9390    3.4615 H   0  0  0  0  0  0  0  0  0  0  0  0
    9.7144    8.2290    1.1010 H   0  0  0  0  0  0  0  0  0  0  0  0
    9.0587    7.0272    2.2718 H   0  0  0  0  0  0  0  0  0  0  0  0
    9.4492    8.5638    4.1571 H   0  0  0  0  0  0  0  0  0  0  0  0
    7.5445    9.5511    4.9326 H   0  0  0  0  0  0  0  0  0  0  0  0
    5.3778   10.4115    1.7237 H   0  0  0  0  0  0  0  0  0  0  0  0
    2.9599   10.9599    5.2156 H   0  0  0  0  0  0  0  0  0  0  0  0
    5.7091    9.0484    6.5346 H   0  0  0  0  0  0  0  0  0  0  0  0
    4.5391   10.3116    7.0694 H   0  0  0  0  0  0  0  0  0  0  0  0
    6.2298   10.7826    6.6542 H   0  0  0  0  0  0  0  0  0  0  0  0
   10.1857   10.8987    3.8497 H   0  0  0  0  0  0  0  0  0  0  0  0
   10.3611   10.6527    2.0754 H   0  0  0  0  0  0  0  0  0  0  0  0
   12.5391   10.5041    3.1426 H   0  0  0  0  0  0  0  0  0  0  0  0
   11.9741    9.2645    4.3234 H   0  0  0  0  0  0  0  0  0  0  0  0
  1  2  1  0
  2  3  1  0
  2  4  1  0
  4  5  1  0
  5  6  1  0
  6  7  1  0
  7  8  1  0
  8  9  2  0
  8 10  1  0
 10 11  1  0
 11 12  2  0
 12 13  1  0
 13 14  1  0
 13 15  2  0
 15 16  1  0
 16 17  1  0
  7 18  1  0
 18 19  1  0
 19  4  1  0
 16 11  1  0
  1 20  1  0
  1 21  1  0
  1 22  1  0
  2 23  1  0
  3 24  1  0
  3 25  1  0
  3 26  1  0
  4 27  1  0
  5 28  1  0
  5 29  1  0
  6 30  1  0
  6 31  1  0
  7 32  1  0
 10 33  1  0
 12 34  1  0
 15 35  1  0
 17 36  1  0
 17 37  1  0
 17 38  1  0
 18 39  1  0
 18 40  1  0
 19 41  1  0
 19 42  1  0
M  CHG  1   3   1
M  END
>  <EmbedRMS>  (94) 
0.02909018866074031

$$$$

     RDKit          3D

 37 37  0  0  0  0  0  0  0  0999 V2000
    4.9010    8.9493    3.3214 C   0  0  0  0  0  0  0  0  0  0  0  0
    5.7477   10.1185    3.8091 C   0  0  0  0  0  0  0  0  0  0  0  0
    7.1378    9.7075    3.9757 N   0  0  0  0  0  0  0  0  0  0  0  0
    8.0091    9.4709    2.8632 C   0  0  0  0  0  0  0  0  0  0  0  0
    7.6090    9.6877    1.6849 O   0  0  0  0  0  0  0  0  0  0  0  0
    9.4140    8.9898    3.1084 C   0  0  0  0  0  0  0  0  0  0  0  0
    9.7981    7.9225    2.0853 C   0  0  0  0  0  0  0  0  0  0  0  0
   11.1578    7.3127    2.3960 C   0  0  0  0  0  0  0  0  0  0  0  0
   12.2752    8.3218    2.7734 C   0  0  0  0  0  0  0  0  0  0  0  0
   13.5805    8.3571    1.9538 C   0  0  0  0  0  0  0  0  0  0  0  0
   13.9836    7.0985    1.1857 C   0  0  0  0  0  0  0  0  0  0  0  0
   14.7111    8.8839    2.7305 N   0  0  0  0  0  4  0  0  0  0  0  0
   11.8317    9.7194    3.3044 C   0  0  0  0  0  0  0  0  0  0  0  0
   10.3968   10.1516    3.0079 C   0  0  0  0  0  0  0  0  0  0  0  0
    4.9738    8.1023    4.0363 H   0  0  0  0  0  0  0  0  0  0  0  0
    5.2401    8.6114    2.3200 H   0  0  0  0  0  0  0  0  0  0  0  0
    3.8390    9.2647    3.2475 H   0  0  0  0  0  0  0  0  0  0  0  0
    5.6836   10.9644    3.0910 H   0  0  0  0  0  0  0  0  0  0  0  0
    5.3476   10.4660    4.7862 H   0  0  0  0  0  0  0  0  0  0  0  0
    7.5181    9.6307    4.9461 H   0  0  0  0  0  0  0  0  0  0  0  0
    9.4709    8.5475    4.1287 H   0  0  0  0  0  0  0  0  0  0  0  0
    9.8276    8.3613    1.0624 H   0  0  0  0  0  0  0  0  0  0  0  0
    9.0349    7.1124    2.0811 H   0  0  0  0  0  0  0  0  0  0  0  0
   11.0040    6.5968    3.2371 H   0  0  0  0  0  0  0  0  0  0  0  0
   11.4410    6.6836    1.5321 H   0  0  0  0  0  0  0  0  0  0  0  0
   12.6575    7.8399    3.7045 H   0  0  0  0  0  0  0  0  0  0  0  0
   13.3805    9.1010    1.1485 H   0  0  0  0  0  0  0  0  0  0  0  0
   15.0000    7.2116    0.7521 H   0  0  0  0  0  0  0  0  0  0  0  0
   13.2924    6.9108    0.3375 H   0  0  0  0  0  0  0  0  0  0  0  0
   13.9867    6.2216    1.8670 H   0  0  0  0  0  0  0  0  0  0  0  0
   14.9942    8.1900    3.4603 H   0  0  0  0  0  0  0  0  0  0  0  0
   14.4920    9.7901    3.1973 H   0  0  0  0  0  0  0  0  0  0  0  0
   15.5287    9.0531    2.1001 H   0  0  0  0  0  0  0  0  0  0  0  0
   12.4766   10.5261    2.8979 H   0  0  0  0  0  0  0  0  0  0  0  0
   11.9658    9.7500    4.4102 H   0  0  0  0  0  0  0  0  0  0  0  0
   10.3549   10.5873    1.9838 H   0  0  0  0  0  0  0  0  0  0  0  0
   10.1049   10.9541    3.7216 H   0  0  0  0  0  0  0  0  0  0  0  0
  1  2  1  0
  2  3  1  0
  3  4  1  0
  4  5  2  0
  4  6  1  0
  6  7  1  0
  7  8  1  0
  8  9  1  0
  9 10  1  0
 10 11  1  0
 10 12  1  0
  9 13  1  0
 13 14  1  0
 14  6  1  0
  1 15  1  0
  1 16  1  0
  1 17  1  0
  2 18  1  0
  2 19  1  0
  3 20  1  0
  6 21  1  0
  7 22  1  0
  7 23  1  0
  8 24  1  0
  8 25  1  0
  9 26  1  0
 10 27  1  0
 11 28  1  0
 11 29  1  0
 11 30  1  0
 12 31  1  0
 12 32  1  0
 12 33  1  0
 13 34  1  0
 13 35  1  0
 14 36  1  0
 14 37  1  0
M  CHG  1  12   1
M  END
>  <EmbedRMS>  (95) 
0.22880006867790334

$$$$

     RDKit          3D

 40 41  0  0  0  0  0  0  0  0999 V2000
    2.5979   11.0607    5.6135 C   0  0  0  0  0  0  0  0  0  0  0  0
    3.6665   10.7752    4.6126 C   0  0  0  0  0  0  0  0  0  0  0  0
    4.9509   10.3355    4.9950 C   0  0  0  0  0  0  0  0  0  0  0  0
    5.7883   10.1370    3.9111 C   0  0  0  0  0  0  0  0  0  0  0  0
    7.1490    9.6984    3.9884 N   0  0  0  0  0  0  0  0  0  0  0  0
    8.0079    9.4702    2.8634 C   0  0  0  0  0  0  0  0  0  0  0  0
    7.6060    9.6872    1.6865 O   0  0  0  0  0  0  0  0  0  0  0  0
    9.4147    8.9892    3.1030 C   0  0  0  0  0  0  0  0  0  0  0  0
    9.7989    7.9230    2.0801 C   0  0  0  0  0  0  0  0  0  0  0  0
   11.1577    7.3126    2.3941 C   0  0  0  0  0  0  0  0  0  0  0  0
   12.2750    8.3216    2.7727 C   0  0  0  0  0  0  0  0  0  0  0  0
   13.5805    8.3572    1.9536 C   0  0  0  0  0  0  0  0  0  0  0  0
   13.9839    7.0986    1.1855 C   0  0  0  0  0  0  0  0  0  0  0  0
   14.7109    8.8838    2.7308 N   0  0  0  0  0  4  0  0  0  0  0  0
   11.8312    9.7192    3.3036 C   0  0  0  0  0  0  0  0  0  0  0  0
   10.3967   10.1516    3.0052 C   0  0  0  0  0  0  0  0  0  0  0  0
    4.8945   10.5210    2.5560 S   0  0  0  0  0  0  0  0  0  0  0  0
    3.4563   10.9385    3.2781 N   0  0  0  0  0  0  0  0  0  0  0  0
    2.4432   10.1726    6.2616 H   0  0  0  0  0  0  0  0  0  0  0  0
    2.8979   11.9252    6.2420 H   0  0  0  0  0  0  0  0  0  0  0  0
    1.6421   11.3014    5.1019 H   0  0  0  0  0  0  0  0  0  0  0  0
    5.2503   10.1713    6.0223 H   0  0  0  0  0  0  0  0  0  0  0  0
    7.5374    9.5313    4.9440 H   0  0  0  0  0  0  0  0  0  0  0  0
    9.4768    8.5439    4.1218 H   0  0  0  0  0  0  0  0  0  0  0  0
    9.0352    7.1133    2.0742 H   0  0  0  0  0  0  0  0  0  0  0  0
    9.8305    8.3627    1.0577 H   0  0  0  0  0  0  0  0  0  0  0  0
   11.0019    6.5977    3.2356 H   0  0  0  0  0  0  0  0  0  0  0  0
   11.4421    6.6823    1.5314 H   0  0  0  0  0  0  0  0  0  0  0  0
   12.6567    7.8395    3.7038 H   0  0  0  0  0  0  0  0  0  0  0  0
   13.3809    9.1011    1.1483 H   0  0  0  0  0  0  0  0  0  0  0  0
   15.0005    7.2117    0.7524 H   0  0  0  0  0  0  0  0  0  0  0  0
   13.2931    6.9112    0.3369 H   0  0  0  0  0  0  0  0  0  0  0  0
   13.9865    6.2216    1.8667 H   0  0  0  0  0  0  0  0  0  0  0  0
   15.5288    9.0530    2.1008 H   0  0  0  0  0  0  0  0  0  0  0  0
   14.9937    8.1898    3.4606 H   0  0  0  0  0  0  0  0  0  0  0  0
   14.4917    9.7900    3.1976 H   0  0  0  0  0  0  0  0  0  0  0  0
   12.4767   10.5261    2.8981 H   0  0  0  0  0  0  0  0  0  0  0  0
   11.9639    9.7495    4.4095 H   0  0  0  0  0  0  0  0  0  0  0  0
   10.1035   10.9531    3.7195 H   0  0  0  0  0  0  0  0  0  0  0  0
   10.3559   10.5883    1.9816 H   0  0  0  0  0  0  0  0  0  0  0  0
  1  2  1  0
  2  3  1  0
  3  4  2  0
  4  5  1  0
  5  6  1  0
  6  7  2  0
  6  8  1  0
  8  9  1  0
  9 10  1  0
 10 11  1  0
 11 12  1  0
 12 13  1  0
 12 14  1  0
 11 15  1  0
 15 16  1  0
  4 17  1  0
 17 18  1  0
 18  2  2  0
 16  8  1  0
  1 19  1  0
  1 20  1  0
  1 21  1  0
  3 22  1  0
  5 23  1  0
  8 24  1  0
  9 25  1  0
  9 26  1  0
 10 27  1  0
 10 28  1  0
 11 29  1  0
 12 30  1  0
 13 31  1  0
 13 32  1  0
 13 33  1  0
 14 34  1  0
 14 35  1  0
 14 36  1  0
 15 37  1  0
 15 38  1  0
 16 39  1  0
 16 40  1  0
M  CHG  1  14   1
M  END
>  <EmbedRMS>  (96) 
0.20198796152370316

$$$$

     RDKit          3D

 39 39  0  0  0  0  0  0  0  0999 V2000
   13.9836    7.0977    1.1855 C   0  0  0  0  0  0  0  0  0  0  0  0
   13.5804    8.3563    1.9534 C   0  0  0  0  0  0  0  0  0  0  0  0
   14.7107    8.8831    2.7305 N   0  0  0  0  0  4  0  0  0  0  0  0
   12.2747    8.3209    2.7724 C   0  0  0  0  0  0  0  0  0  0  0  0
   11.1563    7.3133    2.3935 C   0  0  0  0  0  0  0  0  0  0  0  0
    9.7968    7.9247    2.0829 C   0  0  0  0  0  0  0  0  0  0  0  0
    9.4128    8.9902    3.1075 C   0  0  0  0  0  0  0  0  0  0  0  0
    8.0069    9.4756    2.8657 C   0  0  0  0  0  0  0  0  0  0  0  0
    7.6013    9.6868    1.6881 O   0  0  0  0  0  0  0  0  0  0  0  0
    7.1415    9.7152    3.9842 N   0  0  0  0  0  0  0  0  0  0  0  0
    5.8048   10.2100    3.8502 C   0  0  0  0  0  0  0  0  0  0  0  0
    5.4932   11.3776    3.2688 C   0  0  0  0  0  0  0  0  0  0  0  0
    6.4537   12.3353    2.7976 N   0  0  0  0  0  0  0  0  0  0  0  0
    7.7636   12.4037    3.2989 N   0  0  0  0  0  0  0  0  0  0  0  0
   10.3973   10.1512    3.0106 C   0  0  0  0  0  0  0  0  0  0  0  0
   11.8326    9.7184    3.3035 C   0  0  0  0  0  0  0  0  0  0  0  0
   13.2928    6.9100    0.3371 H   0  0  0  0  0  0  0  0  0  0  0  0
   13.9862    6.2208    1.8669 H   0  0  0  0  0  0  0  0  0  0  0  0
   15.0002    7.2105    0.7523 H   0  0  0  0  0  0  0  0  0  0  0  0
   13.3809    9.1000    1.1479 H   0  0  0  0  0  0  0  0  0  0  0  0
   14.4919    9.7898    3.1965 H   0  0  0  0  0  0  0  0  0  0  0  0
   14.9930    8.1896    3.4610 H   0  0  0  0  0  0  0  0  0  0  0  0
   15.5289    9.0515    2.1006 H   0  0  0  0  0  0  0  0  0  0  0  0
   12.6561    7.8379    3.7032 H   0  0  0  0  0  0  0  0  0  0  0  0
   11.0016    6.5966    3.2337 H   0  0  0  0  0  0  0  0  0  0  0  0
   11.4393    6.6852    1.5289 H   0  0  0  0  0  0  0  0  0  0  0  0
    9.0330    7.1152    2.0768 H   0  0  0  0  0  0  0  0  0  0  0  0
    9.8270    8.3658    1.0611 H   0  0  0  0  0  0  0  0  0  0  0  0
    9.4725    8.5458    4.1266 H   0  0  0  0  0  0  0  0  0  0  0  0
    7.4058    9.3124    4.9108 H   0  0  0  0  0  0  0  0  0  0  0  0
    5.0003    9.6190    4.2700 H   0  0  0  0  0  0  0  0  0  0  0  0
    4.4437   11.6224    3.1616 H   0  0  0  0  0  0  0  0  0  0  0  0
    6.1148   13.0849    2.1524 H   0  0  0  0  0  0  0  0  0  0  0  0
    7.6956   12.6577    4.3106 H   0  0  0  0  0  0  0  0  0  0  0  0
    8.2473   13.1982    2.8217 H   0  0  0  0  0  0  0  0  0  0  0  0
   10.1102   10.9486    3.7310 H   0  0  0  0  0  0  0  0  0  0  0  0
   10.3527   10.5935    1.9895 H   0  0  0  0  0  0  0  0  0  0  0  0
   12.4764   10.5249    2.8948 H   0  0  0  0  0  0  0  0  0  0  0  0
   11.9701    9.7497    4.4088 H   0  0  0  0  0  0  0  0  0  0  0  0
  1  2  1  0
  2  3  1  0
  2  4  1  0
  4  5  1  0
  5  6  1  0
  6  7  1  0
  7  8  1  0
  8  9  2  0
  8 10  1  0
 10 11  1  0
 11 12  2  3
 12 13  1  0
 13 14  1  0
  7 15  1  0
 15 16  1  0
 16  4  1  0
  1 17  1  0
  1 18  1  0
  1 19  1  0
  2 20  1  0
  3 21  1  0
  3 22  1  0
  3 23  1  0
  4 24  1  0
  5 25  1  0
  5 26  1  0
  6 27  1  0
  6 28  1  0
  7 29  1  0
 10 30  1  0
 11 31  1  0
 12 32  1  0
 13 33  1  0
 14 34  1  0
 14 35  1  0
 15 36  1  0
 15 37  1  0
 16 38  1  0
 16 39  1  0
M  CHG  1   3   1
M  END
>  <EmbedRMS>  (97) 
0.2141533042732473

$$$$

     RDKit          3D

 40 40  0  0  0  0  0  0  0  0999 V2000
   13.9238    7.3281    1.0387 C   0  0  0  0  0  0  0  0  0  0  0  0
   13.7084    7.9210    2.4415 C   0  0  0  0  0  0  0  0  0  0  0  0
   14.6430    9.0270    2.6700 N   0  0  0  0  0  4  0  0  0  0  0  0
   12.2304    8.2933    2.8214 C   0  0  0  0  0  0  0  0  0  0  0  0
   11.1757    7.4148    2.1501 C   0  0  0  0  0  0  0  0  0  0  0  0
    9.7374    7.7229    2.5356 C   0  0  0  0  0  0  0  0  0  0  0  0
    9.4532    9.2029    2.6242 C   0  0  0  0  0  0  0  0  0  0  0  0
    7.9930    9.5336    2.7195 C   0  0  0  0  0  0  0  0  0  0  0  0
    7.4143    9.6778    1.6162 O   0  0  0  0  0  0  0  0  0  0  0  0
    7.2348    9.6886    3.9308 N   0  0  0  0  0  0  0  0  0  0  0  0
    5.8470   10.1702    3.8752 C   0  0  0  0  0  0  0  0  0  0  0  0
    5.8242   11.6584    3.6219 C   0  0  0  0  0  0  0  0  0  0  0  0
    5.7732   12.1629    2.2848 N   0  0  0  0  0  0  0  0  0  0  0  0
    5.9467   12.4947    4.6052 N   0  0  0  0  0  4  0  0  0  0  0  0
   10.4247   10.0504    3.4142 C   0  0  0  0  0  0  0  0  0  0  0  0
   11.8797    9.7840    2.9969 C   0  0  0  0  0  0  0  0  0  0  0  0
   13.3798    6.3671    0.9253 H   0  0  0  0  0  0  0  0  0  0  0  0
   15.0009    7.1186    0.8658 H   0  0  0  0  0  0  0  0  0  0  0  0
   13.5738    8.0443    0.2655 H   0  0  0  0  0  0  0  0  0  0  0  0
   14.0122    7.0971    3.1303 H   0  0  0  0  0  0  0  0  0  0  0  0
   14.4343    9.8271    2.0298 H   0  0  0  0  0  0  0  0  0  0  0  0
   14.5984    9.3376    3.6672 H   0  0  0  0  0  0  0  0  0  0  0  0
   15.6239    8.7089    2.4931 H   0  0  0  0  0  0  0  0  0  0  0  0
   12.1637    7.9502    3.8812 H   0  0  0  0  0  0  0  0  0  0  0  0
   11.2487    7.5623    1.0510 H   0  0  0  0  0  0  0  0  0  0  0  0
   11.3822    6.3417    2.3595 H   0  0  0  0  0  0  0  0  0  0  0  0
    9.0529    7.2381    1.8037 H   0  0  0  0  0  0  0  0  0  0  0  0
    9.5332    7.2722    3.5314 H   0  0  0  0  0  0  0  0  0  0  0  0
    9.7047    9.5352    1.5862 H   0  0  0  0  0  0  0  0  0  0  0  0
    7.6852    9.5007    4.8542 H   0  0  0  0  0  0  0  0  0  0  0  0
    5.3426    9.9455    4.8398 H   0  0  0  0  0  0  0  0  0  0  0  0
    5.2816    9.6309    3.0848 H   0  0  0  0  0  0  0  0  0  0  0  0
    5.6166   11.5231    1.4756 H   0  0  0  0  0  0  0  0  0  0  0  0
    5.8366   13.1897    2.1049 H   0  0  0  0  0  0  0  0  0  0  0  0
    6.0312   12.1734    5.5956 H   0  0  0  0  0  0  0  0  0  0  0  0
    6.0311   12.1729    5.5954 H   0  0  0  0  0  0  0  0  0  0  0  0
   10.3082    9.8086    4.4928 H   0  0  0  0  0  0  0  0  0  0  0  0
   10.1925   11.1302    3.2796 H   0  0  0  0  0  0  0  0  0  0  0  0
   12.5382   10.2606    3.7536 H   0  0  0  0  0  0  0  0  0  0  0  0
   12.0592   10.2954    2.0263 H   0  0  0  0  0  0  0  0  0  0  0  0
  1  2  1  0
  2  3  1  0
  2  4  1  0
  4  5  1  0
  5  6  1  0
  6  7  1  0
  7  8  1  0
  8  9  2  0
  8 10  1  0
 10 11  1  0
 11 12  1  0
 12 13  1  0
 12 14  2  3
  7 15  1  0
 15 16  1  0
 16  4  1  0
  1 17  1  0
  1 18  1  0
  1 19  1  0
  2 20  1  0
  3 21  1  0
  3 22  1  0
  3 23  1  0
  4 24  1  0
  5 25  1  0
  5 26  1  0
  6 27  1  0
  6 28  1  0
  7 29  1  0
 10 30  1  0
 11 31  1  0
 11 32  1  0
 13 33  1  0
 13 34  1  0
 14 35  1  0
 14 36  1  0
 15 37  1  0
 15 38  1  0
 16 39  1  0
 16 40  1  0
M  CHG  2   3   1  14   1
M  END
>  <EmbedRMS>  (98) 
0.2782345982766255

$$$$

     RDKit          3D

 38 38  0  0  0  0  0  0  0  0999 V2000
   13.9325    7.3332    1.0256 C   0  0  0  0  0  0  0  0  0  0  0  0
   13.7106    7.9154    2.4298 C   0  0  0  0  0  0  0  0  0  0  0  0
   14.6484    9.0174    2.6729 N   0  0  0  0  0  4  0  0  0  0  0  0
   12.2337    8.2987    2.7970 C   0  0  0  0  0  0  0  0  0  0  0  0
   11.1488    7.3131    2.3242 C   0  0  0  0  0  0  0  0  0  0  0  0
    9.7878    7.9331    2.0731 C   0  0  0  0  0  0  0  0  0  0  0  0
    9.4205    8.9808    3.1178 C   0  0  0  0  0  0  0  0  0  0  0  0
    8.0120    9.4608    2.8670 C   0  0  0  0  0  0  0  0  0  0  0  0
    7.6317    9.6699    1.6830 O   0  0  0  0  0  0  0  0  0  0  0  0
    7.1428    9.7060    3.9825 N   0  0  0  0  0  0  0  0  0  0  0  0
    5.7515   10.0922    3.9306 C   0  0  0  0  0  0  0  0  0  0  0  0
    5.1207   10.3044    5.0966 C   0  0  0  0  0  0  0  0  0  0  0  0
    3.4192   10.7301    5.2264 Cl  0  0  0  0  0  0  0  0  0  0  0  0
    4.9833   10.1714    2.6281 C   0  0  0  0  0  0  0  0  0  0  0  0
    4.4166    8.5496    2.1607 Cl  0  0  0  0  0  0  0  0  0  0  0  0
   10.3920   10.1660    3.0652 C   0  0  0  0  0  0  0  0  0  0  0  0
   11.8846    9.7889    2.9927 C   0  0  0  0  0  0  0  0  0  0  0  0
   13.5391    6.2974    0.9566 H   0  0  0  0  0  0  0  0  0  0  0  0
   13.4392    7.9746    0.2648 H   0  0  0  0  0  0  0  0  0  0  0  0
   15.0166    7.2780    0.7901 H   0  0  0  0  0  0  0  0  0  0  0  0
   14.0085    7.0855    3.1154 H   0  0  0  0  0  0  0  0  0  0  0  0
   14.5414    9.3807    3.6471 H   0  0  0  0  0  0  0  0  0  0  0  0
   14.5074    9.7879    1.9807 H   0  0  0  0  0  0  0  0  0  0  0  0
   15.6318    8.6718    2.5823 H   0  0  0  0  0  0  0  0  0  0  0  0
   12.2390    8.0318    3.8823 H   0  0  0  0  0  0  0  0  0  0  0  0
   11.4336    6.8260    1.3732 H   0  0  0  0  0  0  0  0  0  0  0  0
   11.0321    6.4825    3.0591 H   0  0  0  0  0  0  0  0  0  0  0  0
    9.7967    8.4021    1.0626 H   0  0  0  0  0  0  0  0  0  0  0  0
    9.0232    7.1241    2.0609 H   0  0  0  0  0  0  0  0  0  0  0  0
    9.4795    8.5078    4.1237 H   0  0  0  0  0  0  0  0  0  0  0  0
    7.5763    9.5961    4.9281 H   0  0  0  0  0  0  0  0  0  0  0  0
    5.6635   10.2190    6.0296 H   0  0  0  0  0  0  0  0  0  0  0  0
    4.0947   10.8281    2.7112 H   0  0  0  0  0  0  0  0  0  0  0  0
    5.5666   10.6410    1.8176 H   0  0  0  0  0  0  0  0  0  0  0  0
   10.2189   10.8077    3.9575 H   0  0  0  0  0  0  0  0  0  0  0  0
   10.1490   10.7927    2.1765 H   0  0  0  0  0  0  0  0  0  0  0  0
   12.3091   10.3438    2.1292 H   0  0  0  0  0  0  0  0  0  0  0  0
   12.3942   10.1963    3.8958 H   0  0  0  0  0  0  0  0  0  0  0  0
  1  2  1  0
  2  3  1  0
  2  4  1  0
  4  5  1  0
  5  6  1  0
  6  7  1  0
  7  8  1  0
  8  9  2  0
  8 10  1  0
 10 11  1  0
 11 12  2  3
 12 13  1  0
 11 14  1  0
 14 15  1  0
  7 16  1  0
 16 17  1  0
 17  4  1  0
  1 18  1  0
  1 19  1  0
  1 20  1  0
  2 21  1  0
  3 22  1  0
  3 23  1  0
  3 24  1  0
  4 25  1  0
  5 26  1  0
  5 27  1  0
  6 28  1  0
  6 29  1  0
  7 30  1  0
 10 31  1  0
 12 32  1  0
 14 33  1  0
 14 34  1  0
 16 35  1  0
 16 36  1  0
 17 37  1  0
 17 38  1  0
M  CHG  1   3   1
M  END
>  <EmbedRMS>  (99) 
0.16956402485260066

$$$$

     RDKit          3D

 34 34  0  0  0  0  0  0  0  0999 V2000
    5.8329   10.1084    3.8848 C   0  0  0  0  0  0  0  0  0  0  0  0
    7.2300    9.6721    3.9456 N   0  0  0  0  0  0  0  0  0  0  0  0
    7.9825    9.5176    2.7336 C   0  0  0  0  0  0  0  0  0  0  0  0
    7.4038    9.6808    1.6309 O   0  0  0  0  0  0  0  0  0  0  0  0
    9.4450    9.1949    2.6523 C   0  0  0  0  0  0  0  0  0  0  0  0
    9.7659    7.7145    2.4310 C   0  0  0  0  0  0  0  0  0  0  0  0
   11.2645    7.3643    2.5394 C   0  0  0  0  0  0  0  0  0  0  0  0
   12.1440    8.5865    2.2316 C   0  0  0  0  0  0  0  0  0  0  0  0
   13.6550    8.3396    1.9330 C   0  0  0  0  0  0  0  0  0  0  0  0
   14.0142    7.0445    1.2245 C   0  0  0  0  0  0  0  0  0  0  0  0
   14.6175    8.7737    2.9400 N   0  0  0  0  0  4  0  0  0  0  0  0
   11.8902    9.6847    3.2842 C   0  0  0  0  0  0  0  0  0  0  0  0
   10.4057   10.0818    3.4290 C   0  0  0  0  0  0  0  0  0  0  0  0
    5.7674   11.1015    3.3922 H   0  0  0  0  0  0  0  0  0  0  0  0
    5.4215   10.1915    4.9127 H   0  0  0  0  0  0  0  0  0  0  0  0
    5.2299    9.3684    3.3173 H   0  0  0  0  0  0  0  0  0  0  0  0
    7.6848    9.4991    4.8697 H   0  0  0  0  0  0  0  0  0  0  0  0
    9.6804    9.5858    1.6329 H   0  0  0  0  0  0  0  0  0  0  0  0
    9.2153    7.1145    3.1879 H   0  0  0  0  0  0  0  0  0  0  0  0
    9.3849    7.3947    1.4340 H   0  0  0  0  0  0  0  0  0  0  0  0
   11.4945    7.0012    3.5653 H   0  0  0  0  0  0  0  0  0  0  0  0
   11.4746    6.5314    1.8369 H   0  0  0  0  0  0  0  0  0  0  0  0
   11.7511    8.9795    1.2646 H   0  0  0  0  0  0  0  0  0  0  0  0
   13.8453    9.0650    1.1029 H   0  0  0  0  0  0  0  0  0  0  0  0
   15.0594    7.0787    0.8480 H   0  0  0  0  0  0  0  0  0  0  0  0
   13.3413    6.8737    0.3566 H   0  0  0  0  0  0  0  0  0  0  0  0
   13.9245    6.1932    1.9314 H   0  0  0  0  0  0  0  0  0  0  0  0
   15.5929    8.5546    2.6319 H   0  0  0  0  0  0  0  0  0  0  0  0
   14.5663    9.8048    3.1021 H   0  0  0  0  0  0  0  0  0  0  0  0
   14.4328    8.2662    3.8350 H   0  0  0  0  0  0  0  0  0  0  0  0
   12.2711    9.3420    4.2714 H   0  0  0  0  0  0  0  0  0  0  0  0
   12.4559   10.5993    3.0033 H   0  0  0  0  0  0  0  0  0  0  0  0
   10.1327   10.0263    4.5050 H   0  0  0  0  0  0  0  0  0  0  0  0
   10.2681   11.1447    3.1242 H   0  0  0  0  0  0  0  0  0  0  0  0
  1  2  1  0
  2  3  1  0
  3  4  2  0
  3  5  1  0
  5  6  1  0
  6  7  1  0
  7  8  1  0
  8  9  1  0
  9 10  1  0
  9 11  1  0
  8 12  1  0
 12 13  1  0
 13  5  1  0
  1 14  1  0
  1 15  1  0
  1 16  1  0
  2 17  1  0
  5 18  1  0
  6 19  1  0
  6 20  1  0
  7 21  1  0
  7 22  1  0
  8 23  1  0
  9 24  1  0
 10 25  1  0
 10 26  1  0
 10 27  1  0
 11 28  1  0
 11 29  1  0
 11 30  1  0
 12 31  1  0
 12 32  1  0
 13 33  1  0
 13 34  1  0
M  CHG  1  11   1
M  END
>  <EmbedRMS>  (100) 
0.29639754771625826

$$$$

     RDKit          3D

 41 42  0  0  0  0  0  0  0  0999 V2000
   14.0155    7.0452    1.2243 C   0  0  0  0  0  0  0  0  0  0  0  0
   13.6577    8.3402    1.9340 C   0  0  0  0  0  0  0  0  0  0  0  0
   14.6213    8.7734    2.9399 N   0  0  0  0  0  4  0  0  0  0  0  0
   12.1479    8.5868    2.2358 C   0  0  0  0  0  0  0  0  0  0  0  0
   11.2708    7.3634    2.5450 C   0  0  0  0  0  0  0  0  0  0  0  0
    9.7738    7.7130    2.4384 C   0  0  0  0  0  0  0  0  0  0  0  0
    9.4545    9.1902    2.6817 C   0  0  0  0  0  0  0  0  0  0  0  0
    7.9930    9.5119    2.7236 C   0  0  0  0  0  0  0  0  0  0  0  0
    7.4746    9.6077    1.5899 O   0  0  0  0  0  0  0  0  0  0  0  0
    7.1920    9.7025    3.9130 N   0  0  0  0  0  0  0  0  0  0  0  0
    5.8002   10.1396    3.9098 C   0  0  0  0  0  0  0  0  0  0  0  0
    5.1136   10.2622    5.1332 C   0  0  0  0  0  0  0  0  0  0  0  0
    3.7791   10.6918    5.1678 C   0  0  0  0  0  0  0  0  0  0  0  0
    3.1050   10.9965    3.9846 C   0  0  0  0  0  0  0  0  0  0  0  0
    3.7620   10.8848    2.7663 C   0  0  0  0  0  0  0  0  0  0  0  0
    5.0915   10.4774    2.7238 C   0  0  0  0  0  0  0  0  0  0  0  0
   10.4123   10.0785    3.4530 C   0  0  0  0  0  0  0  0  0  0  0  0
   11.8967    9.6862    3.2904 C   0  0  0  0  0  0  0  0  0  0  0  0
   13.3412    6.8748    0.3575 H   0  0  0  0  0  0  0  0  0  0  0  0
   15.0600    7.0795    0.8460 H   0  0  0  0  0  0  0  0  0  0  0  0
   13.9272    6.1936    1.9310 H   0  0  0  0  0  0  0  0  0  0  0  0
   13.8472    9.0661    1.1041 H   0  0  0  0  0  0  0  0  0  0  0  0
   14.4394    8.2635    3.8342 H   0  0  0  0  0  0  0  0  0  0  0  0
   14.5690    9.8041    3.1044 H   0  0  0  0  0  0  0  0  0  0  0  0
   15.5964    8.5564    2.6293 H   0  0  0  0  0  0  0  0  0  0  0  0
   11.7549    8.9789    1.2687 H   0  0  0  0  0  0  0  0  0  0  0  0
   11.4801    6.5302    1.8427 H   0  0  0  0  0  0  0  0  0  0  0  0
   11.5022    7.0014    3.5710 H   0  0  0  0  0  0  0  0  0  0  0  0
    9.3960    7.4069    1.4357 H   0  0  0  0  0  0  0  0  0  0  0  0
    9.2216    7.1022    3.1855 H   0  0  0  0  0  0  0  0  0  0  0  0
    9.7131    9.5882    1.6698 H   0  0  0  0  0  0  0  0  0  0  0  0
    7.6559    9.5263    4.8324 H   0  0  0  0  0  0  0  0  0  0  0  0
    5.6153   10.0259    6.0630 H   0  0  0  0  0  0  0  0  0  0  0  0
    3.2672   10.7820    6.1172 H   0  0  0  0  0  0  0  0  0  0  0  0
    2.0739   11.3242    4.0170 H   0  0  0  0  0  0  0  0  0  0  0  0
    3.2415   11.1383    1.8510 H   0  0  0  0  0  0  0  0  0  0  0  0
    5.5040   10.4952    1.7386 H   0  0  0  0  0  0  0  0  0  0  0  0
   10.1475   10.0136    4.5305 H   0  0  0  0  0  0  0  0  0  0  0  0
   10.2671   11.1433    3.1573 H   0  0  0  0  0  0  0  0  0  0  0  0
   12.4562   10.6027    3.0029 H   0  0  0  0  0  0  0  0  0  0  0  0
   12.2889    9.3466    4.2742 H   0  0  0  0  0  0  0  0  0  0  0  0
  1  2  1  0
  2  3  1  0
  2  4  1  0
  4  5  1  0
  5  6  1  0
  6  7  1  0
  7  8  1  0
  8  9  2  0
  8 10  1  0
 10 11  1  0
 11 12  2  0
 12 13  1  0
 13 14  2  0
 14 15  1  0
 15 16  2  0
  7 17  1  0
 17 18  1  0
 18  4  1  0
 16 11  1  0
  1 19  1  0
  1 20  1  0
  1 21  1  0
  2 22  1  0
  3 23  1  0
  3 24  1  0
  3 25  1  0
  4 26  1  0
  5 27  1  0
  5 28  1  0
  6 29  1  0
  6 30  1  0
  7 31  1  0
 10 32  1  0
 12 33  1  0
 13 34  1  0
 14 35  1  0
 15 36  1  0
 16 37  1  0
 17 38  1  0
 17 39  1  0
 18 40  1  0
 18 41  1  0
M  CHG  1   3   1
M  END
>  <EmbedRMS>  (101) 
0.24964892458419108

$$$$

     RDKit          3D

 43 44  0  0  0  0  0  0  0  0999 V2000
   14.0134    7.0450    1.2246 C   0  0  0  0  0  0  0  0  0  0  0  0
   13.6542    8.3401    1.9333 C   0  0  0  0  0  0  0  0  0  0  0  0
   14.6173    8.7741    2.9397 N   0  0  0  0  0  4  0  0  0  0  0  0
   12.1431    8.5871    2.2329 C   0  0  0  0  0  0  0  0  0  0  0  0
   11.2641    7.3646    2.5408 C   0  0  0  0  0  0  0  0  0  0  0  0
    9.7655    7.7147    2.4337 C   0  0  0  0  0  0  0  0  0  0  0  0
    9.4437    9.1939    2.6629 C   0  0  0  0  0  0  0  0  0  0  0  0
    7.9804    9.5185    2.7350 C   0  0  0  0  0  0  0  0  0  0  0  0
    7.4133    9.6743    1.6246 O   0  0  0  0  0  0  0  0  0  0  0  0
    7.2101    9.6866    3.9373 N   0  0  0  0  0  0  0  0  0  0  0  0
    5.8079   10.1133    3.8144 C   0  0  0  0  0  0  0  0  0  0  0  0
    5.1538   10.2714    5.1492 C   0  0  0  0  0  0  0  0  0  0  0  0
    4.4718    9.2849    5.7620 N   0  0  0  0  0  0  0  0  0  0  0  0
    4.1072    9.8685    6.9253 C   0  0  0  0  0  0  0  0  0  0  0  0
    4.5417   11.1409    7.0242 N   0  0  0  0  0  0  0  0  0  0  0  0
    5.2010   11.3813    5.9065 N   0  0  0  0  0  0  0  0  0  0  0  0
    5.8353   12.6534    5.5829 C   0  0  0  0  0  0  0  0  0  0  0  0
   10.4056   10.0818    3.4356 C   0  0  0  0  0  0  0  0  0  0  0  0
   11.8902    9.6850    3.2864 C   0  0  0  0  0  0  0  0  0  0  0  0
   13.3401    6.8741    0.3570 H   0  0  0  0  0  0  0  0  0  0  0  0
   13.9241    6.1936    1.9315 H   0  0  0  0  0  0  0  0  0  0  0  0
   15.0583    7.0793    0.8476 H   0  0  0  0  0  0  0  0  0  0  0  0
   13.8439    9.0655    1.1032 H   0  0  0  0  0  0  0  0  0  0  0  0
   15.5926    8.5556    2.6309 H   0  0  0  0  0  0  0  0  0  0  0  0
   14.4335    8.2663    3.8347 H   0  0  0  0  0  0  0  0  0  0  0  0
   14.5658    9.8051    3.1022 H   0  0  0  0  0  0  0  0  0  0  0  0
   11.7496    8.9805    1.2663 H   0  0  0  0  0  0  0  0  0  0  0  0
   11.4737    6.5320    1.8378 H   0  0  0  0  0  0  0  0  0  0  0  0
   11.4949    7.0012    3.5664 H   0  0  0  0  0  0  0  0  0  0  0  0
    9.3848    7.3993    1.4350 H   0  0  0  0  0  0  0  0  0  0  0  0
    9.2148    7.1108    3.1875 H   0  0  0  0  0  0  0  0  0  0  0  0
    9.6829    9.5863    1.6449 H   0  0  0  0  0  0  0  0  0  0  0  0
    7.6558    9.5381    4.8707 H   0  0  0  0  0  0  0  0  0  0  0  0
    5.2436    9.3553    3.2291 H   0  0  0  0  0  0  0  0  0  0  0  0
    5.7572   11.0764    3.2627 H   0  0  0  0  0  0  0  0  0  0  0  0
    3.5302    9.3698    7.6922 H   0  0  0  0  0  0  0  0  0  0  0  0
    5.2848   13.1450    4.7538 H   0  0  0  0  0  0  0  0  0  0  0  0
    6.8894   12.4828    5.2779 H   0  0  0  0  0  0  0  0  0  0  0  0
    5.8248   13.3227    6.4692 H   0  0  0  0  0  0  0  0  0  0  0  0
   10.1348   10.0263    4.5122 H   0  0  0  0  0  0  0  0  0  0  0  0
   10.2664   11.1448    3.1315 H   0  0  0  0  0  0  0  0  0  0  0  0
   12.2734    9.3423    4.2727 H   0  0  0  0  0  0  0  0  0  0  0  0
   12.4548   10.6000    3.0047 H   0  0  0  0  0  0  0  0  0  0  0  0
  1  2  1  0
  2  3  1  0
  2  4  1  0
  4  5  1  0
  5  6  1  0
  6  7  1  0
  7  8  1  0
  8  9  2  0
  8 10  1  0
 10 11  1  0
 11 12  1  0
 12 13  2  0
 13 14  1  0
 14 15  2  0
 15 16  1  0
 16 17  1  0
  7 18  1  0
 18 19  1  0
 19  4  1  0
 16 12  1  0
  1 20  1  0
  1 21  1  0
  1 22  1  0
  2 23  1  0
  3 24  1  0
  3 25  1  0
  3 26  1  0
  4 27  1  0
  5 28  1  0
  5 29  1  0
  6 30  1  0
  6 31  1  0
  7 32  1  0
 10 33  1  0
 11 34  1  0
 11 35  1  0
 14 36  1  0
 17 37  1  0
 17 38  1  0
 17 39  1  0
 18 40  1  0
 18 41  1  0
 19 42  1  0
 19 43  1  0
M  CHG  1   3   1
M  END
>  <EmbedRMS>  (102) 
0.24309368491659913

$$$$

     RDKit          3D

 42 42  0  0  0  0  0  0  0  0999 V2000
    8.6750    8.1658    7.0703 C   0  0  0  0  0  0  0  0  0  0  0  0
    8.3763    8.4580    5.8022 C   0  0  0  0  0  0  0  0  0  0  0  0
    7.3143    9.3915    5.3537 C   0  0  0  0  0  0  0  0  0  0  0  0
    6.4078    9.8578    6.2465 C   0  0  0  0  0  0  0  0  0  0  0  0
    5.2565   10.7471    5.8877 C   0  0  0  0  0  0  0  0  0  0  0  0
    7.1493    9.7152    3.9495 N   0  0  0  0  0  0  0  0  0  0  0  0
    7.9765    9.4983    2.7821 C   0  0  0  0  0  0  0  0  0  0  0  0
    7.4301    9.6608    1.6607 O   0  0  0  0  0  0  0  0  0  0  0  0
    9.4445    9.1811    2.6937 C   0  0  0  0  0  0  0  0  0  0  0  0
    9.7537    7.7156    2.4382 C   0  0  0  0  0  0  0  0  0  0  0  0
   11.2038    7.4507    2.0892 C   0  0  0  0  0  0  0  0  0  0  0  0
   12.2683    8.3270    2.7571 C   0  0  0  0  0  0  0  0  0  0  0  0
   13.6145    8.3244    1.9914 C   0  0  0  0  0  0  0  0  0  0  0  0
   14.0289    7.0506    1.2546 C   0  0  0  0  0  0  0  0  0  0  0  0
   14.7105    8.8911    2.7788 N   0  0  0  0  0  4  0  0  0  0  0  0
   11.8580    9.7797    3.1035 C   0  0  0  0  0  0  0  0  0  0  0  0
   10.4067   10.0105    3.5026 C   0  0  0  0  0  0  0  0  0  0  0  0
    9.4522    7.4407    7.2763 H   0  0  0  0  0  0  0  0  0  0  0  0
    8.2207    8.6429    7.9236 H   0  0  0  0  0  0  0  0  0  0  0  0
    8.9290    7.9270    5.0689 H   0  0  0  0  0  0  0  0  0  0  0  0
    6.4522    9.5905    7.2899 H   0  0  0  0  0  0  0  0  0  0  0  0
    5.6232   11.6730    5.3961 H   0  0  0  0  0  0  0  0  0  0  0  0
    4.7085   11.0385    6.8086 H   0  0  0  0  0  0  0  0  0  0  0  0
    4.5465   10.2109    5.2233 H   0  0  0  0  0  0  0  0  0  0  0  0
    6.2337   10.1339    3.6758 H   0  0  0  0  0  0  0  0  0  0  0  0
    9.6986    9.5966    1.6856 H   0  0  0  0  0  0  0  0  0  0  0  0
    9.1148    7.3426    1.6051 H   0  0  0  0  0  0  0  0  0  0  0  0
    9.4972    7.0769    3.2974 H   0  0  0  0  0  0  0  0  0  0  0  0
   11.2718    7.6249    0.9927 H   0  0  0  0  0  0  0  0  0  0  0  0
   11.4331    6.3748    2.2587 H   0  0  0  0  0  0  0  0  0  0  0  0
   12.4573    7.8339    3.7373 H   0  0  0  0  0  0  0  0  0  0  0  0
   13.4588    9.0294    1.1415 H   0  0  0  0  0  0  0  0  0  0  0  0
   14.1162    6.2135    1.9787 H   0  0  0  0  0  0  0  0  0  0  0  0
   13.3003    6.7723    0.4659 H   0  0  0  0  0  0  0  0  0  0  0  0
   15.0110    7.1880    0.7539 H   0  0  0  0  0  0  0  0  0  0  0  0
   14.5373    9.8979    2.9966 H   0  0  0  0  0  0  0  0  0  0  0  0
   15.6086    8.8475    2.2446 H   0  0  0  0  0  0  0  0  0  0  0  0
   14.8256    8.3542    3.6688 H   0  0  0  0  0  0  0  0  0  0  0  0
   12.4979   10.1655    3.9267 H   0  0  0  0  0  0  0  0  0  0  0  0
   12.0458   10.4293    2.2200 H   0  0  0  0  0  0  0  0  0  0  0  0
   10.1603   11.0919    3.4053 H   0  0  0  0  0  0  0  0  0  0  0  0
   10.3056    9.7529    4.5738 H   0  0  0  0  0  0  0  0  0  0  0  0
  1  2  2  3
  2  3  1  0
  3  4  2  3
  4  5  1  0
  3  6  1  0
  6  7  1  0
  7  8  2  0
  7  9  1  0
  9 10  1  0
 10 11  1  0
 11 12  1  0
 12 13  1  0
 13 14  1  0
 13 15  1  0
 12 16  1  0
 16 17  1  0
 17  9  1  0
  1 18  1  0
  1 19  1  0
  2 20  1  0
  4 21  1  0
  5 22  1  0
  5 23  1  0
  5 24  1  0
  6 25  1  0
  9 26  1  0
 10 27  1  0
 10 28  1  0
 11 29  1  0
 11 30  1  0
 12 31  1  0
 13 32  1  0
 14 33  1  0
 14 34  1  0
 14 35  1  0
 15 36  1  0
 15 37  1  0
 15 38  1  0
 16 39  1  0
 16 40  1  0
 17 41  1  0
 17 42  1  0
M  CHG  1  15   1
M  END
>  <EmbedRMS>  (103) 
0.29216731409503444

$$$$

     RDKit          3D

 41 41  0  0  0  0  0  0  0  0999 V2000
   14.0128    7.0451    1.2246 C   0  0  0  0  0  0  0  0  0  0  0  0
   13.6534    8.3401    1.9332 C   0  0  0  0  0  0  0  0  0  0  0  0
   14.6165    8.7744    2.9395 N   0  0  0  0  0  4  0  0  0  0  0  0
   12.1420    8.5872    2.2327 C   0  0  0  0  0  0  0  0  0  0  0  0
   11.2631    7.3648    2.5405 C   0  0  0  0  0  0  0  0  0  0  0  0
    9.7641    7.7145    2.4333 C   0  0  0  0  0  0  0  0  0  0  0  0
    9.4407    9.1935    2.6636 C   0  0  0  0  0  0  0  0  0  0  0  0
    7.9759    9.5184    2.7373 C   0  0  0  0  0  0  0  0  0  0  0  0
    7.4055    9.6789    1.6302 O   0  0  0  0  0  0  0  0  0  0  0  0
    7.2040    9.6832    3.9346 N   0  0  0  0  0  0  0  0  0  0  0  0
    5.8641   10.1055    3.8043 N   0  0  0  0  0  0  0  0  0  0  0  0
    5.0841   10.3002    4.8217 C   0  0  0  0  0  0  0  0  0  0  0  0
    3.7250   10.7402    4.6402 N   0  0  0  0  0  0  0  0  0  0  0  0
    3.1736   10.9931    3.3107 C   0  0  0  0  0  0  0  0  0  0  0  0
    2.9039   10.9373    5.7626 N   0  0  0  0  0  0  0  0  0  0  0  0
   10.4042   10.0821    3.4346 C   0  0  0  0  0  0  0  0  0  0  0  0
   11.8889    9.6848    3.2863 C   0  0  0  0  0  0  0  0  0  0  0  0
   13.3395    6.8740    0.3571 H   0  0  0  0  0  0  0  0  0  0  0  0
   13.9237    6.1938    1.9316 H   0  0  0  0  0  0  0  0  0  0  0  0
   15.0578    7.0796    0.8475 H   0  0  0  0  0  0  0  0  0  0  0  0
   13.8429    9.0655    1.1030 H   0  0  0  0  0  0  0  0  0  0  0  0
   14.5651    9.8056    3.1016 H   0  0  0  0  0  0  0  0  0  0  0  0
   15.5918    8.5556    2.6309 H   0  0  0  0  0  0  0  0  0  0  0  0
   14.4325    8.2671    3.8348 H   0  0  0  0  0  0  0  0  0  0  0  0
   11.7481    8.9809    1.2663 H   0  0  0  0  0  0  0  0  0  0  0  0
   11.4729    6.5322    1.8376 H   0  0  0  0  0  0  0  0  0  0  0  0
   11.4938    7.0013    3.5661 H   0  0  0  0  0  0  0  0  0  0  0  0
    9.2137    7.1097    3.1865 H   0  0  0  0  0  0  0  0  0  0  0  0
    9.3838    7.3994    1.4344 H   0  0  0  0  0  0  0  0  0  0  0  0
    9.6779    9.5856    1.6451 H   0  0  0  0  0  0  0  0  0  0  0  0
    7.6358    9.5215    4.8725 H   0  0  0  0  0  0  0  0  0  0  0  0
    5.4574   10.1340    5.8255 H   0  0  0  0  0  0  0  0  0  0  0  0
    3.7613   11.7883    2.8055 H   0  0  0  0  0  0  0  0  0  0  0  0
    3.2128   10.0634    2.7049 H   0  0  0  0  0  0  0  0  0  0  0  0
    2.1160   11.3250    3.3845 H   0  0  0  0  0  0  0  0  0  0  0  0
    2.8597   10.0339    6.2873 H   0  0  0  0  0  0  0  0  0  0  0  0
    3.3700   11.6423    6.3784 H   0  0  0  0  0  0  0  0  0  0  0  0
   10.1334   10.0287    4.5113 H   0  0  0  0  0  0  0  0  0  0  0  0
   10.2657   11.1447    3.1286 H   0  0  0  0  0  0  0  0  0  0  0  0
   12.2714    9.3416    4.2727 H   0  0  0  0  0  0  0  0  0  0  0  0
   12.4541   10.5996    3.0053 H   0  0  0  0  0  0  0  0  0  0  0  0
  1  2  1  0
  2  3  1  0
  2  4  1  0
  4  5  1  0
  5  6  1  0
  6  7  1  0
  7  8  1  0
  8  9  2  0
  8 10  1  0
 10 11  1  0
 11 12  2  3
 12 13  1  0
 13 14  1  0
 13 15  1  0
  7 16  1  0
 16 17  1  0
 17  4  1  0
  1 18  1  0
  1 19  1  0
  1 20  1  0
  2 21  1  0
  3 22  1  0
  3 23  1  0
  3 24  1  0
  4 25  1  0
  5 26  1  0
  5 27  1  0
  6 28  1  0
  6 29  1  0
  7 30  1  0
 10 31  1  0
 12 32  1  0
 14 33  1  0
 14 34  1  0
 14 35  1  0
 15 36  1  0
 15 37  1  0
 16 38  1  0
 16 39  1  0
 17 40  1  0
 17 41  1  0
M  CHG  1   3   1
M  END
>  <EmbedRMS>  (104) 
0.2570984896337683

$$$$

     RDKit          3D

 38 38  0  0  0  0  0  0  0  0999 V2000
   13.9838    7.0986    1.1854 C   0  0  0  0  0  0  0  0  0  0  0  0
   13.5808    8.3571    1.9537 C   0  0  0  0  0  0  0  0  0  0  0  0
   14.7116    8.8837    2.7302 N   0  0  0  0  0  4  0  0  0  0  0  0
   12.2760    8.3215    2.7737 C   0  0  0  0  0  0  0  0  0  0  0  0
   11.1588    7.3120    2.3967 C   0  0  0  0  0  0  0  0  0  0  0  0
    9.8002    7.9222    2.0840 C   0  0  0  0  0  0  0  0  0  0  0  0
    9.4158    8.9895    3.1070 C   0  0  0  0  0  0  0  0  0  0  0  0
    8.0116    9.4733    2.8596 C   0  0  0  0  0  0  0  0  0  0  0  0
    7.6272    9.6851    1.6778 O   0  0  0  0  0  0  0  0  0  0  0  0
    7.1398    9.6998    3.9789 N   0  0  0  0  0  0  0  0  0  0  0  0
    5.7848   10.1825    3.9275 C   0  0  0  0  0  0  0  0  0  0  0  0
    4.9516   10.3047    5.3328 S   0  0  0  0  0  0  0  0  0  0  0  0
    5.1684   10.7917    2.6941 C   0  0  0  0  0  0  0  0  0  0  0  0
    5.6286   12.1643    2.5055 N   0  0  0  0  0  0  0  0  0  0  0  0
   10.3982   10.1514    3.0075 C   0  0  0  0  0  0  0  0  0  0  0  0
   11.8325    9.7190    3.3050 C   0  0  0  0  0  0  0  0  0  0  0  0
   13.9872    6.2216    1.8666 H   0  0  0  0  0  0  0  0  0  0  0  0
   13.2922    6.9109    0.3374 H   0  0  0  0  0  0  0  0  0  0  0  0
   14.9999    7.2119    0.7513 H   0  0  0  0  0  0  0  0  0  0  0  0
   13.3806    9.1011    1.1486 H   0  0  0  0  0  0  0  0  0  0  0  0
   14.9950    8.1897    3.4598 H   0  0  0  0  0  0  0  0  0  0  0  0
   14.4928    9.7899    3.1974 H   0  0  0  0  0  0  0  0  0  0  0  0
   15.5291    9.0531    2.0997 H   0  0  0  0  0  0  0  0  0  0  0  0
   12.6587    7.8396    3.7046 H   0  0  0  0  0  0  0  0  0  0  0  0
   11.0038    6.5976    3.2387 H   0  0  0  0  0  0  0  0  0  0  0  0
   11.4424    6.6814    1.5341 H   0  0  0  0  0  0  0  0  0  0  0  0
    9.8319    8.3610    1.0611 H   0  0  0  0  0  0  0  0  0  0  0  0
    9.0365    7.1125    2.0788 H   0  0  0  0  0  0  0  0  0  0  0  0
    9.4758    8.5455    4.1263 H   0  0  0  0  0  0  0  0  0  0  0  0
    7.5193    9.4704    4.9255 H   0  0  0  0  0  0  0  0  0  0  0  0
    4.0614   10.8043    2.7990 H   0  0  0  0  0  0  0  0  0  0  0  0
    5.3576   10.1885    1.7869 H   0  0  0  0  0  0  0  0  0  0  0  0
    6.6706   12.1646    2.4161 H   0  0  0  0  0  0  0  0  0  0  0  0
    5.3838   12.7238    3.3551 H   0  0  0  0  0  0  0  0  0  0  0  0
   10.1057   10.9537    3.7212 H   0  0  0  0  0  0  0  0  0  0  0  0
   10.3572   10.5875    1.9835 H   0  0  0  0  0  0  0  0  0  0  0  0
   12.4778   10.5259    2.8994 H   0  0  0  0  0  0  0  0  0  0  0  0
   11.9657    9.7491    4.4109 H   0  0  0  0  0  0  0  0  0  0  0  0
  1  2  1  0
  2  3  1  0
  2  4  1  0
  4  5  1  0
  5  6  1  0
  6  7  1  0
  7  8  1  0
  8  9  2  0
  8 10  1  0
 10 11  1  0
 11 12  2  0
 11 13  1  0
 13 14  1  0
  7 15  1  0
 15 16  1  0
 16  4  1  0
  1 17  1  0
  1 18  1  0
  1 19  1  0
  2 20  1  0
  3 21  1  0
  3 22  1  0
  3 23  1  0
  4 24  1  0
  5 25  1  0
  5 26  1  0
  6 27  1  0
  6 28  1  0
  7 29  1  0
 10 30  1  0
 13 31  1  0
 13 32  1  0
 14 33  1  0
 14 34  1  0
 15 35  1  0
 15 36  1  0
 16 37  1  0
 16 38  1  0
M  CHG  1   3   1
M  END
>  <EmbedRMS>  (105) 
0.21492586170883154

$$$$

     RDKit          3D

 44 45  0  0  0  0  0  0  0  0999 V2000
    4.3028    7.8917    5.2998 C   0  0  0  0  0  0  0  0  0  0  0  0
    4.4967    9.2924    5.7870 C   0  0  0  0  0  0  0  0  0  0  0  0
    4.0646    9.7201    6.9916 N   0  0  0  0  0  0  0  0  0  0  0  0
    4.4505   11.0125    7.0420 C   0  0  0  0  0  0  0  0  0  0  0  0
    5.1052   11.3471    5.8776 C   0  0  0  0  0  0  0  0  0  0  0  0
    5.1129   10.2648    5.0835 N   0  0  0  0  0  0  0  0  0  0  0  0
    5.7714   10.1513    3.7865 C   0  0  0  0  0  0  0  0  0  0  0  0
    7.1431    9.6970    3.9707 N   0  0  0  0  0  0  0  0  0  0  0  0
    8.0122    9.4686    2.8595 C   0  0  0  0  0  0  0  0  0  0  0  0
    7.6088    9.6869    1.6826 O   0  0  0  0  0  0  0  0  0  0  0  0
    9.4164    8.9884    3.1047 C   0  0  0  0  0  0  0  0  0  0  0  0
    9.8006    7.9217    2.0821 C   0  0  0  0  0  0  0  0  0  0  0  0
   11.1592    7.3118    2.3957 C   0  0  0  0  0  0  0  0  0  0  0  0
   12.2762    8.3214    2.7733 C   0  0  0  0  0  0  0  0  0  0  0  0
   13.5811    8.3571    1.9536 C   0  0  0  0  0  0  0  0  0  0  0  0
   13.9843    7.0986    1.1853 C   0  0  0  0  0  0  0  0  0  0  0  0
   14.7117    8.8838    2.7303 N   0  0  0  0  0  4  0  0  0  0  0  0
   11.8324    9.7189    3.3044 C   0  0  0  0  0  0  0  0  0  0  0  0
   10.3980   10.1510    3.0063 C   0  0  0  0  0  0  0  0  0  0  0  0
    3.8653    7.2626    6.1032 H   0  0  0  0  0  0  0  0  0  0  0  0
    5.2804    7.4601    4.9995 H   0  0  0  0  0  0  0  0  0  0  0  0
    3.6158    7.8924    4.4284 H   0  0  0  0  0  0  0  0  0  0  0  0
    4.2734   11.6684    7.8837 H   0  0  0  0  0  0  0  0  0  0  0  0
    5.5472   12.3045    5.6335 H   0  0  0  0  0  0  0  0  0  0  0  0
    5.7731   11.1404    3.2786 H   0  0  0  0  0  0  0  0  0  0  0  0
    5.2207    9.4330    3.1420 H   0  0  0  0  0  0  0  0  0  0  0  0
    7.5030    9.5336    4.9388 H   0  0  0  0  0  0  0  0  0  0  0  0
    9.4745    8.5451    4.1246 H   0  0  0  0  0  0  0  0  0  0  0  0
    9.0372    7.1118    2.0767 H   0  0  0  0  0  0  0  0  0  0  0  0
    9.8321    8.3609    1.0594 H   0  0  0  0  0  0  0  0  0  0  0  0
   11.0038    6.5975    3.2378 H   0  0  0  0  0  0  0  0  0  0  0  0
   11.4433    6.6810    1.5334 H   0  0  0  0  0  0  0  0  0  0  0  0
   12.6587    7.8395    3.7043 H   0  0  0  0  0  0  0  0  0  0  0  0
   13.3811    9.1011    1.1484 H   0  0  0  0  0  0  0  0  0  0  0  0
   15.0006    7.2118    0.7516 H   0  0  0  0  0  0  0  0  0  0  0  0
   13.2931    6.9111    0.3371 H   0  0  0  0  0  0  0  0  0  0  0  0
   13.9874    6.2216    1.8665 H   0  0  0  0  0  0  0  0  0  0  0  0
   14.4929    9.7903    3.1968 H   0  0  0  0  0  0  0  0  0  0  0  0
   14.9946    8.1901    3.4604 H   0  0  0  0  0  0  0  0  0  0  0  0
   15.5296    9.0526    2.1001 H   0  0  0  0  0  0  0  0  0  0  0  0
   11.9652    9.7490    4.4103 H   0  0  0  0  0  0  0  0  0  0  0  0
   12.4777   10.5259    2.8990 H   0  0  0  0  0  0  0  0  0  0  0  0
   10.1048   10.9527    3.7204 H   0  0  0  0  0  0  0  0  0  0  0  0
   10.3572   10.5873    1.9825 H   0  0  0  0  0  0  0  0  0  0  0  0
  1  2  1  0
  2  3  2  0
  3  4  1  0
  4  5  2  0
  5  6  1  0
  6  7  1  0
  7  8  1  0
  8  9  1  0
  9 10  2  0
  9 11  1  0
 11 12  1  0
 12 13  1  0
 13 14  1  0
 14 15  1  0
 15 16  1  0
 15 17  1  0
 14 18  1  0
 18 19  1  0
  6  2  1  0
 19 11  1  0
  1 20  1  0
  1 21  1  0
  1 22  1  0
  4 23  1  0
  5 24  1  0
  7 25  1  0
  7 26  1  0
  8 27  1  0
 11 28  1  0
 12 29  1  0
 12 30  1  0
 13 31  1  0
 13 32  1  0
 14 33  1  0
 15 34  1  0
 16 35  1  0
 16 36  1  0
 16 37  1  0
 17 38  1  0
 17 39  1  0
 17 40  1  0
 18 41  1  0
 18 42  1  0
 19 43  1  0
 19 44  1  0
M  CHG  1  17   1
M  END
>  <EmbedRMS>  (106) 
0.19660536923015426

$$$$

     RDKit          3D

 41 42  0  0  0  0  0  0  0  0999 V2000
   14.0155    7.0452    1.2243 C   0  0  0  0  0  0  0  0  0  0  0  0
   13.6577    8.3402    1.9340 C   0  0  0  0  0  0  0  0  0  0  0  0
   14.6213    8.7734    2.9399 N   0  0  0  0  0  4  0  0  0  0  0  0
   12.1479    8.5868    2.2358 C   0  0  0  0  0  0  0  0  0  0  0  0
   11.2708    7.3634    2.5450 C   0  0  0  0  0  0  0  0  0  0  0  0
    9.7738    7.7130    2.4384 C   0  0  0  0  0  0  0  0  0  0  0  0
    9.4545    9.1902    2.6817 C   0  0  0  0  0  0  0  0  0  0  0  0
    7.9930    9.5119    2.7236 C   0  0  0  0  0  0  0  0  0  0  0  0
    7.4746    9.6077    1.5899 O   0  0  0  0  0  0  0  0  0  0  0  0
    7.1920    9.7025    3.9130 N   0  0  0  0  0  0  0  0  0  0  0  0
    5.8002   10.1396    3.9098 C   0  0  0  0  0  0  0  0  0  0  0  0
    5.1136   10.2622    5.1332 C   0  0  0  0  0  0  0  0  0  0  0  0
    3.7791   10.6918    5.1678 C   0  0  0  0  0  0  0  0  0  0  0  0
    3.1050   10.9965    3.9846 C   0  0  0  0  0  0  0  0  0  0  0  0
    3.7620   10.8848    2.7663 C   0  0  0  0  0  0  0  0  0  0  0  0
    5.0915   10.4774    2.7238 C   0  0  0  0  0  0  0  0  0  0  0  0
   10.4123   10.0785    3.4530 C   0  0  0  0  0  0  0  0  0  0  0  0
   11.8967    9.6862    3.2904 C   0  0  0  0  0  0  0  0  0  0  0  0
   13.3412    6.8748    0.3575 H   0  0  0  0  0  0  0  0  0  0  0  0
   15.0600    7.0795    0.8460 H   0  0  0  0  0  0  0  0  0  0  0  0
   13.9272    6.1936    1.9310 H   0  0  0  0  0  0  0  0  0  0  0  0
   13.8472    9.0661    1.1041 H   0  0  0  0  0  0  0  0  0  0  0  0
   14.4394    8.2635    3.8342 H   0  0  0  0  0  0  0  0  0  0  0  0
   14.5690    9.8041    3.1044 H   0  0  0  0  0  0  0  0  0  0  0  0
   15.5964    8.5564    2.6293 H   0  0  0  0  0  0  0  0  0  0  0  0
   11.7549    8.9789    1.2687 H   0  0  0  0  0  0  0  0  0  0  0  0
   11.4801    6.5302    1.8427 H   0  0  0  0  0  0  0  0  0  0  0  0
   11.5022    7.0014    3.5710 H   0  0  0  0  0  0  0  0  0  0  0  0
    9.3960    7.4069    1.4357 H   0  0  0  0  0  0  0  0  0  0  0  0
    9.2216    7.1022    3.1855 H   0  0  0  0  0  0  0  0  0  0  0  0
    9.7131    9.5882    1.6698 H   0  0  0  0  0  0  0  0  0  0  0  0
    7.6559    9.5263    4.8324 H   0  0  0  0  0  0  0  0  0  0  0  0
    5.6153   10.0259    6.0630 H   0  0  0  0  0  0  0  0  0  0  0  0
    3.2672   10.7820    6.1172 H   0  0  0  0  0  0  0  0  0  0  0  0
    2.0739   11.3242    4.0170 H   0  0  0  0  0  0  0  0  0  0  0  0
    3.2415   11.1383    1.8510 H   0  0  0  0  0  0  0  0  0  0  0  0
    5.5040   10.4952    1.7386 H   0  0  0  0  0  0  0  0  0  0  0  0
   10.1475   10.0136    4.5305 H   0  0  0  0  0  0  0  0  0  0  0  0
   10.2671   11.1433    3.1573 H   0  0  0  0  0  0  0  0  0  0  0  0
   12.4562   10.6027    3.0029 H   0  0  0  0  0  0  0  0  0  0  0  0
   12.2889    9.3466    4.2742 H   0  0  0  0  0  0  0  0  0  0  0  0
  1  2  1  0
  2  3  1  0
  2  4  1  0
  4  5  1  0
  5  6  1  0
  6  7  1  0
  7  8  1  0
  8  9  2  0
  8 10  1  0
 10 11  1  0
 11 12  2  0
 12 13  1  0
 13 14  2  0
 14 15  1  0
 15 16  2  0
  7 17  1  0
 17 18  1  0
 18  4  1  0
 16 11  1  0
  1 19  1  0
  1 20  1  0
  1 21  1  0
  2 22  1  0
  3 23  1  0
  3 24  1  0
  3 25  1  0
  4 26  1  0
  5 27  1  0
  5 28  1  0
  6 29  1  0
  6 30  1  0
  7 31  1  0
 10 32  1  0
 12 33  1  0
 13 34  1  0
 14 35  1  0
 15 36  1  0
 16 37  1  0
 17 38  1  0
 17 39  1  0
 18 40  1  0
 18 41  1  0
M  CHG  1   3   1
M  END
>  <EmbedRMS>  (107) 
0.24964892458419108

$$$$

     RDKit          3D

 40 40  0  0  0  0  0  0  0  0999 V2000
   13.9234    7.3283    1.0386 C   0  0  0  0  0  0  0  0  0  0  0  0
   13.7078    7.9210    2.4414 C   0  0  0  0  0  0  0  0  0  0  0  0
   14.6425    9.0269    2.6702 N   0  0  0  0  0  4  0  0  0  0  0  0
   12.2296    8.2933    2.8211 C   0  0  0  0  0  0  0  0  0  0  0  0
   11.1747    7.4150    2.1500 C   0  0  0  0  0  0  0  0  0  0  0  0
    9.7360    7.7235    2.5349 C   0  0  0  0  0  0  0  0  0  0  0  0
    9.4515    9.2035    2.6227 C   0  0  0  0  0  0  0  0  0  0  0  0
    7.9910    9.5360    2.7195 C   0  0  0  0  0  0  0  0  0  0  0  0
    7.4106    9.6887    1.6176 O   0  0  0  0  0  0  0  0  0  0  0  0
    7.2349    9.6889    3.9322 N   0  0  0  0  0  0  0  0  0  0  0  0
    5.8465   10.1694    3.8795 C   0  0  0  0  0  0  0  0  0  0  0  0
    5.8198   11.6505    3.5908 C   0  0  0  0  0  0  0  0  0  0  0  0
    5.6690   12.0670    2.3820 N   0  0  0  0  0  0  0  0  0  0  0  0
    6.0635   12.5916    4.6481 N   0  0  0  0  0  4  0  0  0  0  0  0
   10.4237   10.0507    3.4130 C   0  0  0  0  0  0  0  0  0  0  0  0
   11.8789    9.7841    2.9962 C   0  0  0  0  0  0  0  0  0  0  0  0
   13.3793    6.3674    0.9250 H   0  0  0  0  0  0  0  0  0  0  0  0
   13.5735    8.0446    0.2654 H   0  0  0  0  0  0  0  0  0  0  0  0
   15.0005    7.1188    0.8658 H   0  0  0  0  0  0  0  0  0  0  0  0
   14.0114    7.0970    3.1301 H   0  0  0  0  0  0  0  0  0  0  0  0
   14.5978    9.3371    3.6676 H   0  0  0  0  0  0  0  0  0  0  0  0
   14.4336    9.8274    2.0307 H   0  0  0  0  0  0  0  0  0  0  0  0
   15.6234    8.7090    2.4931 H   0  0  0  0  0  0  0  0  0  0  0  0
   12.1628    7.9505    3.8810 H   0  0  0  0  0  0  0  0  0  0  0  0
   11.3809    6.3419    2.3599 H   0  0  0  0  0  0  0  0  0  0  0  0
   11.2480    7.5618    1.0508 H   0  0  0  0  0  0  0  0  0  0  0  0
    9.0516    7.2385    1.8030 H   0  0  0  0  0  0  0  0  0  0  0  0
    9.5314    7.2732    3.5309 H   0  0  0  0  0  0  0  0  0  0  0  0
    9.7023    9.5354    1.5845 H   0  0  0  0  0  0  0  0  0  0  0  0
    7.6848    9.4920    4.8540 H   0  0  0  0  0  0  0  0  0  0  0  0
    5.3567    9.9807    4.8586 H   0  0  0  0  0  0  0  0  0  0  0  0
    5.2709    9.6049    3.1135 H   0  0  0  0  0  0  0  0  0  0  0  0
    5.6831   13.0727    2.1569 H   0  0  0  0  0  0  0  0  0  0  0  0
    6.9145   13.1541    4.4193 H   0  0  0  0  0  0  0  0  0  0  0  0
    6.2192   12.0987    5.5568 H   0  0  0  0  0  0  0  0  0  0  0  0
    5.2370   13.2248    4.7404 H   0  0  0  0  0  0  0  0  0  0  0  0
   10.3068    9.8089    4.4916 H   0  0  0  0  0  0  0  0  0  0  0  0
   10.1919   11.1305    3.2785 H   0  0  0  0  0  0  0  0  0  0  0  0
   12.5372   10.2608    3.7530 H   0  0  0  0  0  0  0  0  0  0  0  0
   12.0586   10.2951    2.0255 H   0  0  0  0  0  0  0  0  0  0  0  0
  1  2  1  0
  2  3  1  0
  2  4  1  0
  4  5  1  0
  5  6  1  0
  6  7  1  0
  7  8  1  0
  8  9  2  0
  8 10  1  0
 10 11  1  0
 11 12  1  0
 12 13  2  3
 12 14  1  0
  7 15  1  0
 15 16  1  0
 16  4  1  0
  1 17  1  0
  1 18  1  0
  1 19  1  0
  2 20  1  0
  3 21  1  0
  3 22  1  0
  3 23  1  0
  4 24  1  0
  5 25  1  0
  5 26  1  0
  6 27  1  0
  6 28  1  0
  7 29  1  0
 10 30  1  0
 11 31  1  0
 11 32  1  0
 13 33  1  0
 14 34  1  0
 14 35  1  0
 14 36  1  0
 15 37  1  0
 15 38  1  0
 16 39  1  0
 16 40  1  0
M  CHG  2   3   1  14   1
M  END
>  <EmbedRMS>  (108) 
0.2785311156398337

$$$$

     RDKit          3D

 42 42  0  0  0  0  0  0  0  0999 V2000
    8.6750    8.1658    7.0703 C   0  0  0  0  0  0  0  0  0  0  0  0
    8.3763    8.4580    5.8022 C   0  0  0  0  0  0  0  0  0  0  0  0
    7.3143    9.3915    5.3537 C   0  0  0  0  0  0  0  0  0  0  0  0
    6.4078    9.8578    6.2465 C   0  0  0  0  0  0  0  0  0  0  0  0
    5.2565   10.7471    5.8877 C   0  0  0  0  0  0  0  0  0  0  0  0
    7.1493    9.7152    3.9495 N   0  0  0  0  0  0  0  0  0  0  0  0
    7.9765    9.4983    2.7821 C   0  0  0  0  0  0  0  0  0  0  0  0
    7.4301    9.6608    1.6607 O   0  0  0  0  0  0  0  0  0  0  0  0
    9.4445    9.1811    2.6937 C   0  0  0  0  0  0  0  0  0  0  0  0
    9.7537    7.7156    2.4382 C   0  0  0  0  0  0  0  0  0  0  0  0
   11.2038    7.4507    2.0892 C   0  0  0  0  0  0  0  0  0  0  0  0
   12.2683    8.3270    2.7571 C   0  0  0  0  0  0  0  0  0  0  0  0
   13.6145    8.3244    1.9914 C   0  0  0  0  0  0  0  0  0  0  0  0
   14.0289    7.0506    1.2546 C   0  0  0  0  0  0  0  0  0  0  0  0
   14.7105    8.8911    2.7788 N   0  0  0  0  0  4  0  0  0  0  0  0
   11.8580    9.7797    3.1035 C   0  0  0  0  0  0  0  0  0  0  0  0
   10.4067   10.0105    3.5026 C   0  0  0  0  0  0  0  0  0  0  0  0
    9.4522    7.4407    7.2763 H   0  0  0  0  0  0  0  0  0  0  0  0
    8.2207    8.6429    7.9236 H   0  0  0  0  0  0  0  0  0  0  0  0
    8.9290    7.9270    5.0689 H   0  0  0  0  0  0  0  0  0  0  0  0
    6.4522    9.5905    7.2899 H   0  0  0  0  0  0  0  0  0  0  0  0
    5.6232   11.6730    5.3961 H   0  0  0  0  0  0  0  0  0  0  0  0
    4.7085   11.0385    6.8086 H   0  0  0  0  0  0  0  0  0  0  0  0
    4.5465   10.2109    5.2233 H   0  0  0  0  0  0  0  0  0  0  0  0
    6.2337   10.1339    3.6758 H   0  0  0  0  0  0  0  0  0  0  0  0
    9.6986    9.5966    1.6856 H   0  0  0  0  0  0  0  0  0  0  0  0
    9.1148    7.3426    1.6051 H   0  0  0  0  0  0  0  0  0  0  0  0
    9.4972    7.0769    3.2974 H   0  0  0  0  0  0  0  0  0  0  0  0
   11.2718    7.6249    0.9927 H   0  0  0  0  0  0  0  0  0  0  0  0
   11.4331    6.3748    2.2587 H   0  0  0  0  0  0  0  0  0  0  0  0
   12.4573    7.8339    3.7373 H   0  0  0  0  0  0  0  0  0  0  0  0
   13.4588    9.0294    1.1415 H   0  0  0  0  0  0  0  0  0  0  0  0
   14.1162    6.2135    1.9787 H   0  0  0  0  0  0  0  0  0  0  0  0
   13.3003    6.7723    0.4659 H   0  0  0  0  0  0  0  0  0  0  0  0
   15.0110    7.1880    0.7539 H   0  0  0  0  0  0  0  0  0  0  0  0
   14.5373    9.8979    2.9966 H   0  0  0  0  0  0  0  0  0  0  0  0
   15.6086    8.8475    2.2446 H   0  0  0  0  0  0  0  0  0  0  0  0
   14.8256    8.3542    3.6688 H   0  0  0  0  0  0  0  0  0  0  0  0
   12.4979   10.1655    3.9267 H   0  0  0  0  0  0  0  0  0  0  0  0
   12.0458   10.4293    2.2200 H   0  0  0  0  0  0  0  0  0  0  0  0
   10.1603   11.0919    3.4053 H   0  0  0  0  0  0  0  0  0  0  0  0
   10.3056    9.7529    4.5738 H   0  0  0  0  0  0  0  0  0  0  0  0
  1  2  2  3
  2  3  1  0
  3  4  2  3
  4  5  1  0
  3  6  1  0
  6  7  1  0
  7  8  2  0
  7  9  1  0
  9 10  1  0
 10 11  1  0
 11 12  1  0
 12 13  1  0
 13 14  1  0
 13 15  1  0
 12 16  1  0
 16 17  1  0
 17  9  1  0
  1 18  1  0
  1 19  1  0
  2 20  1  0
  4 21  1  0
  5 22  1  0
  5 23  1  0
  5 24  1  0
  6 25  1  0
  9 26  1  0
 10 27  1  0
 10 28  1  0
 11 29  1  0
 11 30  1  0
 12 31  1  0
 13 32  1  0
 14 33  1  0
 14 34  1  0
 14 35  1  0
 15 36  1  0
 15 37  1  0
 15 38  1  0
 16 39  1  0
 16 40  1  0
 17 41  1  0
 17 42  1  0
M  CHG  1  15   1
M  END
>  <EmbedRMS>  (109) 
0.29216731409503444

$$$$

     RDKit          3D

 40 41  0  0  0  0  0  0  0  0999 V2000
   13.9329    7.3332    1.0252 C   0  0  0  0  0  0  0  0  0  0  0  0
   13.7122    7.9147    2.4298 C   0  0  0  0  0  0  0  0  0  0  0  0
   14.6502    9.0166    2.6726 N   0  0  0  0  0  4  0  0  0  0  0  0
   12.2360    8.2981    2.7981 C   0  0  0  0  0  0  0  0  0  0  0  0
   11.1510    7.3123    2.3266 C   0  0  0  0  0  0  0  0  0  0  0  0
    9.7902    7.9324    2.0780 C   0  0  0  0  0  0  0  0  0  0  0  0
    9.4250    8.9811    3.1236 C   0  0  0  0  0  0  0  0  0  0  0  0
    8.0213    9.4644    2.8678 C   0  0  0  0  0  0  0  0  0  0  0  0
    7.6543    9.6771    1.6809 O   0  0  0  0  0  0  0  0  0  0  0  0
    7.1400    9.7013    3.9767 N   0  0  0  0  0  0  0  0  0  0  0  0
    5.7711   10.1430    3.9231 C   0  0  0  0  0  0  0  0  0  0  0  0
    5.0989   10.4458    2.7188 C   0  0  0  0  0  0  0  0  0  0  0  0
    3.7748   10.8726    2.7577 C   0  0  0  0  0  0  0  0  0  0  0  0
    3.1197   10.9993    3.9785 C   0  0  0  0  0  0  0  0  0  0  0  0
    3.8044   10.6942    5.1536 C   0  0  0  0  0  0  0  0  0  0  0  0
    5.0971   10.2789    5.0996 N   0  0  0  0  0  0  0  0  0  0  0  0
   10.3964   10.1660    3.0685 C   0  0  0  0  0  0  0  0  0  0  0  0
   11.8879    9.7885    2.9929 C   0  0  0  0  0  0  0  0  0  0  0  0
   15.0168    7.2780    0.7887 H   0  0  0  0  0  0  0  0  0  0  0  0
   13.5394    6.2974    0.9561 H   0  0  0  0  0  0  0  0  0  0  0  0
   13.4390    7.9748    0.2650 H   0  0  0  0  0  0  0  0  0  0  0  0
   14.0105    7.0846    3.1149 H   0  0  0  0  0  0  0  0  0  0  0  0
   14.5086    9.7875    1.9809 H   0  0  0  0  0  0  0  0  0  0  0  0
   14.5444    9.3792    3.6472 H   0  0  0  0  0  0  0  0  0  0  0  0
   15.6334    8.6710    2.5808 H   0  0  0  0  0  0  0  0  0  0  0  0
   12.2420    8.0319    3.8835 H   0  0  0  0  0  0  0  0  0  0  0  0
   11.0355    6.4816    3.0615 H   0  0  0  0  0  0  0  0  0  0  0  0
   11.4344    6.8254    1.3750 H   0  0  0  0  0  0  0  0  0  0  0  0
    9.7987    8.4005    1.0671 H   0  0  0  0  0  0  0  0  0  0  0  0
    9.0254    7.1235    2.0674 H   0  0  0  0  0  0  0  0  0  0  0  0
    9.4815    8.5099    4.1304 H   0  0  0  0  0  0  0  0  0  0  0  0
    7.5298    9.5316    4.9316 H   0  0  0  0  0  0  0  0  0  0  0  0
    5.5392   10.3753    1.7440 H   0  0  0  0  0  0  0  0  0  0  0  0
    3.2528   11.1076    1.8387 H   0  0  0  0  0  0  0  0  0  0  0  0
    2.0900   11.3310    4.0154 H   0  0  0  0  0  0  0  0  0  0  0  0
    3.3088   10.7876    6.1107 H   0  0  0  0  0  0  0  0  0  0  0  0
   10.2254   10.8078    3.9612 H   0  0  0  0  0  0  0  0  0  0  0  0
   10.1526   10.7934    2.1804 H   0  0  0  0  0  0  0  0  0  0  0  0
   12.3997   10.1968    3.8943 H   0  0  0  0  0  0  0  0  0  0  0  0
   12.3106   10.3422    2.1276 H   0  0  0  0  0  0  0  0  0  0  0  0
  1  2  1  0
  2  3  1  0
  2  4  1  0
  4  5  1  0
  5  6  1  0
  6  7  1  0
  7  8  1  0
  8  9  2  0
  8 10  1  0
 10 11  1  0
 11 12  2  0
 12 13  1  0
 13 14  2  0
 14 15  1  0
 15 16  2  0
  7 17  1  0
 17 18  1  0
 18  4  1  0
 16 11  1  0
  1 19  1  0
  1 20  1  0
  1 21  1  0
  2 22  1  0
  3 23  1  0
  3 24  1  0
  3 25  1  0
  4 26  1  0
  5 27  1  0
  5 28  1  0
  6 29  1  0
  6 30  1  0
  7 31  1  0
 10 32  1  0
 12 33  1  0
 13 34  1  0
 14 35  1  0
 15 36  1  0
 17 37  1  0
 17 38  1  0
 18 39  1  0
 18 40  1  0
M  CHG  1   3   1
M  END
>  <EmbedRMS>  (110) 
0.16489371128598093

$$$$

     RDKit          3D

 41 42  0  0  0  0  0  0  0  0999 V2000
   14.0155    7.0452    1.2243 C   0  0  0  0  0  0  0  0  0  0  0  0
   13.6577    8.3402    1.9340 C   0  0  0  0  0  0  0  0  0  0  0  0
   14.6213    8.7734    2.9399 N   0  0  0  0  0  4  0  0  0  0  0  0
   12.1479    8.5868    2.2358 C   0  0  0  0  0  0  0  0  0  0  0  0
   11.2708    7.3634    2.5450 C   0  0  0  0  0  0  0  0  0  0  0  0
    9.7738    7.7130    2.4384 C   0  0  0  0  0  0  0  0  0  0  0  0
    9.4545    9.1902    2.6817 C   0  0  0  0  0  0  0  0  0  0  0  0
    7.9930    9.5119    2.7236 C   0  0  0  0  0  0  0  0  0  0  0  0
    7.4746    9.6077    1.5899 O   0  0  0  0  0  0  0  0  0  0  0  0
    7.1920    9.7025    3.9130 N   0  0  0  0  0  0  0  0  0  0  0  0
    5.8002   10.1396    3.9098 C   0  0  0  0  0  0  0  0  0  0  0  0
    5.1136   10.2622    5.1332 C   0  0  0  0  0  0  0  0  0  0  0  0
    3.7791   10.6918    5.1678 C   0  0  0  0  0  0  0  0  0  0  0  0
    3.1050   10.9965    3.9846 C   0  0  0  0  0  0  0  0  0  0  0  0
    3.7620   10.8848    2.7663 C   0  0  0  0  0  0  0  0  0  0  0  0
    5.0915   10.4774    2.7238 C   0  0  0  0  0  0  0  0  0  0  0  0
   10.4123   10.0785    3.4530 C   0  0  0  0  0  0  0  0  0  0  0  0
   11.8967    9.6862    3.2904 C   0  0  0  0  0  0  0  0  0  0  0  0
   13.3412    6.8748    0.3575 H   0  0  0  0  0  0  0  0  0  0  0  0
   15.0600    7.0795    0.8460 H   0  0  0  0  0  0  0  0  0  0  0  0
   13.9272    6.1936    1.9310 H   0  0  0  0  0  0  0  0  0  0  0  0
   13.8472    9.0661    1.1041 H   0  0  0  0  0  0  0  0  0  0  0  0
   14.4394    8.2635    3.8342 H   0  0  0  0  0  0  0  0  0  0  0  0
   14.5690    9.8041    3.1044 H   0  0  0  0  0  0  0  0  0  0  0  0
   15.5964    8.5564    2.6293 H   0  0  0  0  0  0  0  0  0  0  0  0
   11.7549    8.9789    1.2687 H   0  0  0  0  0  0  0  0  0  0  0  0
   11.4801    6.5302    1.8427 H   0  0  0  0  0  0  0  0  0  0  0  0
   11.5022    7.0014    3.5710 H   0  0  0  0  0  0  0  0  0  0  0  0
    9.3960    7.4069    1.4357 H   0  0  0  0  0  0  0  0  0  0  0  0
    9.2216    7.1022    3.1855 H   0  0  0  0  0  0  0  0  0  0  0  0
    9.7131    9.5882    1.6698 H   0  0  0  0  0  0  0  0  0  0  0  0
    7.6559    9.5263    4.8324 H   0  0  0  0  0  0  0  0  0  0  0  0
    5.6153   10.0259    6.0630 H   0  0  0  0  0  0  0  0  0  0  0  0
    3.2672   10.7820    6.1172 H   0  0  0  0  0  0  0  0  0  0  0  0
    2.0739   11.3242    4.0170 H   0  0  0  0  0  0  0  0  0  0  0  0
    3.2415   11.1383    1.8510 H   0  0  0  0  0  0  0  0  0  0  0  0
    5.5040   10.4952    1.7386 H   0  0  0  0  0  0  0  0  0  0  0  0
   10.1475   10.0136    4.5305 H   0  0  0  0  0  0  0  0  0  0  0  0
   10.2671   11.1433    3.1573 H   0  0  0  0  0  0  0  0  0  0  0  0
   12.4562   10.6027    3.0029 H   0  0  0  0  0  0  0  0  0  0  0  0
   12.2889    9.3466    4.2742 H   0  0  0  0  0  0  0  0  0  0  0  0
  1  2  1  0
  2  3  1  0
  2  4  1  0
  4  5  1  0
  5  6  1  0
  6  7  1  0
  7  8  1  0
  8  9  2  0
  8 10  1  0
 10 11  1  0
 11 12  2  0
 12 13  1  0
 13 14  2  0
 14 15  1  0
 15 16  2  0
  7 17  1  0
 17 18  1  0
 18  4  1  0
 16 11  1  0
  1 19  1  0
  1 20  1  0
  1 21  1  0
  2 22  1  0
  3 23  1  0
  3 24  1  0
  3 25  1  0
  4 26  1  0
  5 27  1  0
  5 28  1  0
  6 29  1  0
  6 30  1  0
  7 31  1  0
 10 32  1  0
 12 33  1  0
 13 34  1  0
 14 35  1  0
 15 36  1  0
 16 37  1  0
 17 38  1  0
 17 39  1  0
 18 40  1  0
 18 41  1  0
M  CHG  1   3   1
M  END
>  <EmbedRMS>  (111) 
0.24964892458419108

$$$$

     RDKit          3D

 38 39  0  0  0  0  0  0  0  0999 V2000
   13.9842    7.0987    1.1853 C   0  0  0  0  0  0  0  0  0  0  0  0
   13.5812    8.3572    1.9537 C   0  0  0  0  0  0  0  0  0  0  0  0
   14.7119    8.8839    2.7302 N   0  0  0  0  0  4  0  0  0  0  0  0
   12.2765    8.3213    2.7737 C   0  0  0  0  0  0  0  0  0  0  0  0
   11.1597    7.3114    2.3967 C   0  0  0  0  0  0  0  0  0  0  0  0
    9.8012    7.9211    2.0835 C   0  0  0  0  0  0  0  0  0  0  0  0
    9.4166    8.9879    3.1066 C   0  0  0  0  0  0  0  0  0  0  0  0
    8.0125    9.4689    2.8599 C   0  0  0  0  0  0  0  0  0  0  0  0
    7.6232    9.6834    1.6795 O   0  0  0  0  0  0  0  0  0  0  0  0
    7.1436    9.7001    3.9777 N   0  0  0  0  0  0  0  0  0  0  0  0
    5.7812   10.1373    3.8965 C   0  0  0  0  0  0  0  0  0  0  0  0
    5.0590   10.4418    2.7529 C   0  0  0  0  0  0  0  0  0  0  0  0
    3.8212   10.8093    3.2325 C   0  0  0  0  0  0  0  0  0  0  0  0
    3.8279   10.7216    4.5742 N   0  0  0  0  0  0  0  0  0  0  0  0
    5.0150   10.3141    4.9886 N   0  0  0  0  0  0  0  0  0  0  0  0
   10.3981   10.1506    3.0073 C   0  0  0  0  0  0  0  0  0  0  0  0
   11.8327    9.7188    3.3047 C   0  0  0  0  0  0  0  0  0  0  0  0
   13.2929    6.9111    0.3372 H   0  0  0  0  0  0  0  0  0  0  0  0
   15.0005    7.2120    0.7515 H   0  0  0  0  0  0  0  0  0  0  0  0
   13.9876    6.2216    1.8665 H   0  0  0  0  0  0  0  0  0  0  0  0
   13.3808    9.1011    1.1485 H   0  0  0  0  0  0  0  0  0  0  0  0
   14.9955    8.1898    3.4595 H   0  0  0  0  0  0  0  0  0  0  0  0
   14.4928    9.7899    3.1975 H   0  0  0  0  0  0  0  0  0  0  0  0
   15.5292    9.0536    2.0996 H   0  0  0  0  0  0  0  0  0  0  0  0
   12.6593    7.8397    3.7046 H   0  0  0  0  0  0  0  0  0  0  0  0
   11.4436    6.6805    1.5344 H   0  0  0  0  0  0  0  0  0  0  0  0
   11.0047    6.5972    3.2389 H   0  0  0  0  0  0  0  0  0  0  0  0
    9.8330    8.3602    1.0608 H   0  0  0  0  0  0  0  0  0  0  0  0
    9.0379    7.1111    2.0779 H   0  0  0  0  0  0  0  0  0  0  0  0
    9.4755    8.5442    4.1262 H   0  0  0  0  0  0  0  0  0  0  0  0
    7.5254    9.5361    4.9365 H   0  0  0  0  0  0  0  0  0  0  0  0
    5.3557   10.4142    1.7158 H   0  0  0  0  0  0  0  0  0  0  0  0
    2.9703   11.1209    2.6412 H   0  0  0  0  0  0  0  0  0  0  0  0
    3.0273   10.9388    5.2077 H   0  0  0  0  0  0  0  0  0  0  0  0
   10.1052   10.9525    3.7212 H   0  0  0  0  0  0  0  0  0  0  0  0
   10.3568   10.5867    1.9833 H   0  0  0  0  0  0  0  0  0  0  0  0
   12.4776   10.5259    2.8988 H   0  0  0  0  0  0  0  0  0  0  0  0
   11.9660    9.7492    4.4105 H   0  0  0  0  0  0  0  0  0  0  0  0
  1  2  1  0
  2  3  1  0
  2  4  1  0
  4  5  1  0
  5  6  1  0
  6  7  1  0
  7  8  1  0
  8  9  2  0
  8 10  1  0
 10 11  1  0
 11 12  1  0
 12 13  2  0
 13 14  1  0
 14 15  1  0
  7 16  1  0
 16 17  1  0
 17  4  1  0
 15 11  2  0
  1 18  1  0
  1 19  1  0
  1 20  1  0
  2 21  1  0
  3 22  1  0
  3 23  1  0
  3 24  1  0
  4 25  1  0
  5 26  1  0
  5 27  1  0
  6 28  1  0
  6 29  1  0
  7 30  1  0
 10 31  1  0
 12 32  1  0
 13 33  1  0
 14 34  1  0
 16 35  1  0
 16 36  1  0
 17 37  1  0
 17 38  1  0
M  CHG  1   3   1
M  END
>  <EmbedRMS>  (112) 
0.20783527019262546

$$$$

     RDKit          3D

 42 42  0  0  0  0  0  0  0  0999 V2000
    8.6750    8.1658    7.0703 C   0  0  0  0  0  0  0  0  0  0  0  0
    8.3763    8.4580    5.8022 C   0  0  0  0  0  0  0  0  0  0  0  0
    7.3143    9.3915    5.3537 C   0  0  0  0  0  0  0  0  0  0  0  0
    6.4078    9.8578    6.2465 C   0  0  0  0  0  0  0  0  0  0  0  0
    5.2565   10.7471    5.8877 C   0  0  0  0  0  0  0  0  0  0  0  0
    7.1493    9.7152    3.9495 N   0  0  0  0  0  0  0  0  0  0  0  0
    7.9765    9.4983    2.7821 C   0  0  0  0  0  0  0  0  0  0  0  0
    7.4301    9.6608    1.6607 O   0  0  0  0  0  0  0  0  0  0  0  0
    9.4445    9.1811    2.6937 C   0  0  0  0  0  0  0  0  0  0  0  0
    9.7537    7.7156    2.4382 C   0  0  0  0  0  0  0  0  0  0  0  0
   11.2038    7.4507    2.0892 C   0  0  0  0  0  0  0  0  0  0  0  0
   12.2683    8.3270    2.7571 C   0  0  0  0  0  0  0  0  0  0  0  0
   13.6145    8.3244    1.9914 C   0  0  0  0  0  0  0  0  0  0  0  0
   14.0289    7.0506    1.2546 C   0  0  0  0  0  0  0  0  0  0  0  0
   14.7105    8.8911    2.7788 N   0  0  0  0  0  4  0  0  0  0  0  0
   11.8580    9.7797    3.1035 C   0  0  0  0  0  0  0  0  0  0  0  0
   10.4067   10.0105    3.5026 C   0  0  0  0  0  0  0  0  0  0  0  0
    9.4522    7.4407    7.2763 H   0  0  0  0  0  0  0  0  0  0  0  0
    8.2207    8.6429    7.9236 H   0  0  0  0  0  0  0  0  0  0  0  0
    8.9290    7.9270    5.0689 H   0  0  0  0  0  0  0  0  0  0  0  0
    6.4522    9.5905    7.2899 H   0  0  0  0  0  0  0  0  0  0  0  0
    5.6232   11.6730    5.3961 H   0  0  0  0  0  0  0  0  0  0  0  0
    4.7085   11.0385    6.8086 H   0  0  0  0  0  0  0  0  0  0  0  0
    4.5465   10.2109    5.2233 H   0  0  0  0  0  0  0  0  0  0  0  0
    6.2337   10.1339    3.6758 H   0  0  0  0  0  0  0  0  0  0  0  0
    9.6986    9.5966    1.6856 H   0  0  0  0  0  0  0  0  0  0  0  0
    9.1148    7.3426    1.6051 H   0  0  0  0  0  0  0  0  0  0  0  0
    9.4972    7.0769    3.2974 H   0  0  0  0  0  0  0  0  0  0  0  0
   11.2718    7.6249    0.9927 H   0  0  0  0  0  0  0  0  0  0  0  0
   11.4331    6.3748    2.2587 H   0  0  0  0  0  0  0  0  0  0  0  0
   12.4573    7.8339    3.7373 H   0  0  0  0  0  0  0  0  0  0  0  0
   13.4588    9.0294    1.1415 H   0  0  0  0  0  0  0  0  0  0  0  0
   14.1162    6.2135    1.9787 H   0  0  0  0  0  0  0  0  0  0  0  0
   13.3003    6.7723    0.4659 H   0  0  0  0  0  0  0  0  0  0  0  0
   15.0110    7.1880    0.7539 H   0  0  0  0  0  0  0  0  0  0  0  0
   14.5373    9.8979    2.9966 H   0  0  0  0  0  0  0  0  0  0  0  0
   15.6086    8.8475    2.2446 H   0  0  0  0  0  0  0  0  0  0  0  0
   14.8256    8.3542    3.6688 H   0  0  0  0  0  0  0  0  0  0  0  0
   12.4979   10.1655    3.9267 H   0  0  0  0  0  0  0  0  0  0  0  0
   12.0458   10.4293    2.2200 H   0  0  0  0  0  0  0  0  0  0  0  0
   10.1603   11.0919    3.4053 H   0  0  0  0  0  0  0  0  0  0  0  0
   10.3056    9.7529    4.5738 H   0  0  0  0  0  0  0  0  0  0  0  0
  1  2  2  3
  2  3  1  0
  3  4  2  3
  4  5  1  0
  3  6  1  0
  6  7  1  0
  7  8  2  0
  7  9  1  0
  9 10  1  0
 10 11  1  0
 11 12  1  0
 12 13  1  0
 13 14  1  0
 13 15  1  0
 12 16  1  0
 16 17  1  0
 17  9  1  0
  1 18  1  0
  1 19  1  0
  2 20  1  0
  4 21  1  0
  5 22  1  0
  5 23  1  0
  5 24  1  0
  6 25  1  0
  9 26  1  0
 10 27  1  0
 10 28  1  0
 11 29  1  0
 11 30  1  0
 12 31  1  0
 13 32  1  0
 14 33  1  0
 14 34  1  0
 14 35  1  0
 15 36  1  0
 15 37  1  0
 15 38  1  0
 16 39  1  0
 16 40  1  0
 17 41  1  0
 17 42  1  0
M  CHG  1  15   1
M  END
>  <EmbedRMS>  (113) 
0.29216731409503444

$$$$

     RDKit          3D

 39 40  0  0  0  0  0  0  0  0999 V2000
   13.9218    7.3286    1.0388 C   0  0  0  0  0  0  0  0  0  0  0  0
   13.7065    7.9215    2.4416 C   0  0  0  0  0  0  0  0  0  0  0  0
   14.6414    9.0272    2.6702 N   0  0  0  0  0  4  0  0  0  0  0  0
   12.2282    8.2940    2.8220 C   0  0  0  0  0  0  0  0  0  0  0  0
   11.1724    7.4168    2.1510 C   0  0  0  0  0  0  0  0  0  0  0  0
    9.7337    7.7235    2.5398 C   0  0  0  0  0  0  0  0  0  0  0  0
    9.4467    9.2034    2.6376 C   0  0  0  0  0  0  0  0  0  0  0  0
    7.9823    9.5379    2.7252 C   0  0  0  0  0  0  0  0  0  0  0  0
    7.4246    9.6832    1.6109 O   0  0  0  0  0  0  0  0  0  0  0  0
    7.2054    9.6924    3.9346 N   0  0  0  0  0  0  0  0  0  0  0  0
    5.8186   10.1262    3.9049 C   0  0  0  0  0  0  0  0  0  0  0  0
    5.0843   10.2841    5.0899 C   0  0  0  0  0  0  0  0  0  0  0  0
    3.7896   10.7044    5.0304 N   0  0  0  0  0  0  0  0  0  0  0  0
    3.1852   10.9765    3.8439 C   0  0  0  0  0  0  0  0  0  0  0  0
    3.9054   10.8220    2.6617 C   0  0  0  0  0  0  0  0  0  0  0  0
    5.1965   10.4042    2.7212 N   0  0  0  0  0  0  0  0  0  0  0  0
   10.4229   10.0512    3.4215 C   0  0  0  0  0  0  0  0  0  0  0  0
   11.8773    9.7845    2.9988 C   0  0  0  0  0  0  0  0  0  0  0  0
   13.5725    8.0453    0.2657 H   0  0  0  0  0  0  0  0  0  0  0  0
   13.3766    6.3683    0.9251 H   0  0  0  0  0  0  0  0  0  0  0  0
   14.9987    7.1180    0.8661 H   0  0  0  0  0  0  0  0  0  0  0  0
   14.0103    7.0974    3.1302 H   0  0  0  0  0  0  0  0  0  0  0  0
   15.6222    8.7095    2.4917 H   0  0  0  0  0  0  0  0  0  0  0  0
   14.5978    9.3367    3.6677 H   0  0  0  0  0  0  0  0  0  0  0  0
   14.4317    9.8281    2.0314 H   0  0  0  0  0  0  0  0  0  0  0  0
   12.1619    7.9503    3.8816 H   0  0  0  0  0  0  0  0  0  0  0  0
   11.2438    7.5665    1.0520 H   0  0  0  0  0  0  0  0  0  0  0  0
   11.3796    6.3433    2.3578 H   0  0  0  0  0  0  0  0  0  0  0  0
    9.5307    7.2675    3.5334 H   0  0  0  0  0  0  0  0  0  0  0  0
    9.0483    7.2419    1.8065 H   0  0  0  0  0  0  0  0  0  0  0  0
    9.7023    9.5364    1.6005 H   0  0  0  0  0  0  0  0  0  0  0  0
    7.6693    9.5117    4.8530 H   0  0  0  0  0  0  0  0  0  0  0  0
    5.5378   10.0774    6.0503 H   0  0  0  0  0  0  0  0  0  0  0  0
    2.1560   11.3088    3.8216 H   0  0  0  0  0  0  0  0  0  0  0  0
    3.4456   11.0325    1.7054 H   0  0  0  0  0  0  0  0  0  0  0  0
   10.3106    9.8103    4.5008 H   0  0  0  0  0  0  0  0  0  0  0  0
   10.1904   11.1309    3.2874 H   0  0  0  0  0  0  0  0  0  0  0  0
   12.0535   10.2959    2.0276 H   0  0  0  0  0  0  0  0  0  0  0  0
   12.5381   10.2614    3.7532 H   0  0  0  0  0  0  0  0  0  0  0  0
  1  2  1  0
  2  3  1  0
  2  4  1  0
  4  5  1  0
  5  6  1  0
  6  7  1  0
  7  8  1  0
  8  9  2  0
  8 10  1  0
 10 11  1  0
 11 12  2  0
 12 13  1  0
 13 14  2  0
 14 15  1  0
 15 16  2  0
  7 17  1  0
 17 18  1  0
 18  4  1  0
 16 11  1  0
  1 19  1  0
  1 20  1  0
  1 21  1  0
  2 22  1  0
  3 23  1  0
  3 24  1  0
  3 25  1  0
  4 26  1  0
  5 27  1  0
  5 28  1  0
  6 29  1  0
  6 30  1  0
  7 31  1  0
 10 32  1  0
 12 33  1  0
 14 34  1  0
 15 35  1  0
 17 36  1  0
 17 37  1  0
 18 38  1  0
 18 39  1  0
M  CHG  1   3   1
M  END
>  <EmbedRMS>  (114) 
0.26001469916217457

$$$$

     RDKit          3D

 43 43  0  0  0  0  0  0  0  0999 V2000
   14.0146    7.0445    1.2242 C   0  0  0  0  0  0  0  0  0  0  0  0
   13.6556    8.3395    1.9330 C   0  0  0  0  0  0  0  0  0  0  0  0
   14.6184    8.7734    2.9398 N   0  0  0  0  0  4  0  0  0  0  0  0
   12.1448    8.5863    2.2322 C   0  0  0  0  0  0  0  0  0  0  0  0
   11.2656    7.3637    2.5388 C   0  0  0  0  0  0  0  0  0  0  0  0
    9.7674    7.7141    2.4306 C   0  0  0  0  0  0  0  0  0  0  0  0
    9.4460    9.1937    2.6555 C   0  0  0  0  0  0  0  0  0  0  0  0
    7.9824    9.5124    2.7303 C   0  0  0  0  0  0  0  0  0  0  0  0
    7.4094    9.6586    1.6225 O   0  0  0  0  0  0  0  0  0  0  0  0
    7.2288    9.7003    3.9392 N   0  0  0  0  0  0  0  0  0  0  0  0
    5.8269   10.1416    3.8902 C   0  0  0  0  0  0  0  0  0  0  0  0
    5.6901   11.6481    4.1506 C   0  0  0  0  0  0  0  0  0  0  0  0
    6.2706   12.5267    3.0282 C   0  0  0  0  0  0  0  0  0  0  0  0
    7.7254   12.7003    3.1457 N   0  0  0  0  0  4  0  0  0  0  0  0
   10.4081   10.0817    3.4304 C   0  0  0  0  0  0  0  0  0  0  0  0
   11.8916    9.6821    3.2871 C   0  0  0  0  0  0  0  0  0  0  0  0
   13.3416    6.8740    0.3563 H   0  0  0  0  0  0  0  0  0  0  0  0
   15.0597    7.0786    0.8476 H   0  0  0  0  0  0  0  0  0  0  0  0
   13.9249    6.1931    1.9310 H   0  0  0  0  0  0  0  0  0  0  0  0
   13.8457    9.0650    1.1030 H   0  0  0  0  0  0  0  0  0  0  0  0
   15.5936    8.5532    2.6321 H   0  0  0  0  0  0  0  0  0  0  0  0
   14.5683    9.8046    3.1013 H   0  0  0  0  0  0  0  0  0  0  0  0
   14.4333    8.2666    3.8352 H   0  0  0  0  0  0  0  0  0  0  0  0
   11.7517    8.9811    1.2660 H   0  0  0  0  0  0  0  0  0  0  0  0
   11.4955    6.9994    3.5643 H   0  0  0  0  0  0  0  0  0  0  0  0
   11.4755    6.5316    1.8354 H   0  0  0  0  0  0  0  0  0  0  0  0
    9.3870    7.3965    1.4326 H   0  0  0  0  0  0  0  0  0  0  0  0
    9.2166    7.1122    3.1859 H   0  0  0  0  0  0  0  0  0  0  0  0
    9.6828    9.5863    1.6370 H   0  0  0  0  0  0  0  0  0  0  0  0
    7.7104    9.6295    4.8632 H   0  0  0  0  0  0  0  0  0  0  0  0
    5.3469    9.8723    2.9247 H   0  0  0  0  0  0  0  0  0  0  0  0
    5.2653    9.5996    4.6810 H   0  0  0  0  0  0  0  0  0  0  0  0
    6.1402   11.9102    5.1328 H   0  0  0  0  0  0  0  0  0  0  0  0
    4.6039   11.8721    4.2304 H   0  0  0  0  0  0  0  0  0  0  0  0
    5.7781   13.5236    3.0893 H   0  0  0  0  0  0  0  0  0  0  0  0
    6.0066   12.1048    2.0325 H   0  0  0  0  0  0  0  0  0  0  0  0
    8.2041   12.2189    2.3518 H   0  0  0  0  0  0  0  0  0  0  0  0
    7.9628   13.7170    3.0841 H   0  0  0  0  0  0  0  0  0  0  0  0
    8.1062   12.3346    4.0481 H   0  0  0  0  0  0  0  0  0  0  0  0
   10.1346   10.0323    4.5063 H   0  0  0  0  0  0  0  0  0  0  0  0
   10.2782   11.1433    3.1214 H   0  0  0  0  0  0  0  0  0  0  0  0
   12.4598   10.5963    3.0099 H   0  0  0  0  0  0  0  0  0  0  0  0
   12.2700    9.3360    4.2741 H   0  0  0  0  0  0  0  0  0  0  0  0
  1  2  1  0
  2  3  1  0
  2  4  1  0
  4  5  1  0
  5  6  1  0
  6  7  1  0
  7  8  1  0
  8  9  2  0
  8 10  1  0
 10 11  1  0
 11 12  1  0
 12 13  1  0
 13 14  1  0
  7 15  1  0
 15 16  1  0
 16  4  1  0
  1 17  1  0
  1 18  1  0
  1 19  1  0
  2 20  1  0
  3 21  1  0
  3 22  1  0
  3 23  1  0
  4 24  1  0
  5 25  1  0
  5 26  1  0
  6 27  1  0
  6 28  1  0
  7 29  1  0
 10 30  1  0
 11 31  1  0
 11 32  1  0
 12 33  1  0
 12 34  1  0
 13 35  1  0
 13 36  1  0
 14 37  1  0
 14 38  1  0
 14 39  1  0
 15 40  1  0
 15 41  1  0
 16 42  1  0
 16 43  1  0
M  CHG  2   3   1  14   1
M  END
>  <EmbedRMS>  (115) 
0.26685653268904913

$$$$

     RDKit          3D

 39 40  0  0  0  0  0  0  0  0999 V2000
   14.0110    7.0511    1.2526 C   0  0  0  0  0  0  0  0  0  0  0  0
   13.6007    8.3248    1.9901 C   0  0  0  0  0  0  0  0  0  0  0  0
   14.7033    8.8921    2.7690 N   0  0  0  0  0  4  0  0  0  0  0  0
   12.2625    8.3270    2.7691 C   0  0  0  0  0  0  0  0  0  0  0  0
   11.1802    7.4398    2.1370 C   0  0  0  0  0  0  0  0  0  0  0  0
    9.7464    7.7250    2.5506 C   0  0  0  0  0  0  0  0  0  0  0  0
    9.4528    9.2006    2.6508 C   0  0  0  0  0  0  0  0  0  0  0  0
    7.9907    9.5272    2.7197 C   0  0  0  0  0  0  0  0  0  0  0  0
    7.4511    9.6605    1.5982 O   0  0  0  0  0  0  0  0  0  0  0  0
    7.2032    9.6917    3.9188 N   0  0  0  0  0  0  0  0  0  0  0  0
    5.8190   10.1244    3.8864 C   0  0  0  0  0  0  0  0  0  0  0  0
    5.0492   10.4501    2.7707 C   0  0  0  0  0  0  0  0  0  0  0  0
    3.8118   10.8137    3.2504 C   0  0  0  0  0  0  0  0  0  0  0  0
    3.7917   10.7296    4.5924 N   0  0  0  0  0  0  0  0  0  0  0  0
    5.0092   10.3116    4.9903 C   0  0  0  0  0  0  0  0  0  0  0  0
   10.3879   10.0193    3.4937 C   0  0  0  0  0  0  0  0  0  0  0  0
   11.8511    9.7804    3.1265 C   0  0  0  0  0  0  0  0  0  0  0  0
   13.2659    6.7648    0.4822 H   0  0  0  0  0  0  0  0  0  0  0  0
   14.9817    7.1940    0.7316 H   0  0  0  0  0  0  0  0  0  0  0  0
   14.1182    6.2183    1.9789 H   0  0  0  0  0  0  0  0  0  0  0  0
   13.4353    9.0292    1.1418 H   0  0  0  0  0  0  0  0  0  0  0  0
   14.5218    9.8930    3.0061 H   0  0  0  0  0  0  0  0  0  0  0  0
   15.5925    8.8665    2.2188 H   0  0  0  0  0  0  0  0  0  0  0  0
   14.8389    8.3426    3.6484 H   0  0  0  0  0  0  0  0  0  0  0  0
   12.4711    7.8390    3.7480 H   0  0  0  0  0  0  0  0  0  0  0  0
   11.2117    7.5939    1.0361 H   0  0  0  0  0  0  0  0  0  0  0  0
   11.4077    6.3669    2.3236 H   0  0  0  0  0  0  0  0  0  0  0  0
    9.0547    7.2379    1.8268 H   0  0  0  0  0  0  0  0  0  0  0  0
    9.5649    7.2656    3.5467 H   0  0  0  0  0  0  0  0  0  0  0  0
    9.7356    9.5600    1.6294 H   0  0  0  0  0  0  0  0  0  0  0  0
    7.6552    9.5149    4.8435 H   0  0  0  0  0  0  0  0  0  0  0  0
    5.3065   10.4537    1.7245 H   0  0  0  0  0  0  0  0  0  0  0  0
    2.9693   11.1301    2.6494 H   0  0  0  0  0  0  0  0  0  0  0  0
    2.9817   10.9503    5.2127 H   0  0  0  0  0  0  0  0  0  0  0  0
    5.2923   10.1545    6.0229 H   0  0  0  0  0  0  0  0  0  0  0  0
   10.1492   11.1022    3.3982 H   0  0  0  0  0  0  0  0  0  0  0  0
   10.2369    9.7340    4.5575 H   0  0  0  0  0  0  0  0  0  0  0  0
   12.4748   10.1510    3.9689 H   0  0  0  0  0  0  0  0  0  0  0  0
   12.0642   10.4412    2.2573 H   0  0  0  0  0  0  0  0  0  0  0  0
  1  2  1  0
  2  3  1  0
  2  4  1  0
  4  5  1  0
  5  6  1  0
  6  7  1  0
  7  8  1  0
  8  9  2  0
  8 10  1  0
 10 11  1  0
 11 12  1  0
 12 13  2  0
 13 14  1  0
 14 15  1  0
  7 16  1  0
 16 17  1  0
 17  4  1  0
 15 11  2  0
  1 18  1  0
  1 19  1  0
  1 20  1  0
  2 21  1  0
  3 22  1  0
  3 23  1  0
  3 24  1  0
  4 25  1  0
  5 26  1  0
  5 27  1  0
  6 28  1  0
  6 29  1  0
  7 30  1  0
 10 31  1  0
 12 32  1  0
 13 33  1  0
 14 34  1  0
 15 35  1  0
 16 36  1  0
 16 37  1  0
 17 38  1  0
 17 39  1  0
M  CHG  1   3   1
M  END
>  <EmbedRMS>  (116) 
0.3005329260886256

$$$$

     RDKit          3D

 43 43  0  0  0  0  0  0  0  0999 V2000
   13.9328    7.3327    1.0256 C   0  0  0  0  0  0  0  0  0  0  0  0
   13.7106    7.9150    2.4296 C   0  0  0  0  0  0  0  0  0  0  0  0
   14.6487    9.0167    2.6729 N   0  0  0  0  0  4  0  0  0  0  0  0
   12.2335    8.2987    2.7960 C   0  0  0  0  0  0  0  0  0  0  0  0
   11.1478    7.3148    2.3210 C   0  0  0  0  0  0  0  0  0  0  0  0
    9.7861    7.9355    2.0722 C   0  0  0  0  0  0  0  0  0  0  0  0
    9.4221    8.9837    3.1170 C   0  0  0  0  0  0  0  0  0  0  0  0
    8.0145    9.4662    2.8713 C   0  0  0  0  0  0  0  0  0  0  0  0
    7.6210    9.6843    1.6909 O   0  0  0  0  0  0  0  0  0  0  0  0
    7.1437    9.6979    3.9867 N   0  0  0  0  0  0  0  0  0  0  0  0
    5.7457   10.1462    3.8800 C   0  0  0  0  0  0  0  0  0  0  0  0
    4.9165    9.1275    3.0776 C   0  0  0  0  0  0  0  0  0  0  0  0
    5.1534   10.2537    5.2959 C   0  0  0  0  0  0  0  0  0  0  0  0
    5.6801   11.5317    3.2137 C   0  0  0  0  0  0  0  0  0  0  0  0
   10.3939   10.1678    3.0629 C   0  0  0  0  0  0  0  0  0  0  0  0
   11.8859    9.7890    2.9942 C   0  0  0  0  0  0  0  0  0  0  0  0
   13.4412    7.9749    0.2643 H   0  0  0  0  0  0  0  0  0  0  0  0
   13.5378    6.2975    0.9561 H   0  0  0  0  0  0  0  0  0  0  0  0
   15.0171    7.2758    0.7911 H   0  0  0  0  0  0  0  0  0  0  0  0
   14.0080    7.0851    3.1154 H   0  0  0  0  0  0  0  0  0  0  0  0
   14.5411    9.3807    3.6468 H   0  0  0  0  0  0  0  0  0  0  0  0
   14.5089    9.7867    1.9799 H   0  0  0  0  0  0  0  0  0  0  0  0
   15.6320    8.6704    2.5834 H   0  0  0  0  0  0  0  0  0  0  0  0
   12.2375    8.0299    3.8807 H   0  0  0  0  0  0  0  0  0  0  0  0
   11.4321    6.8306    1.3683 H   0  0  0  0  0  0  0  0  0  0  0  0
   11.0316    6.4819    3.0534 H   0  0  0  0  0  0  0  0  0  0  0  0
    9.7922    8.4045    1.0617 H   0  0  0  0  0  0  0  0  0  0  0  0
    9.0209    7.1271    2.0623 H   0  0  0  0  0  0  0  0  0  0  0  0
    9.4831    8.5112    4.1229 H   0  0  0  0  0  0  0  0  0  0  0  0
    7.5444    9.5331    4.9389 H   0  0  0  0  0  0  0  0  0  0  0  0
    3.8395    9.4025    3.0917 H   0  0  0  0  0  0  0  0  0  0  0  0
    5.0261    8.1122    3.5158 H   0  0  0  0  0  0  0  0  0  0  0  0
    5.2343    9.0851    2.0162 H   0  0  0  0  0  0  0  0  0  0  0  0
    5.1892    9.2679    5.8084 H   0  0  0  0  0  0  0  0  0  0  0  0
    4.0943   10.5901    5.2604 H   0  0  0  0  0  0  0  0  0  0  0  0
    5.7304   10.9832    5.9047 H   0  0  0  0  0  0  0  0  0  0  0  0
    5.9946   11.4920    2.1513 H   0  0  0  0  0  0  0  0  0  0  0  0
    6.3424   12.2468    3.7476 H   0  0  0  0  0  0  0  0  0  0  0  0
    4.6419   11.9283    3.2382 H   0  0  0  0  0  0  0  0  0  0  0  0
   10.2197   10.8123    3.9529 H   0  0  0  0  0  0  0  0  0  0  0  0
   10.1527   10.7919    2.1718 H   0  0  0  0  0  0  0  0  0  0  0  0
   12.3135   10.3458    2.1334 H   0  0  0  0  0  0  0  0  0  0  0  0
   12.3931   10.1935    3.8999 H   0  0  0  0  0  0  0  0  0  0  0  0
  1  2  1  0
  2  3  1  0
  2  4  1  0
  4  5  1  0
  5  6  1  0
  6  7  1  0
  7  8  1  0
  8  9  2  0
  8 10  1  0
 10 11  1  0
 11 12  1  0
 11 13  1  0
 11 14  1  0
  7 15  1  0
 15 16  1  0
 16  4  1  0
  1 17  1  0
  1 18  1  0
  1 19  1  0
  2 20  1  0
  3 21  1  0
  3 22  1  0
  3 23  1  0
  4 24  1  0
  5 25  1  0
  5 26  1  0
  6 27  1  0
  6 28  1  0
  7 29  1  0
 10 30  1  0
 12 31  1  0
 12 32  1  0
 12 33  1  0
 13 34  1  0
 13 35  1  0
 13 36  1  0
 14 37  1  0
 14 38  1  0
 14 39  1  0
 15 40  1  0
 15 41  1  0
 16 42  1  0
 16 43  1  0
M  CHG  1   3   1
M  END
>  <EmbedRMS>  (117) 
0.17423024192686873

$$$$

     RDKit          3D

 42 43  0  0  0  0  0  0  0  0999 V2000
    5.1337    8.1508    2.0250 C   0  0  0  0  0  0  0  0  0  0  0  0
    4.8481    9.1836    3.0699 C   0  0  0  0  0  0  0  0  0  0  0  0
    3.5972    9.5702    3.3847 N   0  0  0  0  0  0  0  0  0  0  0  0
    3.6940   10.4163    4.4273 C   0  0  0  0  0  0  0  0  0  0  0  0
    5.0200   10.5864    4.7890 C   0  0  0  0  0  0  0  0  0  0  0  0
    5.7612    9.8160    3.9111 C   0  0  0  0  0  0  0  0  0  0  0  0
    7.1987    9.6484    3.9458 N   0  0  0  0  0  0  0  0  0  0  0  0
    7.9778    9.5237    2.7396 C   0  0  0  0  0  0  0  0  0  0  0  0
    7.4319    9.7429    1.6311 O   0  0  0  0  0  0  0  0  0  0  0  0
    9.4420    9.1941    2.6666 C   0  0  0  0  0  0  0  0  0  0  0  0
    9.7630    7.7147    2.4364 C   0  0  0  0  0  0  0  0  0  0  0  0
   11.2625    7.3645    2.5409 C   0  0  0  0  0  0  0  0  0  0  0  0
   12.1422    8.5867    2.2327 C   0  0  0  0  0  0  0  0  0  0  0  0
   13.6535    8.3398    1.9332 C   0  0  0  0  0  0  0  0  0  0  0  0
   14.0127    7.0446    1.2248 C   0  0  0  0  0  0  0  0  0  0  0  0
   14.6167    8.7743    2.9394 N   0  0  0  0  0  4  0  0  0  0  0  0
   11.8900    9.6851    3.2857 C   0  0  0  0  0  0  0  0  0  0  0  0
   10.4060   10.0826    3.4359 C   0  0  0  0  0  0  0  0  0  0  0  0
    4.2932    7.4270    1.9793 H   0  0  0  0  0  0  0  0  0  0  0  0
    6.0538    7.5811    2.2711 H   0  0  0  0  0  0  0  0  0  0  0  0
    5.2289    8.6338    1.0309 H   0  0  0  0  0  0  0  0  0  0  0  0
    2.7121    9.2496    2.9324 H   0  0  0  0  0  0  0  0  0  0  0  0
    2.8449   10.8791    4.9127 H   0  0  0  0  0  0  0  0  0  0  0  0
    5.3986   11.1973    5.5976 H   0  0  0  0  0  0  0  0  0  0  0  0
    7.6959    9.7511    4.8581 H   0  0  0  0  0  0  0  0  0  0  0  0
    9.6850    9.5827    1.6479 H   0  0  0  0  0  0  0  0  0  0  0  0
    9.2133    7.1113    3.1912 H   0  0  0  0  0  0  0  0  0  0  0  0
    9.3797    7.3992    1.4388 H   0  0  0  0  0  0  0  0  0  0  0  0
   11.4946    7.0001    3.5658 H   0  0  0  0  0  0  0  0  0  0  0  0
   11.4710    6.5324    1.8369 H   0  0  0  0  0  0  0  0  0  0  0  0
   11.7488    8.9798    1.2659 H   0  0  0  0  0  0  0  0  0  0  0  0
   13.8431    9.0650    1.1029 H   0  0  0  0  0  0  0  0  0  0  0  0
   13.3395    6.8735    0.3573 H   0  0  0  0  0  0  0  0  0  0  0  0
   13.9233    6.1935    1.9319 H   0  0  0  0  0  0  0  0  0  0  0  0
   15.0577    7.0789    0.8479 H   0  0  0  0  0  0  0  0  0  0  0  0
   15.5919    8.5556    2.6306 H   0  0  0  0  0  0  0  0  0  0  0  0
   14.4330    8.2668    3.8347 H   0  0  0  0  0  0  0  0  0  0  0  0
   14.5653    9.8054    3.1016 H   0  0  0  0  0  0  0  0  0  0  0  0
   12.4548   10.5998    3.0034 H   0  0  0  0  0  0  0  0  0  0  0  0
   12.2738    9.3425    4.2718 H   0  0  0  0  0  0  0  0  0  0  0  0
   10.2670   11.1451    3.1301 H   0  0  0  0  0  0  0  0  0  0  0  0
   10.1383   10.0292    4.5131 H   0  0  0  0  0  0  0  0  0  0  0  0
  1  2  1  0
  2  3  1  0
  3  4  1  0
  4  5  2  0
  5  6  1  0
  6  7  1  0
  7  8  1  0
  8  9  2  0
  8 10  1  0
 10 11  1  0
 11 12  1  0
 12 13  1  0
 13 14  1  0
 14 15  1  0
 14 16  1  0
 13 17  1  0
 17 18  1  0
  6  2  2  0
 18 10  1  0
  1 19  1  0
  1 20  1  0
  1 21  1  0
  3 22  1  0
  4 23  1  0
  5 24  1  0
  7 25  1  0
 10 26  1  0
 11 27  1  0
 11 28  1  0
 12 29  1  0
 12 30  1  0
 13 31  1  0
 14 32  1  0
 15 33  1  0
 15 34  1  0
 15 35  1  0
 16 36  1  0
 16 37  1  0
 16 38  1  0
 17 39  1  0
 17 40  1  0
 18 41  1  0
 18 42  1  0
M  CHG  1  16   1
M  END
>  <EmbedRMS>  (118) 
0.24995529680257836

$$$$

     RDKit          3D

 34 34  0  0  0  0  0  0  0  0999 V2000
    5.8329   10.1084    3.8848 C   0  0  0  0  0  0  0  0  0  0  0  0
    7.2300    9.6721    3.9456 N   0  0  0  0  0  0  0  0  0  0  0  0
    7.9825    9.5176    2.7336 C   0  0  0  0  0  0  0  0  0  0  0  0
    7.4038    9.6808    1.6309 O   0  0  0  0  0  0  0  0  0  0  0  0
    9.4450    9.1949    2.6523 C   0  0  0  0  0  0  0  0  0  0  0  0
    9.7659    7.7145    2.4310 C   0  0  0  0  0  0  0  0  0  0  0  0
   11.2645    7.3643    2.5394 C   0  0  0  0  0  0  0  0  0  0  0  0
   12.1440    8.5865    2.2316 C   0  0  0  0  0  0  0  0  0  0  0  0
   13.6550    8.3396    1.9330 C   0  0  0  0  0  0  0  0  0  0  0  0
   14.0142    7.0445    1.2245 C   0  0  0  0  0  0  0  0  0  0  0  0
   14.6175    8.7737    2.9400 N   0  0  0  0  0  4  0  0  0  0  0  0
   11.8902    9.6847    3.2842 C   0  0  0  0  0  0  0  0  0  0  0  0
   10.4057   10.0818    3.4290 C   0  0  0  0  0  0  0  0  0  0  0  0
    5.7674   11.1015    3.3922 H   0  0  0  0  0  0  0  0  0  0  0  0
    5.4215   10.1915    4.9127 H   0  0  0  0  0  0  0  0  0  0  0  0
    5.2299    9.3684    3.3173 H   0  0  0  0  0  0  0  0  0  0  0  0
    7.6848    9.4991    4.8697 H   0  0  0  0  0  0  0  0  0  0  0  0
    9.6804    9.5858    1.6329 H   0  0  0  0  0  0  0  0  0  0  0  0
    9.2153    7.1145    3.1879 H   0  0  0  0  0  0  0  0  0  0  0  0
    9.3849    7.3947    1.4340 H   0  0  0  0  0  0  0  0  0  0  0  0
   11.4945    7.0012    3.5653 H   0  0  0  0  0  0  0  0  0  0  0  0
   11.4746    6.5314    1.8369 H   0  0  0  0  0  0  0  0  0  0  0  0
   11.7511    8.9795    1.2646 H   0  0  0  0  0  0  0  0  0  0  0  0
   13.8453    9.0650    1.1029 H   0  0  0  0  0  0  0  0  0  0  0  0
   15.0594    7.0787    0.8480 H   0  0  0  0  0  0  0  0  0  0  0  0
   13.3413    6.8737    0.3566 H   0  0  0  0  0  0  0  0  0  0  0  0
   13.9245    6.1932    1.9314 H   0  0  0  0  0  0  0  0  0  0  0  0
   15.5929    8.5546    2.6319 H   0  0  0  0  0  0  0  0  0  0  0  0
   14.5663    9.8048    3.1021 H   0  0  0  0  0  0  0  0  0  0  0  0
   14.4328    8.2662    3.8350 H   0  0  0  0  0  0  0  0  0  0  0  0
   12.2711    9.3420    4.2714 H   0  0  0  0  0  0  0  0  0  0  0  0
   12.4559   10.5993    3.0033 H   0  0  0  0  0  0  0  0  0  0  0  0
   10.1327   10.0263    4.5050 H   0  0  0  0  0  0  0  0  0  0  0  0
   10.2681   11.1447    3.1242 H   0  0  0  0  0  0  0  0  0  0  0  0
  1  2  1  0
  2  3  1  0
  3  4  2  0
  3  5  1  0
  5  6  1  0
  6  7  1  0
  7  8  1  0
  8  9  1  0
  9 10  1  0
  9 11  1  0
  8 12  1  0
 12 13  1  0
 13  5  1  0
  1 14  1  0
  1 15  1  0
  1 16  1  0
  2 17  1  0
  5 18  1  0
  6 19  1  0
  6 20  1  0
  7 21  1  0
  7 22  1  0
  8 23  1  0
  9 24  1  0
 10 25  1  0
 10 26  1  0
 10 27  1  0
 11 28  1  0
 11 29  1  0
 11 30  1  0
 12 31  1  0
 12 32  1  0
 13 33  1  0
 13 34  1  0
M  CHG  1  11   1
M  END
>  <EmbedRMS>  (119) 
0.29639754771625826

$$$$

     RDKit          3D

 41 41  0  0  0  0  0  0  0  0999 V2000
   14.0287    7.2297    1.0852 C   0  0  0  0  0  0  0  0  0  0  0  0
   13.6472    7.9617    2.3846 C   0  0  0  0  0  0  0  0  0  0  0  0
   14.6287    9.0232    2.6472 N   0  0  0  0  0  4  0  0  0  0  0  0
   12.1837    8.5079    2.2954 C   0  0  0  0  0  0  0  0  0  0  0  0
   11.1990    7.3496    2.5386 C   0  0  0  0  0  0  0  0  0  0  0  0
    9.7362    7.7447    2.3722 C   0  0  0  0  0  0  0  0  0  0  0  0
    9.4536    9.2163    2.6322 C   0  0  0  0  0  0  0  0  0  0  0  0
    7.9914    9.5378    2.7188 C   0  0  0  0  0  0  0  0  0  0  0  0
    7.4118    9.6671    1.6137 O   0  0  0  0  0  0  0  0  0  0  0  0
    7.2388    9.7116    3.9315 N   0  0  0  0  0  0  0  0  0  0  0  0
    5.8335   10.1426    3.8883 C   0  0  0  0  0  0  0  0  0  0  0  0
    5.6956   11.6620    4.0653 C   0  0  0  0  0  0  0  0  0  0  0  0
    6.2607   12.4772    2.8935 C   0  0  0  0  0  0  0  0  0  0  0  0
    7.9764   12.9867    3.2227 S   0  0  0  0  0  0  0  0  0  0  0  0
   10.4229   10.0769    3.4216 C   0  0  0  0  0  0  0  0  0  0  0  0
   11.8984    9.6346    3.3199 C   0  0  0  0  0  0  0  0  0  0  0  0
   13.9577    7.9166    0.2149 H   0  0  0  0  0  0  0  0  0  0  0  0
   13.3819    6.3491    0.9040 H   0  0  0  0  0  0  0  0  0  0  0  0
   15.0722    6.8549    1.1506 H   0  0  0  0  0  0  0  0  0  0  0  0
   13.7153    7.2264    3.2193 H   0  0  0  0  0  0  0  0  0  0  0  0
   14.5275    9.7972    1.9504 H   0  0  0  0  0  0  0  0  0  0  0  0
   14.5168    9.3971    3.6166 H   0  0  0  0  0  0  0  0  0  0  0  0
   15.6003    8.6407    2.5839 H   0  0  0  0  0  0  0  0  0  0  0  0
   12.0139    8.9235    1.2764 H   0  0  0  0  0  0  0  0  0  0  0  0
   11.3448    6.9679    3.5744 H   0  0  0  0  0  0  0  0  0  0  0  0
   11.3986    6.5004    1.8542 H   0  0  0  0  0  0  0  0  0  0  0  0
    9.3954    7.4698    1.3469 H   0  0  0  0  0  0  0  0  0  0  0  0
    9.1304    7.1332    3.0771 H   0  0  0  0  0  0  0  0  0  0  0  0
    9.7100    9.6219    1.6215 H   0  0  0  0  0  0  0  0  0  0  0  0
    7.7217    9.6346    4.8541 H   0  0  0  0  0  0  0  0  0  0  0  0
    5.2910    9.6443    4.7203 H   0  0  0  0  0  0  0  0  0  0  0  0
    5.3379    9.8151    2.9488 H   0  0  0  0  0  0  0  0  0  0  0  0
    4.6098   11.8870    4.1485 H   0  0  0  0  0  0  0  0  0  0  0  0
    6.1602   11.9747    5.0259 H   0  0  0  0  0  0  0  0  0  0  0  0
    6.1978   11.9196    1.9365 H   0  0  0  0  0  0  0  0  0  0  0  0
    5.6586   13.4036    2.7777 H   0  0  0  0  0  0  0  0  0  0  0  0
    8.0904   13.6379    1.9801 H   0  0  0  0  0  0  0  0  0  0  0  0
   10.3316   11.1404    3.1047 H   0  0  0  0  0  0  0  0  0  0  0  0
   10.1219   10.0442    4.4909 H   0  0  0  0  0  0  0  0  0  0  0  0
   12.2296    9.2932    4.3263 H   0  0  0  0  0  0  0  0  0  0  0  0
   12.5030   10.5303    3.0607 H   0  0  0  0  0  0  0  0  0  0  0  0
  1  2  1  0
  2  3  1  0
  2  4  1  0
  4  5  1  0
  5  6  1  0
  6  7  1  0
  7  8  1  0
  8  9  2  0
  8 10  1  0
 10 11  1  0
 11 12  1  0
 12 13  1  0
 13 14  1  0
  7 15  1  0
 15 16  1  0
 16  4  1  0
  1 17  1  0
  1 18  1  0
  1 19  1  0
  2 20  1  0
  3 21  1  0
  3 22  1  0
  3 23  1  0
  4 24  1  0
  5 25  1  0
  5 26  1  0
  6 27  1  0
  6 28  1  0
  7 29  1  0
 10 30  1  0
 11 31  1  0
 11 32  1  0
 12 33  1  0
 12 34  1  0
 13 35  1  0
 13 36  1  0
 14 37  1  0
 15 38  1  0
 15 39  1  0
 16 40  1  0
 16 41  1  0
M  CHG  1   3   1
M  END
>  <EmbedRMS>  (120) 
0.18906818759074484

$$$$

     RDKit          3D

 41 41  0  0  0  0  0  0  0  0999 V2000
   14.0128    7.0451    1.2246 C   0  0  0  0  0  0  0  0  0  0  0  0
   13.6534    8.3401    1.9332 C   0  0  0  0  0  0  0  0  0  0  0  0
   14.6165    8.7744    2.9395 N   0  0  0  0  0  4  0  0  0  0  0  0
   12.1420    8.5872    2.2327 C   0  0  0  0  0  0  0  0  0  0  0  0
   11.2631    7.3648    2.5405 C   0  0  0  0  0  0  0  0  0  0  0  0
    9.7641    7.7145    2.4333 C   0  0  0  0  0  0  0  0  0  0  0  0
    9.4407    9.1935    2.6636 C   0  0  0  0  0  0  0  0  0  0  0  0
    7.9759    9.5184    2.7373 C   0  0  0  0  0  0  0  0  0  0  0  0
    7.4055    9.6789    1.6302 O   0  0  0  0  0  0  0  0  0  0  0  0
    7.2040    9.6832    3.9346 N   0  0  0  0  0  0  0  0  0  0  0  0
    5.8641   10.1055    3.8043 N   0  0  0  0  0  0  0  0  0  0  0  0
    5.0841   10.3002    4.8217 C   0  0  0  0  0  0  0  0  0  0  0  0
    3.7250   10.7402    4.6402 N   0  0  0  0  0  0  0  0  0  0  0  0
    3.1736   10.9931    3.3107 C   0  0  0  0  0  0  0  0  0  0  0  0
    2.9039   10.9373    5.7626 N   0  0  0  0  0  0  0  0  0  0  0  0
   10.4042   10.0821    3.4346 C   0  0  0  0  0  0  0  0  0  0  0  0
   11.8889    9.6848    3.2863 C   0  0  0  0  0  0  0  0  0  0  0  0
   13.3395    6.8740    0.3571 H   0  0  0  0  0  0  0  0  0  0  0  0
   13.9237    6.1938    1.9316 H   0  0  0  0  0  0  0  0  0  0  0  0
   15.0578    7.0796    0.8475 H   0  0  0  0  0  0  0  0  0  0  0  0
   13.8429    9.0655    1.1030 H   0  0  0  0  0  0  0  0  0  0  0  0
   14.5651    9.8056    3.1016 H   0  0  0  0  0  0  0  0  0  0  0  0
   15.5918    8.5556    2.6309 H   0  0  0  0  0  0  0  0  0  0  0  0
   14.4325    8.2671    3.8348 H   0  0  0  0  0  0  0  0  0  0  0  0
   11.7481    8.9809    1.2663 H   0  0  0  0  0  0  0  0  0  0  0  0
   11.4729    6.5322    1.8376 H   0  0  0  0  0  0  0  0  0  0  0  0
   11.4938    7.0013    3.5661 H   0  0  0  0  0  0  0  0  0  0  0  0
    9.2137    7.1097    3.1865 H   0  0  0  0  0  0  0  0  0  0  0  0
    9.3838    7.3994    1.4344 H   0  0  0  0  0  0  0  0  0  0  0  0
    9.6779    9.5856    1.6451 H   0  0  0  0  0  0  0  0  0  0  0  0
    7.6358    9.5215    4.8725 H   0  0  0  0  0  0  0  0  0  0  0  0
    5.4574   10.1340    5.8255 H   0  0  0  0  0  0  0  0  0  0  0  0
    3.7613   11.7883    2.8055 H   0  0  0  0  0  0  0  0  0  0  0  0
    3.2128   10.0634    2.7049 H   0  0  0  0  0  0  0  0  0  0  0  0
    2.1160   11.3250    3.3845 H   0  0  0  0  0  0  0  0  0  0  0  0
    2.8597   10.0339    6.2873 H   0  0  0  0  0  0  0  0  0  0  0  0
    3.3700   11.6423    6.3784 H   0  0  0  0  0  0  0  0  0  0  0  0
   10.1334   10.0287    4.5113 H   0  0  0  0  0  0  0  0  0  0  0  0
   10.2657   11.1447    3.1286 H   0  0  0  0  0  0  0  0  0  0  0  0
   12.2714    9.3416    4.2727 H   0  0  0  0  0  0  0  0  0  0  0  0
   12.4541   10.5996    3.0053 H   0  0  0  0  0  0  0  0  0  0  0  0
  1  2  1  0
  2  3  1  0
  2  4  1  0
  4  5  1  0
  5  6  1  0
  6  7  1  0
  7  8  1  0
  8  9  2  0
  8 10  1  0
 10 11  1  0
 11 12  2  3
 12 13  1  0
 13 14  1  0
 13 15  1  0
  7 16  1  0
 16 17  1  0
 17  4  1  0
  1 18  1  0
  1 19  1  0
  1 20  1  0
  2 21  1  0
  3 22  1  0
  3 23  1  0
  3 24  1  0
  4 25  1  0
  5 26  1  0
  5 27  1  0
  6 28  1  0
  6 29  1  0
  7 30  1  0
 10 31  1  0
 12 32  1  0
 14 33  1  0
 14 34  1  0
 14 35  1  0
 15 36  1  0
 15 37  1  0
 16 38  1  0
 16 39  1  0
 17 40  1  0
 17 41  1  0
M  CHG  1   3   1
M  END
>  <EmbedRMS>  (121) 
0.2570984896337683

$$$$

     RDKit          3D

 43 44  0  0  0  0  0  0  0  0999 V2000
    1.7012   11.4570    4.0099 C   0  0  0  0  0  0  0  0  0  0  0  0
    3.1205   10.9980    3.9690 C   0  0  0  0  0  0  0  0  0  0  0  0
    3.7773   10.8698    2.7462 C   0  0  0  0  0  0  0  0  0  0  0  0
    5.0995   10.4431    2.7208 C   0  0  0  0  0  0  0  0  0  0  0  0
    5.7743   10.1414    3.9223 C   0  0  0  0  0  0  0  0  0  0  0  0
    7.1454    9.7003    3.9780 N   0  0  0  0  0  0  0  0  0  0  0  0
    8.0236    9.4634    2.8675 C   0  0  0  0  0  0  0  0  0  0  0  0
    7.6553    9.6765    1.6811 O   0  0  0  0  0  0  0  0  0  0  0  0
    9.4270    8.9803    3.1222 C   0  0  0  0  0  0  0  0  0  0  0  0
    9.7916    7.9322    2.0765 C   0  0  0  0  0  0  0  0  0  0  0  0
   11.1518    7.3119    2.3260 C   0  0  0  0  0  0  0  0  0  0  0  0
   12.2367    8.2979    2.7978 C   0  0  0  0  0  0  0  0  0  0  0  0
   13.7128    7.9146    2.4297 C   0  0  0  0  0  0  0  0  0  0  0  0
   13.9334    7.3332    1.0251 C   0  0  0  0  0  0  0  0  0  0  0  0
   14.6506    9.0165    2.6726 N   0  0  0  0  0  4  0  0  0  0  0  0
   11.8888    9.7883    2.9926 C   0  0  0  0  0  0  0  0  0  0  0  0
   10.3974   10.1657    3.0678 C   0  0  0  0  0  0  0  0  0  0  0  0
    5.0685   10.2864    5.1267 C   0  0  0  0  0  0  0  0  0  0  0  0
    3.7766   10.7054    5.1230 N   0  0  0  0  0  0  0  0  0  0  0  0
    1.0620   10.7535    3.4360 H   0  0  0  0  0  0  0  0  0  0  0  0
    1.6214   12.4712    3.5650 H   0  0  0  0  0  0  0  0  0  0  0  0
    1.3343   11.4977    5.0575 H   0  0  0  0  0  0  0  0  0  0  0  0
    3.2661   11.1007    1.8191 H   0  0  0  0  0  0  0  0  0  0  0  0
    5.5421   10.3708    1.7474 H   0  0  0  0  0  0  0  0  0  0  0  0
    7.5474    9.5310    4.9283 H   0  0  0  0  0  0  0  0  0  0  0  0
    9.4846    8.5083    4.1286 H   0  0  0  0  0  0  0  0  0  0  0  0
    9.8008    8.4007    1.0657 H   0  0  0  0  0  0  0  0  0  0  0  0
    9.0266    7.1235    2.0653 H   0  0  0  0  0  0  0  0  0  0  0  0
   11.0357    6.4816    3.0613 H   0  0  0  0  0  0  0  0  0  0  0  0
   11.4356    6.8245    1.3748 H   0  0  0  0  0  0  0  0  0  0  0  0
   12.2426    8.0316    3.8833 H   0  0  0  0  0  0  0  0  0  0  0  0
   14.0111    7.0844    3.1147 H   0  0  0  0  0  0  0  0  0  0  0  0
   13.4391    7.9746    0.2649 H   0  0  0  0  0  0  0  0  0  0  0  0
   13.5405    6.2972    0.9559 H   0  0  0  0  0  0  0  0  0  0  0  0
   15.0174    7.2786    0.7883 H   0  0  0  0  0  0  0  0  0  0  0  0
   14.5448    9.3791    3.6472 H   0  0  0  0  0  0  0  0  0  0  0  0
   15.6340    8.6709    2.5809 H   0  0  0  0  0  0  0  0  0  0  0  0
   14.5093    9.7874    1.9809 H   0  0  0  0  0  0  0  0  0  0  0  0
   12.4003   10.1965    3.8942 H   0  0  0  0  0  0  0  0  0  0  0  0
   12.3117   10.3420    2.1275 H   0  0  0  0  0  0  0  0  0  0  0  0
   10.2260   10.8071    3.9607 H   0  0  0  0  0  0  0  0  0  0  0  0
   10.1538   10.7932    2.1798 H   0  0  0  0  0  0  0  0  0  0  0  0
    5.5464   10.0667    6.0726 H   0  0  0  0  0  0  0  0  0  0  0  0
  1  2  1  0
  2  3  2  0
  3  4  1  0
  4  5  2  0
  5  6  1  0
  6  7  1  0
  7  8  2  0
  7  9  1  0
  9 10  1  0
 10 11  1  0
 11 12  1  0
 12 13  1  0
 13 14  1  0
 13 15  1  0
 12 16  1  0
 16 17  1  0
  5 18  1  0
 18 19  2  0
 19  2  1  0
 17  9  1  0
  1 20  1  0
  1 21  1  0
  1 22  1  0
  3 23  1  0
  4 24  1  0
  6 25  1  0
  9 26  1  0
 10 27  1  0
 10 28  1  0
 11 29  1  0
 11 30  1  0
 12 31  1  0
 13 32  1  0
 14 33  1  0
 14 34  1  0
 14 35  1  0
 15 36  1  0
 15 37  1  0
 15 38  1  0
 16 39  1  0
 16 40  1  0
 17 41  1  0
 17 42  1  0
 18 43  1  0
M  CHG  1  15   1
M  END
>  <EmbedRMS>  (122) 
0.1605149994458257

$$$$

     RDKit          3D

 41 41  0  0  0  0  0  0  0  0999 V2000
   13.9215    7.3282    1.0388 C   0  0  0  0  0  0  0  0  0  0  0  0
   13.7055    7.9212    2.4415 C   0  0  0  0  0  0  0  0  0  0  0  0
   14.6407    9.0268    2.6704 N   0  0  0  0  0  4  0  0  0  0  0  0
   12.2269    8.2940    2.8211 C   0  0  0  0  0  0  0  0  0  0  0  0
   11.1713    7.4172    2.1494 C   0  0  0  0  0  0  0  0  0  0  0  0
    9.7320    7.7246    2.5364 C   0  0  0  0  0  0  0  0  0  0  0  0
    9.4444    9.2045    2.6305 C   0  0  0  0  0  0  0  0  0  0  0  0
    7.9810    9.5394    2.7273 C   0  0  0  0  0  0  0  0  0  0  0  0
    7.3992    9.6649    1.6226 O   0  0  0  0  0  0  0  0  0  0  0  0
    7.2225    9.7109    3.9405 N   0  0  0  0  0  0  0  0  0  0  0  0
    5.9218   10.3514    3.9313 C   0  0  0  0  0  0  0  0  0  0  0  0
    5.0285    9.9718    4.7938 N   0  0  0  0  0  0  0  0  0  0  0  0
    5.6501   11.4569    3.0333 N   0  0  0  0  0  0  0  0  0  0  0  0
    4.2718   11.8421    2.7042 C   0  0  0  0  0  0  0  0  0  0  0  0
    6.7298   12.2244    2.5505 N   0  0  0  0  0  0  0  0  0  0  0  0
   10.4209   10.0516    3.4163 C   0  0  0  0  0  0  0  0  0  0  0  0
   11.8760    9.7845    2.9967 C   0  0  0  0  0  0  0  0  0  0  0  0
   14.9985    7.1176    0.8666 H   0  0  0  0  0  0  0  0  0  0  0  0
   13.5727    8.0449    0.2655 H   0  0  0  0  0  0  0  0  0  0  0  0
   13.3763    6.3680    0.9249 H   0  0  0  0  0  0  0  0  0  0  0  0
   14.0088    7.0971    3.1303 H   0  0  0  0  0  0  0  0  0  0  0  0
   14.4317    9.8275    2.0311 H   0  0  0  0  0  0  0  0  0  0  0  0
   15.6215    8.7088    2.4930 H   0  0  0  0  0  0  0  0  0  0  0  0
   14.5962    9.3368    3.6678 H   0  0  0  0  0  0  0  0  0  0  0  0
   12.1599    7.9506    3.8808 H   0  0  0  0  0  0  0  0  0  0  0  0
   11.3778    6.3437    2.3568 H   0  0  0  0  0  0  0  0  0  0  0  0
   11.2438    7.5665    1.0505 H   0  0  0  0  0  0  0  0  0  0  0  0
    9.5284    7.2706    3.5308 H   0  0  0  0  0  0  0  0  0  0  0  0
    9.0473    7.2414    1.8037 H   0  0  0  0  0  0  0  0  0  0  0  0
    9.6930    9.5385    1.5924 H   0  0  0  0  0  0  0  0  0  0  0  0
    7.5851    9.2919    4.8258 H   0  0  0  0  0  0  0  0  0  0  0  0
    4.0839   10.4061    4.8782 H   0  0  0  0  0  0  0  0  0  0  0  0
    3.8042   12.3495    3.5737 H   0  0  0  0  0  0  0  0  0  0  0  0
    4.2381   12.5328    1.8360 H   0  0  0  0  0  0  0  0  0  0  0  0
    3.6820   10.9400    2.4358 H   0  0  0  0  0  0  0  0  0  0  0  0
    7.1835   12.6771    3.3766 H   0  0  0  0  0  0  0  0  0  0  0  0
    6.3800   13.0001    1.9441 H   0  0  0  0  0  0  0  0  0  0  0  0
   10.1890   11.1314    3.2815 H   0  0  0  0  0  0  0  0  0  0  0  0
   10.3058    9.8112    4.4955 H   0  0  0  0  0  0  0  0  0  0  0  0
   12.0539   10.2953    2.0256 H   0  0  0  0  0  0  0  0  0  0  0  0
   12.5357   10.2615    3.7521 H   0  0  0  0  0  0  0  0  0  0  0  0
  1  2  1  0
  2  3  1  0
  2  4  1  0
  4  5  1  0
  5  6  1  0
  6  7  1  0
  7  8  1  0
  8  9  2  0
  8 10  1  0
 10 11  1  0
 11 12  2  3
 11 13  1  0
 13 14  1  0
 13 15  1  0
  7 16  1  0
 16 17  1  0
 17  4  1  0
  1 18  1  0
  1 19  1  0
  1 20  1  0
  2 21  1  0
  3 22  1  0
  3 23  1  0
  3 24  1  0
  4 25  1  0
  5 26  1  0
  5 27  1  0
  6 28  1  0
  6 29  1  0
  7 30  1  0
 10 31  1  0
 12 32  1  0
 14 33  1  0
 14 34  1  0
 14 35  1  0
 15 36  1  0
 15 37  1  0
 16 38  1  0
 16 39  1  0
 17 40  1  0
 17 41  1  0
M  CHG  1   3   1
M  END
>  <EmbedRMS>  (123) 
0.2696792242440413

$$$$

     RDKit          3D

 38 39  0  0  0  0  0  0  0  0999 V2000
   14.0493    7.2192    1.1050 C   0  0  0  0  0  0  0  0  0  0  0  0
   13.6503    7.9554    2.3992 C   0  0  0  0  0  0  0  0  0  0  0  0
   14.6295    9.0155    2.6713 N   0  0  0  0  0  4  0  0  0  0  0  0
   12.2011    8.5116    2.2738 C   0  0  0  0  0  0  0  0  0  0  0  0
   11.1815    7.3652    2.4353 C   0  0  0  0  0  0  0  0  0  0  0  0
    9.7734    7.8709    2.1558 C   0  0  0  0  0  0  0  0  0  0  0  0
    9.4111    8.9933    3.1335 C   0  0  0  0  0  0  0  0  0  0  0  0
    8.0159    9.4806    2.8711 C   0  0  0  0  0  0  0  0  0  0  0  0
    7.6311    9.6885    1.6876 O   0  0  0  0  0  0  0  0  0  0  0  0
    7.1427    9.7073    3.9842 N   0  0  0  0  0  0  0  0  0  0  0  0
    5.7820   10.1379    3.8914 C   0  0  0  0  0  0  0  0  0  0  0  0
    5.0432   10.4451    2.7639 C   0  0  0  0  0  0  0  0  0  0  0  0
    3.8100   10.8158    3.1566 N   0  0  0  0  0  0  0  0  0  0  0  0
    3.7586   10.7491    4.4788 N   0  0  0  0  0  0  0  0  0  0  0  0
    4.9430   10.3395    4.9611 C   0  0  0  0  0  0  0  0  0  0  0  0
   10.4250   10.1481    3.0664 C   0  0  0  0  0  0  0  0  0  0  0  0
   11.8596    9.6373    3.2817 C   0  0  0  0  0  0  0  0  0  0  0  0
   13.4187    6.3263    0.9276 H   0  0  0  0  0  0  0  0  0  0  0  0
   15.0969    6.8577    1.1808 H   0  0  0  0  0  0  0  0  0  0  0  0
   13.9786    7.8971    0.2276 H   0  0  0  0  0  0  0  0  0  0  0  0
   13.6920    7.2247    3.2393 H   0  0  0  0  0  0  0  0  0  0  0  0
   14.5439    9.7862    1.9688 H   0  0  0  0  0  0  0  0  0  0  0  0
   14.4971    9.3930    3.6371 H   0  0  0  0  0  0  0  0  0  0  0  0
   15.6010    8.6297    2.6304 H   0  0  0  0  0  0  0  0  0  0  0  0
   12.0890    8.9471    1.2539 H   0  0  0  0  0  0  0  0  0  0  0  0
   11.2353    6.9389    3.4621 H   0  0  0  0  0  0  0  0  0  0  0  0
   11.3835    6.5443    1.7190 H   0  0  0  0  0  0  0  0  0  0  0  0
    9.0579    7.0275    2.2749 H   0  0  0  0  0  0  0  0  0  0  0  0
    9.7122    8.2296    1.1037 H   0  0  0  0  0  0  0  0  0  0  0  0
    9.4482    8.5655    4.1610 H   0  0  0  0  0  0  0  0  0  0  0  0
    7.5203    9.5481    4.9456 H   0  0  0  0  0  0  0  0  0  0  0  0
    5.3519   10.4137    1.7304 H   0  0  0  0  0  0  0  0  0  0  0  0
    2.9144   10.9847    5.0456 H   0  0  0  0  0  0  0  0  0  0  0  0
    5.1732   10.2026    6.0097 H   0  0  0  0  0  0  0  0  0  0  0  0
   10.1863   10.8996    3.8504 H   0  0  0  0  0  0  0  0  0  0  0  0
   10.3597   10.6521    2.0762 H   0  0  0  0  0  0  0  0  0  0  0  0
   11.9747    9.2650    4.3237 H   0  0  0  0  0  0  0  0  0  0  0  0
   12.5388   10.5044    3.1422 H   0  0  0  0  0  0  0  0  0  0  0  0
  1  2  1  0
  2  3  1  0
  2  4  1  0
  4  5  1  0
  5  6  1  0
  6  7  1  0
  7  8  1  0
  8  9  2  0
  8 10  1  0
 10 11  1  0
 11 12  1  0
 12 13  2  0
 13 14  1  0
 14 15  1  0
  7 16  1  0
 16 17  1  0
 17  4  1  0
 15 11  2  0
  1 18  1  0
  1 19  1  0
  1 20  1  0
  2 21  1  0
  3 22  1  0
  3 23  1  0
  3 24  1  0
  4 25  1  0
  5 26  1  0
  5 27  1  0
  6 28  1  0
  6 29  1  0
  7 30  1  0
 10 31  1  0
 12 32  1  0
 14 33  1  0
 15 34  1  0
 16 35  1  0
 16 36  1  0
 17 37  1  0
 17 38  1  0
M  CHG  1   3   1
M  END
>  <EmbedRMS>  (124) 
0.03057603030946681

$$$$

     RDKit          3D

 43 43  0  0  0  0  0  0  0  0999 V2000
    5.7455   11.3191    6.0203 C   0  0  0  0  0  0  0  0  0  0  0  0
    5.0047   10.7821    4.8077 C   0  0  0  0  0  0  0  0  0  0  0  0
    3.5728   10.3507    5.0822 C   0  0  0  0  0  0  0  0  0  0  0  0
    5.7224    9.8551    3.8187 C   0  0  0  0  0  0  0  0  0  0  0  0
    7.1673    9.7742    3.9858 N   0  0  0  0  0  0  0  0  0  0  0  0
    8.0197    9.4860    2.8700 C   0  0  0  0  0  0  0  0  0  0  0  0
    7.6120    9.6782    1.6893 O   0  0  0  0  0  0  0  0  0  0  0  0
    9.4200    8.9947    3.1117 C   0  0  0  0  0  0  0  0  0  0  0  0
    9.7988    7.9256    2.0876 C   0  0  0  0  0  0  0  0  0  0  0  0
   11.1582    7.3137    2.3954 C   0  0  0  0  0  0  0  0  0  0  0  0
   12.2771    8.3213    2.7736 C   0  0  0  0  0  0  0  0  0  0  0  0
   13.5816    8.3566    1.9535 C   0  0  0  0  0  0  0  0  0  0  0  0
   13.9838    7.0979    1.1851 C   0  0  0  0  0  0  0  0  0  0  0  0
   14.7128    8.8826    2.7299 N   0  0  0  0  0  4  0  0  0  0  0  0
   11.8363    9.7189    3.3063 C   0  0  0  0  0  0  0  0  0  0  0  0
   10.4036   10.1539    3.0090 C   0  0  0  0  0  0  0  0  0  0  0  0
    6.6922   11.8134    5.7137 H   0  0  0  0  0  0  0  0  0  0  0  0
    5.9786   10.4860    6.7163 H   0  0  0  0  0  0  0  0  0  0  0  0
    5.1250   12.0678    6.5586 H   0  0  0  0  0  0  0  0  0  0  0  0
    4.8657   11.7152    4.2129 H   0  0  0  0  0  0  0  0  0  0  0  0
    3.0203   11.1491    5.6229 H   0  0  0  0  0  0  0  0  0  0  0  0
    3.0383   10.1417    4.1302 H   0  0  0  0  0  0  0  0  0  0  0  0
    3.5694    9.4316    5.7057 H   0  0  0  0  0  0  0  0  0  0  0  0
    5.4637   10.1654    2.7814 H   0  0  0  0  0  0  0  0  0  0  0  0
    5.3247    8.8235    3.9382 H   0  0  0  0  0  0  0  0  0  0  0  0
    7.5474    9.6168    4.9461 H   0  0  0  0  0  0  0  0  0  0  0  0
    9.4774    8.5519    4.1318 H   0  0  0  0  0  0  0  0  0  0  0  0
    9.0337    7.1173    2.0860 H   0  0  0  0  0  0  0  0  0  0  0  0
    9.8270    8.3640    1.0645 H   0  0  0  0  0  0  0  0  0  0  0  0
   11.4397    6.6861    1.5299 H   0  0  0  0  0  0  0  0  0  0  0  0
   11.0047    6.5964    3.2353 H   0  0  0  0  0  0  0  0  0  0  0  0
   12.6593    7.8378    3.7038 H   0  0  0  0  0  0  0  0  0  0  0  0
   13.3817    9.1007    1.1484 H   0  0  0  0  0  0  0  0  0  0  0  0
   15.0002    7.2104    0.7513 H   0  0  0  0  0  0  0  0  0  0  0  0
   13.9864    6.2209    1.8663 H   0  0  0  0  0  0  0  0  0  0  0  0
   13.2924    6.9108    0.3370 H   0  0  0  0  0  0  0  0  0  0  0  0
   14.4954    9.7894    3.1965 H   0  0  0  0  0  0  0  0  0  0  0  0
   15.5306    9.0506    2.0995 H   0  0  0  0  0  0  0  0  0  0  0  0
   14.9953    8.1887    3.4600 H   0  0  0  0  0  0  0  0  0  0  0  0
   12.4825   10.5253    2.9014 H   0  0  0  0  0  0  0  0  0  0  0  0
   11.9695    9.7477    4.4122 H   0  0  0  0  0  0  0  0  0  0  0  0
   10.1142   10.9583    3.7217 H   0  0  0  0  0  0  0  0  0  0  0  0
   10.3629   10.5881    1.9841 H   0  0  0  0  0  0  0  0  0  0  0  0
  1  2  1  0
  2  3  1  0
  2  4  1  0
  4  5  1  0
  5  6  1  0
  6  7  2  0
  6  8  1  0
  8  9  1  0
  9 10  1  0
 10 11  1  0
 11 12  1  0
 12 13  1  0
 12 14  1  0
 11 15  1  0
 15 16  1  0
 16  8  1  0
  1 17  1  0
  1 18  1  0
  1 19  1  0
  2 20  1  0
  3 21  1  0
  3 22  1  0
  3 23  1  0
  4 24  1  0
  4 25  1  0
  5 26  1  0
  8 27  1  0
  9 28  1  0
  9 29  1  0
 10 30  1  0
 10 31  1  0
 11 32  1  0
 12 33  1  0
 13 34  1  0
 13 35  1  0
 13 36  1  0
 14 37  1  0
 14 38  1  0
 14 39  1  0
 15 40  1  0
 15 41  1  0
 16 42  1  0
 16 43  1  0
M  CHG  1  14   1
M  END
>  <EmbedRMS>  (125) 
0.28373172213554615

$$$$

     RDKit          3D

 41 42  0  0  0  0  0  0  0  0999 V2000
   14.0155    7.0452    1.2243 C   0  0  0  0  0  0  0  0  0  0  0  0
   13.6577    8.3402    1.9340 C   0  0  0  0  0  0  0  0  0  0  0  0
   14.6213    8.7734    2.9399 N   0  0  0  0  0  4  0  0  0  0  0  0
   12.1479    8.5868    2.2358 C   0  0  0  0  0  0  0  0  0  0  0  0
   11.2708    7.3634    2.5450 C   0  0  0  0  0  0  0  0  0  0  0  0
    9.7738    7.7130    2.4384 C   0  0  0  0  0  0  0  0  0  0  0  0
    9.4545    9.1902    2.6817 C   0  0  0  0  0  0  0  0  0  0  0  0
    7.9930    9.5119    2.7236 C   0  0  0  0  0  0  0  0  0  0  0  0
    7.4746    9.6077    1.5899 O   0  0  0  0  0  0  0  0  0  0  0  0
    7.1920    9.7025    3.9130 N   0  0  0  0  0  0  0  0  0  0  0  0
    5.8002   10.1396    3.9098 C   0  0  0  0  0  0  0  0  0  0  0  0
    5.1136   10.2622    5.1332 C   0  0  0  0  0  0  0  0  0  0  0  0
    3.7791   10.6918    5.1678 C   0  0  0  0  0  0  0  0  0  0  0  0
    3.1050   10.9965    3.9846 C   0  0  0  0  0  0  0  0  0  0  0  0
    3.7620   10.8848    2.7663 C   0  0  0  0  0  0  0  0  0  0  0  0
    5.0915   10.4774    2.7238 C   0  0  0  0  0  0  0  0  0  0  0  0
   10.4123   10.0785    3.4530 C   0  0  0  0  0  0  0  0  0  0  0  0
   11.8967    9.6862    3.2904 C   0  0  0  0  0  0  0  0  0  0  0  0
   13.3412    6.8748    0.3575 H   0  0  0  0  0  0  0  0  0  0  0  0
   15.0600    7.0795    0.8460 H   0  0  0  0  0  0  0  0  0  0  0  0
   13.9272    6.1936    1.9310 H   0  0  0  0  0  0  0  0  0  0  0  0
   13.8472    9.0661    1.1041 H   0  0  0  0  0  0  0  0  0  0  0  0
   14.4394    8.2635    3.8342 H   0  0  0  0  0  0  0  0  0  0  0  0
   14.5690    9.8041    3.1044 H   0  0  0  0  0  0  0  0  0  0  0  0
   15.5964    8.5564    2.6293 H   0  0  0  0  0  0  0  0  0  0  0  0
   11.7549    8.9789    1.2687 H   0  0  0  0  0  0  0  0  0  0  0  0
   11.4801    6.5302    1.8427 H   0  0  0  0  0  0  0  0  0  0  0  0
   11.5022    7.0014    3.5710 H   0  0  0  0  0  0  0  0  0  0  0  0
    9.3960    7.4069    1.4357 H   0  0  0  0  0  0  0  0  0  0  0  0
    9.2216    7.1022    3.1855 H   0  0  0  0  0  0  0  0  0  0  0  0
    9.7131    9.5882    1.6698 H   0  0  0  0  0  0  0  0  0  0  0  0
    7.6559    9.5263    4.8324 H   0  0  0  0  0  0  0  0  0  0  0  0
    5.6153   10.0259    6.0630 H   0  0  0  0  0  0  0  0  0  0  0  0
    3.2672   10.7820    6.1172 H   0  0  0  0  0  0  0  0  0  0  0  0
    2.0739   11.3242    4.0170 H   0  0  0  0  0  0  0  0  0  0  0  0
    3.2415   11.1383    1.8510 H   0  0  0  0  0  0  0  0  0  0  0  0
    5.5040   10.4952    1.7386 H   0  0  0  0  0  0  0  0  0  0  0  0
   10.1475   10.0136    4.5305 H   0  0  0  0  0  0  0  0  0  0  0  0
   10.2671   11.1433    3.1573 H   0  0  0  0  0  0  0  0  0  0  0  0
   12.4562   10.6027    3.0029 H   0  0  0  0  0  0  0  0  0  0  0  0
   12.2889    9.3466    4.2742 H   0  0  0  0  0  0  0  0  0  0  0  0
  1  2  1  0
  2  3  1  0
  2  4  1  0
  4  5  1  0
  5  6  1  0
  6  7  1  0
  7  8  1  0
  8  9  2  0
  8 10  1  0
 10 11  1  0
 11 12  2  0
 12 13  1  0
 13 14  2  0
 14 15  1  0
 15 16  2  0
  7 17  1  0
 17 18  1  0
 18  4  1  0
 16 11  1  0
  1 19  1  0
  1 20  1  0
  1 21  1  0
  2 22  1  0
  3 23  1  0
  3 24  1  0
  3 25  1  0
  4 26  1  0
  5 27  1  0
  5 28  1  0
  6 29  1  0
  6 30  1  0
  7 31  1  0
 10 32  1  0
 12 33  1  0
 13 34  1  0
 14 35  1  0
 15 36  1  0
 16 37  1  0
 17 38  1  0
 17 39  1  0
 18 40  1  0
 18 41  1  0
M  CHG  1   3   1
M  END
>  <EmbedRMS>  (126) 
0.24964892458419108

$$$$

     RDKit          3D

 38 39  0  0  0  0  0  0  0  0999 V2000
   13.9842    7.0987    1.1853 C   0  0  0  0  0  0  0  0  0  0  0  0
   13.5812    8.3572    1.9537 C   0  0  0  0  0  0  0  0  0  0  0  0
   14.7119    8.8839    2.7302 N   0  0  0  0  0  4  0  0  0  0  0  0
   12.2765    8.3213    2.7737 C   0  0  0  0  0  0  0  0  0  0  0  0
   11.1597    7.3114    2.3967 C   0  0  0  0  0  0  0  0  0  0  0  0
    9.8012    7.9211    2.0835 C   0  0  0  0  0  0  0  0  0  0  0  0
    9.4166    8.9879    3.1066 C   0  0  0  0  0  0  0  0  0  0  0  0
    8.0125    9.4689    2.8599 C   0  0  0  0  0  0  0  0  0  0  0  0
    7.6232    9.6834    1.6795 O   0  0  0  0  0  0  0  0  0  0  0  0
    7.1436    9.7001    3.9777 N   0  0  0  0  0  0  0  0  0  0  0  0
    5.7812   10.1373    3.8965 C   0  0  0  0  0  0  0  0  0  0  0  0
    5.0590   10.4418    2.7529 C   0  0  0  0  0  0  0  0  0  0  0  0
    3.8212   10.8093    3.2325 C   0  0  0  0  0  0  0  0  0  0  0  0
    3.8279   10.7216    4.5742 N   0  0  0  0  0  0  0  0  0  0  0  0
    5.0150   10.3141    4.9886 N   0  0  0  0  0  0  0  0  0  0  0  0
   10.3981   10.1506    3.0073 C   0  0  0  0  0  0  0  0  0  0  0  0
   11.8327    9.7188    3.3047 C   0  0  0  0  0  0  0  0  0  0  0  0
   13.2929    6.9111    0.3372 H   0  0  0  0  0  0  0  0  0  0  0  0
   15.0005    7.2120    0.7515 H   0  0  0  0  0  0  0  0  0  0  0  0
   13.9876    6.2216    1.8665 H   0  0  0  0  0  0  0  0  0  0  0  0
   13.3808    9.1011    1.1485 H   0  0  0  0  0  0  0  0  0  0  0  0
   14.9955    8.1898    3.4595 H   0  0  0  0  0  0  0  0  0  0  0  0
   14.4928    9.7899    3.1975 H   0  0  0  0  0  0  0  0  0  0  0  0
   15.5292    9.0536    2.0996 H   0  0  0  0  0  0  0  0  0  0  0  0
   12.6593    7.8397    3.7046 H   0  0  0  0  0  0  0  0  0  0  0  0
   11.4436    6.6805    1.5344 H   0  0  0  0  0  0  0  0  0  0  0  0
   11.0047    6.5972    3.2389 H   0  0  0  0  0  0  0  0  0  0  0  0
    9.8330    8.3602    1.0608 H   0  0  0  0  0  0  0  0  0  0  0  0
    9.0379    7.1111    2.0779 H   0  0  0  0  0  0  0  0  0  0  0  0
    9.4755    8.5442    4.1262 H   0  0  0  0  0  0  0  0  0  0  0  0
    7.5254    9.5361    4.9365 H   0  0  0  0  0  0  0  0  0  0  0  0
    5.3557   10.4142    1.7158 H   0  0  0  0  0  0  0  0  0  0  0  0
    2.9703   11.1209    2.6412 H   0  0  0  0  0  0  0  0  0  0  0  0
    3.0273   10.9388    5.2077 H   0  0  0  0  0  0  0  0  0  0  0  0
   10.1052   10.9525    3.7212 H   0  0  0  0  0  0  0  0  0  0  0  0
   10.3568   10.5867    1.9833 H   0  0  0  0  0  0  0  0  0  0  0  0
   12.4776   10.5259    2.8988 H   0  0  0  0  0  0  0  0  0  0  0  0
   11.9660    9.7492    4.4105 H   0  0  0  0  0  0  0  0  0  0  0  0
  1  2  1  0
  2  3  1  0
  2  4  1  0
  4  5  1  0
  5  6  1  0
  6  7  1  0
  7  8  1  0
  8  9  2  0
  8 10  1  0
 10 11  1  0
 11 12  1  0
 12 13  2  0
 13 14  1  0
 14 15  1  0
  7 16  1  0
 16 17  1  0
 17  4  1  0
 15 11  2  0
  1 18  1  0
  1 19  1  0
  1 20  1  0
  2 21  1  0
  3 22  1  0
  3 23  1  0
  3 24  1  0
  4 25  1  0
  5 26  1  0
  5 27  1  0
  6 28  1  0
  6 29  1  0
  7 30  1  0
 10 31  1  0
 12 32  1  0
 13 33  1  0
 14 34  1  0
 16 35  1  0
 16 36  1  0
 17 37  1  0
 17 38  1  0
M  CHG  1   3   1
M  END
>  <EmbedRMS>  (127) 
0.20783527019262546

$$$$

     RDKit          3D

 41 42  0  0  0  0  0  0  0  0999 V2000
   13.9844    7.0987    1.1852 C   0  0  0  0  0  0  0  0  0  0  0  0
   13.5813    8.3571    1.9536 C   0  0  0  0  0  0  0  0  0  0  0  0
   14.7121    8.8839    2.7300 N   0  0  0  0  0  4  0  0  0  0  0  0
   12.2768    8.3212    2.7738 C   0  0  0  0  0  0  0  0  0  0  0  0
   11.1601    7.3112    2.3969 C   0  0  0  0  0  0  0  0  0  0  0  0
    9.8018    7.9209    2.0835 C   0  0  0  0  0  0  0  0  0  0  0  0
    9.4173    8.9877    3.1066 C   0  0  0  0  0  0  0  0  0  0  0  0
    8.0138    9.4689    2.8591 C   0  0  0  0  0  0  0  0  0  0  0  0
    7.6251    9.6825    1.6784 O   0  0  0  0  0  0  0  0  0  0  0  0
    7.1449    9.7019    3.9762 N   0  0  0  0  0  0  0  0  0  0  0  0
    5.7828   10.1379    3.8920 C   0  0  0  0  0  0  0  0  0  0  0  0
    5.0632   10.4442    2.7446 C   0  0  0  0  0  0  0  0  0  0  0  0
    3.8226   10.8108    3.2163 C   0  0  0  0  0  0  0  0  0  0  0  0
    3.8279   10.7100    4.5578 N   0  0  0  0  0  0  0  0  0  0  0  0
    2.7163   11.0342    5.4382 C   0  0  0  0  0  0  0  0  0  0  0  0
    5.0147   10.3126    4.9830 N   0  0  0  0  0  0  0  0  0  0  0  0
   10.3986   10.1505    3.0073 C   0  0  0  0  0  0  0  0  0  0  0  0
   11.8330    9.7187    3.3049 C   0  0  0  0  0  0  0  0  0  0  0  0
   15.0005    7.2121    0.7511 H   0  0  0  0  0  0  0  0  0  0  0  0
   13.2929    6.9109    0.3373 H   0  0  0  0  0  0  0  0  0  0  0  0
   13.9881    6.2217    1.8665 H   0  0  0  0  0  0  0  0  0  0  0  0
   13.3809    9.1011    1.1485 H   0  0  0  0  0  0  0  0  0  0  0  0
   15.5295    9.0533    2.0995 H   0  0  0  0  0  0  0  0  0  0  0  0
   14.9956    8.1899    3.4597 H   0  0  0  0  0  0  0  0  0  0  0  0
   14.4932    9.7901    3.1971 H   0  0  0  0  0  0  0  0  0  0  0  0
   12.6598    7.8396    3.7047 H   0  0  0  0  0  0  0  0  0  0  0  0
   11.0050    6.5972    3.2394 H   0  0  0  0  0  0  0  0  0  0  0  0
   11.4440    6.6800    1.5348 H   0  0  0  0  0  0  0  0  0  0  0  0
    9.0384    7.1109    2.0780 H   0  0  0  0  0  0  0  0  0  0  0  0
    9.8338    8.3598    1.0608 H   0  0  0  0  0  0  0  0  0  0  0  0
    9.4757    8.5442    4.1263 H   0  0  0  0  0  0  0  0  0  0  0  0
    7.5257    9.5388    4.9355 H   0  0  0  0  0  0  0  0  0  0  0  0
    5.3655   10.4225    1.7090 H   0  0  0  0  0  0  0  0  0  0  0  0
    2.9765   11.1294    2.6210 H   0  0  0  0  0  0  0  0  0  0  0  0
    2.6385   12.1361    5.5478 H   0  0  0  0  0  0  0  0  0  0  0  0
    1.7686   10.6392    5.0146 H   0  0  0  0  0  0  0  0  0  0  0  0
    2.8761   10.5796    6.4389 H   0  0  0  0  0  0  0  0  0  0  0  0
   10.3575   10.5865    1.9833 H   0  0  0  0  0  0  0  0  0  0  0  0
   10.1057   10.9524    3.7212 H   0  0  0  0  0  0  0  0  0  0  0  0
   11.9663    9.7490    4.4107 H   0  0  0  0  0  0  0  0  0  0  0  0
   12.4781   10.5258    2.8991 H   0  0  0  0  0  0  0  0  0  0  0  0
  1  2  1  0
  2  3  1  0
  2  4  1  0
  4  5  1  0
  5  6  1  0
  6  7  1  0
  7  8  1  0
  8  9  2  0
  8 10  1  0
 10 11  1  0
 11 12  1  0
 12 13  2  0
 13 14  1  0
 14 15  1  0
 14 16  1  0
  7 17  1  0
 17 18  1  0
 18  4  1  0
 16 11  2  0
  1 19  1  0
  1 20  1  0
  1 21  1  0
  2 22  1  0
  3 23  1  0
  3 24  1  0
  3 25  1  0
  4 26  1  0
  5 27  1  0
  5 28  1  0
  6 29  1  0
  6 30  1  0
  7 31  1  0
 10 32  1  0
 12 33  1  0
 13 34  1  0
 15 35  1  0
 15 36  1  0
 15 37  1  0
 17 38  1  0
 17 39  1  0
 18 40  1  0
 18 41  1  0
M  CHG  1   3   1
M  END
>  <EmbedRMS>  (128) 
0.20203882927987918

$$$$

     RDKit          3D

 43 43  0  0  0  0  0  0  0  0999 V2000
   13.9328    7.3327    1.0256 C   0  0  0  0  0  0  0  0  0  0  0  0
   13.7106    7.9150    2.4296 C   0  0  0  0  0  0  0  0  0  0  0  0
   14.6487    9.0167    2.6729 N   0  0  0  0  0  4  0  0  0  0  0  0
   12.2335    8.2987    2.7960 C   0  0  0  0  0  0  0  0  0  0  0  0
   11.1478    7.3148    2.3210 C   0  0  0  0  0  0  0  0  0  0  0  0
    9.7861    7.9355    2.0722 C   0  0  0  0  0  0  0  0  0  0  0  0
    9.4221    8.9837    3.1170 C   0  0  0  0  0  0  0  0  0  0  0  0
    8.0145    9.4662    2.8713 C   0  0  0  0  0  0  0  0  0  0  0  0
    7.6210    9.6843    1.6909 O   0  0  0  0  0  0  0  0  0  0  0  0
    7.1437    9.6979    3.9867 N   0  0  0  0  0  0  0  0  0  0  0  0
    5.7457   10.1462    3.8800 C   0  0  0  0  0  0  0  0  0  0  0  0
    4.9165    9.1275    3.0776 C   0  0  0  0  0  0  0  0  0  0  0  0
    5.1534   10.2537    5.2959 C   0  0  0  0  0  0  0  0  0  0  0  0
    5.6801   11.5317    3.2137 C   0  0  0  0  0  0  0  0  0  0  0  0
   10.3939   10.1678    3.0629 C   0  0  0  0  0  0  0  0  0  0  0  0
   11.8859    9.7890    2.9942 C   0  0  0  0  0  0  0  0  0  0  0  0
   13.4412    7.9749    0.2643 H   0  0  0  0  0  0  0  0  0  0  0  0
   13.5378    6.2975    0.9561 H   0  0  0  0  0  0  0  0  0  0  0  0
   15.0171    7.2758    0.7911 H   0  0  0  0  0  0  0  0  0  0  0  0
   14.0080    7.0851    3.1154 H   0  0  0  0  0  0  0  0  0  0  0  0
   14.5411    9.3807    3.6468 H   0  0  0  0  0  0  0  0  0  0  0  0
   14.5089    9.7867    1.9799 H   0  0  0  0  0  0  0  0  0  0  0  0
   15.6320    8.6704    2.5834 H   0  0  0  0  0  0  0  0  0  0  0  0
   12.2375    8.0299    3.8807 H   0  0  0  0  0  0  0  0  0  0  0  0
   11.4321    6.8306    1.3683 H   0  0  0  0  0  0  0  0  0  0  0  0
   11.0316    6.4819    3.0534 H   0  0  0  0  0  0  0  0  0  0  0  0
    9.7922    8.4045    1.0617 H   0  0  0  0  0  0  0  0  0  0  0  0
    9.0209    7.1271    2.0623 H   0  0  0  0  0  0  0  0  0  0  0  0
    9.4831    8.5112    4.1229 H   0  0  0  0  0  0  0  0  0  0  0  0
    7.5444    9.5331    4.9389 H   0  0  0  0  0  0  0  0  0  0  0  0
    3.8395    9.4025    3.0917 H   0  0  0  0  0  0  0  0  0  0  0  0
    5.0261    8.1122    3.5158 H   0  0  0  0  0  0  0  0  0  0  0  0
    5.2343    9.0851    2.0162 H   0  0  0  0  0  0  0  0  0  0  0  0
    5.1892    9.2679    5.8084 H   0  0  0  0  0  0  0  0  0  0  0  0
    4.0943   10.5901    5.2604 H   0  0  0  0  0  0  0  0  0  0  0  0
    5.7304   10.9832    5.9047 H   0  0  0  0  0  0  0  0  0  0  0  0
    5.9946   11.4920    2.1513 H   0  0  0  0  0  0  0  0  0  0  0  0
    6.3424   12.2468    3.7476 H   0  0  0  0  0  0  0  0  0  0  0  0
    4.6419   11.9283    3.2382 H   0  0  0  0  0  0  0  0  0  0  0  0
   10.2197   10.8123    3.9529 H   0  0  0  0  0  0  0  0  0  0  0  0
   10.1527   10.7919    2.1718 H   0  0  0  0  0  0  0  0  0  0  0  0
   12.3135   10.3458    2.1334 H   0  0  0  0  0  0  0  0  0  0  0  0
   12.3931   10.1935    3.8999 H   0  0  0  0  0  0  0  0  0  0  0  0
  1  2  1  0
  2  3  1  0
  2  4  1  0
  4  5  1  0
  5  6  1  0
  6  7  1  0
  7  8  1  0
  8  9  2  0
  8 10  1  0
 10 11  1  0
 11 12  1  0
 11 13  1  0
 11 14  1  0
  7 15  1  0
 15 16  1  0
 16  4  1  0
  1 17  1  0
  1 18  1  0
  1 19  1  0
  2 20  1  0
  3 21  1  0
  3 22  1  0
  3 23  1  0
  4 24  1  0
  5 25  1  0
  5 26  1  0
  6 27  1  0
  6 28  1  0
  7 29  1  0
 10 30  1  0
 12 31  1  0
 12 32  1  0
 12 33  1  0
 13 34  1  0
 13 35  1  0
 13 36  1  0
 14 37  1  0
 14 38  1  0
 14 39  1  0
 15 40  1  0
 15 41  1  0
 16 42  1  0
 16 43  1  0
M  CHG  1   3   1
M  END
>  <EmbedRMS>  (129) 
0.17423024192686873

$$$$

     RDKit          3D

 47 47  0  0  0  0  0  0  0  0999 V2000
    5.1047    7.8810    5.6812 C   0  0  0  0  0  0  0  0  0  0  0  0
    4.6304    7.9103    4.2600 C   0  0  0  0  0  0  0  0  0  0  0  0
    4.9029    8.9099    3.3923 C   0  0  0  0  0  0  0  0  0  0  0  0
    5.7359   10.1027    3.8260 C   0  0  0  0  0  0  0  0  0  0  0  0
    7.1361    9.7260    3.9838 N   0  0  0  0  0  0  0  0  0  0  0  0
    8.0073    9.4824    2.8742 C   0  0  0  0  0  0  0  0  0  0  0  0
    7.6108    9.6863    1.6926 O   0  0  0  0  0  0  0  0  0  0  0  0
    9.4049    8.9955    3.1351 C   0  0  0  0  0  0  0  0  0  0  0  0
    9.7687    7.8725    2.1577 C   0  0  0  0  0  0  0  0  0  0  0  0
   11.1779    7.3665    2.4361 C   0  0  0  0  0  0  0  0  0  0  0  0
   12.1983    8.5123    2.2741 C   0  0  0  0  0  0  0  0  0  0  0  0
   13.6480    7.9558    2.3995 C   0  0  0  0  0  0  0  0  0  0  0  0
   14.0473    7.2194    1.1054 C   0  0  0  0  0  0  0  0  0  0  0  0
   14.6275    9.0157    2.6716 N   0  0  0  0  0  4  0  0  0  0  0  0
   11.8564    9.6378    3.2819 C   0  0  0  0  0  0  0  0  0  0  0  0
   10.4211   10.1490    3.0672 C   0  0  0  0  0  0  0  0  0  0  0  0
    4.3801    8.8557    1.9938 C   0  0  0  0  0  0  0  0  0  0  0  0
    3.6085    7.6654    1.4884 C   0  0  0  0  0  0  0  0  0  0  0  0
    4.5738    9.8630    1.1999 N   0  0  0  0  0  0  0  0  0  0  0  0
    6.2122    7.8436    5.7191 H   0  0  0  0  0  0  0  0  0  0  0  0
    4.7307    8.7661    6.2363 H   0  0  0  0  0  0  0  0  0  0  0  0
    4.7149    6.9708    6.1834 H   0  0  0  0  0  0  0  0  0  0  0  0
    4.0275    7.0657    3.9564 H   0  0  0  0  0  0  0  0  0  0  0  0
    5.6631   10.9528    3.1163 H   0  0  0  0  0  0  0  0  0  0  0  0
    5.3487   10.4962    4.7898 H   0  0  0  0  0  0  0  0  0  0  0  0
    7.5301    9.6942    4.9512 H   0  0  0  0  0  0  0  0  0  0  0  0
    9.4385    8.5691    4.1634 H   0  0  0  0  0  0  0  0  0  0  0  0
    9.0531    7.0291    2.2772 H   0  0  0  0  0  0  0  0  0  0  0  0
    9.7061    8.2313    1.1058 H   0  0  0  0  0  0  0  0  0  0  0  0
   11.2320    6.9402    3.4628 H   0  0  0  0  0  0  0  0  0  0  0  0
   11.3793    6.5456    1.7197 H   0  0  0  0  0  0  0  0  0  0  0  0
   12.0860    8.9475    1.2542 H   0  0  0  0  0  0  0  0  0  0  0  0
   13.6894    7.2251    3.2396 H   0  0  0  0  0  0  0  0  0  0  0  0
   13.9778    7.8976    0.2282 H   0  0  0  0  0  0  0  0  0  0  0  0
   13.4155    6.3274    0.9274 H   0  0  0  0  0  0  0  0  0  0  0  0
   15.0944    6.8568    1.1819 H   0  0  0  0  0  0  0  0  0  0  0  0
   15.5990    8.6296    2.6311 H   0  0  0  0  0  0  0  0  0  0  0  0
   14.4947    9.3935    3.6372 H   0  0  0  0  0  0  0  0  0  0  0  0
   14.5422    9.7863    1.9689 H   0  0  0  0  0  0  0  0  0  0  0  0
   11.9717    9.2655    4.3239 H   0  0  0  0  0  0  0  0  0  0  0  0
   12.5357   10.5049    3.1425 H   0  0  0  0  0  0  0  0  0  0  0  0
   10.3553   10.6527    2.0770 H   0  0  0  0  0  0  0  0  0  0  0  0
   10.1832   10.9012    3.8509 H   0  0  0  0  0  0  0  0  0  0  0  0
    3.3606    7.7659    0.4104 H   0  0  0  0  0  0  0  0  0  0  0  0
    4.2147    6.7431    1.6095 H   0  0  0  0  0  0  0  0  0  0  0  0
    2.6570    7.5671    2.0517 H   0  0  0  0  0  0  0  0  0  0  0  0
    4.2238    9.8839    0.2159 H   0  0  0  0  0  0  0  0  0  0  0  0
  1  2  1  0
  2  3  2  3
  3  4  1  0
  4  5  1  0
  5  6  1  0
  6  7  2  0
  6  8  1  0
  8  9  1  0
  9 10  1  0
 10 11  1  0
 11 12  1  0
 12 13  1  0
 12 14  1  0
 11 15  1  0
 15 16  1  0
  3 17  1  0
 17 18  1  0
 17 19  2  3
 16  8  1  0
  1 20  1  0
  1 21  1  0
  1 22  1  0
  2 23  1  0
  4 24  1  0
  4 25  1  0
  5 26  1  0
  8 27  1  0
  9 28  1  0
  9 29  1  0
 10 30  1  0
 10 31  1  0
 11 32  1  0
 12 33  1  0
 13 34  1  0
 13 35  1  0
 13 36  1  0
 14 37  1  0
 14 38  1  0
 14 39  1  0
 15 40  1  0
 15 41  1  0
 16 42  1  0
 16 43  1  0
 18 44  1  0
 18 45  1  0
 18 46  1  0
 19 47  1  0
M  CHG  1  14   1
M  END
>  <EmbedRMS>  (130) 
0.029553590920788075

$$$$

     RDKit          3D

 37 37  0  0  0  0  0  0  0  0999 V2000
    4.9010    8.9493    3.3214 C   0  0  0  0  0  0  0  0  0  0  0  0
    5.7477   10.1185    3.8091 C   0  0  0  0  0  0  0  0  0  0  0  0
    7.1378    9.7075    3.9757 N   0  0  0  0  0  0  0  0  0  0  0  0
    8.0091    9.4709    2.8632 C   0  0  0  0  0  0  0  0  0  0  0  0
    7.6090    9.6877    1.6849 O   0  0  0  0  0  0  0  0  0  0  0  0
    9.4140    8.9898    3.1084 C   0  0  0  0  0  0  0  0  0  0  0  0
    9.7981    7.9225    2.0853 C   0  0  0  0  0  0  0  0  0  0  0  0
   11.1578    7.3127    2.3960 C   0  0  0  0  0  0  0  0  0  0  0  0
   12.2752    8.3218    2.7734 C   0  0  0  0  0  0  0  0  0  0  0  0
   13.5805    8.3571    1.9538 C   0  0  0  0  0  0  0  0  0  0  0  0
   13.9836    7.0985    1.1857 C   0  0  0  0  0  0  0  0  0  0  0  0
   14.7111    8.8839    2.7305 N   0  0  0  0  0  4  0  0  0  0  0  0
   11.8317    9.7194    3.3044 C   0  0  0  0  0  0  0  0  0  0  0  0
   10.3968   10.1516    3.0079 C   0  0  0  0  0  0  0  0  0  0  0  0
    4.9738    8.1023    4.0363 H   0  0  0  0  0  0  0  0  0  0  0  0
    5.2401    8.6114    2.3200 H   0  0  0  0  0  0  0  0  0  0  0  0
    3.8390    9.2647    3.2475 H   0  0  0  0  0  0  0  0  0  0  0  0
    5.6836   10.9644    3.0910 H   0  0  0  0  0  0  0  0  0  0  0  0
    5.3476   10.4660    4.7862 H   0  0  0  0  0  0  0  0  0  0  0  0
    7.5181    9.6307    4.9461 H   0  0  0  0  0  0  0  0  0  0  0  0
    9.4709    8.5475    4.1287 H   0  0  0  0  0  0  0  0  0  0  0  0
    9.8276    8.3613    1.0624 H   0  0  0  0  0  0  0  0  0  0  0  0
    9.0349    7.1124    2.0811 H   0  0  0  0  0  0  0  0  0  0  0  0
   11.0040    6.5968    3.2371 H   0  0  0  0  0  0  0  0  0  0  0  0
   11.4410    6.6836    1.5321 H   0  0  0  0  0  0  0  0  0  0  0  0
   12.6575    7.8399    3.7045 H   0  0  0  0  0  0  0  0  0  0  0  0
   13.3805    9.1010    1.1485 H   0  0  0  0  0  0  0  0  0  0  0  0
   15.0000    7.2116    0.7521 H   0  0  0  0  0  0  0  0  0  0  0  0
   13.2924    6.9108    0.3375 H   0  0  0  0  0  0  0  0  0  0  0  0
   13.9867    6.2216    1.8670 H   0  0  0  0  0  0  0  0  0  0  0  0
   14.9942    8.1900    3.4603 H   0  0  0  0  0  0  0  0  0  0  0  0
   14.4920    9.7901    3.1973 H   0  0  0  0  0  0  0  0  0  0  0  0
   15.5287    9.0531    2.1001 H   0  0  0  0  0  0  0  0  0  0  0  0
   12.4766   10.5261    2.8979 H   0  0  0  0  0  0  0  0  0  0  0  0
   11.9658    9.7500    4.4102 H   0  0  0  0  0  0  0  0  0  0  0  0
   10.3549   10.5873    1.9838 H   0  0  0  0  0  0  0  0  0  0  0  0
   10.1049   10.9541    3.7216 H   0  0  0  0  0  0  0  0  0  0  0  0
  1  2  1  0
  2  3  1  0
  3  4  1  0
  4  5  2  0
  4  6  1  0
  6  7  1  0
  7  8  1  0
  8  9  1  0
  9 10  1  0
 10 11  1  0
 10 12  1  0
  9 13  1  0
 13 14  1  0
 14  6  1  0
  1 15  1  0
  1 16  1  0
  1 17  1  0
  2 18  1  0
  2 19  1  0
  3 20  1  0
  6 21  1  0
  7 22  1  0
  7 23  1  0
  8 24  1  0
  8 25  1  0
  9 26  1  0
 10 27  1  0
 11 28  1  0
 11 29  1  0
 11 30  1  0
 12 31  1  0
 12 32  1  0
 12 33  1  0
 13 34  1  0
 13 35  1  0
 14 36  1  0
 14 37  1  0
M  CHG  1  12   1
M  END
>  <EmbedRMS>  (131) 
0.22880006867790334

$$$$

     RDKit          3D

 41 42  0  0  0  0  0  0  0  0999 V2000
   13.9847    7.0988    1.1849 C   0  0  0  0  0  0  0  0  0  0  0  0
   13.5816    8.3572    1.9535 C   0  0  0  0  0  0  0  0  0  0  0  0
   14.7124    8.8838    2.7300 N   0  0  0  0  0  4  0  0  0  0  0  0
   12.2773    8.3209    2.7737 C   0  0  0  0  0  0  0  0  0  0  0  0
   11.1607    7.3107    2.3967 C   0  0  0  0  0  0  0  0  0  0  0  0
    9.8034    7.9207    2.0803 C   0  0  0  0  0  0  0  0  0  0  0  0
    9.4183    8.9872    3.1024 C   0  0  0  0  0  0  0  0  0  0  0  0
    8.0148    9.4682    2.8544 C   0  0  0  0  0  0  0  0  0  0  0  0
    7.6247    9.6822    1.6746 O   0  0  0  0  0  0  0  0  0  0  0  0
    7.1491    9.7011    3.9721 N   0  0  0  0  0  0  0  0  0  0  0  0
    5.7839   10.1362    3.8888 C   0  0  0  0  0  0  0  0  0  0  0  0
    5.0471   10.4441    2.7548 C   0  0  0  0  0  0  0  0  0  0  0  0
    3.8048   10.8205    3.1167 N   0  0  0  0  0  0  0  0  0  0  0  0
    3.7319   10.7593    4.4601 C   0  0  0  0  0  0  0  0  0  0  0  0
    4.9425   10.3388    4.9630 C   0  0  0  0  0  0  0  0  0  0  0  0
    5.2501   10.1517    6.3450 N   0  0  0  0  0  0  0  0  0  0  0  0
   10.3993   10.1503    3.0056 C   0  0  0  0  0  0  0  0  0  0  0  0
   11.8332    9.7183    3.3050 C   0  0  0  0  0  0  0  0  0  0  0  0
   13.9884    6.2217    1.8660 H   0  0  0  0  0  0  0  0  0  0  0  0
   13.2931    6.9113    0.3370 H   0  0  0  0  0  0  0  0  0  0  0  0
   15.0007    7.2123    0.7507 H   0  0  0  0  0  0  0  0  0  0  0  0
   13.3811    9.1013    1.1486 H   0  0  0  0  0  0  0  0  0  0  0  0
   14.9961    8.1896    3.4592 H   0  0  0  0  0  0  0  0  0  0  0  0
   14.4935    9.7897    3.1975 H   0  0  0  0  0  0  0  0  0  0  0  0
   15.5297    9.0536    2.0993 H   0  0  0  0  0  0  0  0  0  0  0  0
   12.6604    7.8392    3.7044 H   0  0  0  0  0  0  0  0  0  0  0  0
   11.0039    6.5984    3.2403 H   0  0  0  0  0  0  0  0  0  0  0  0
   11.4456    6.6777    1.5363 H   0  0  0  0  0  0  0  0  0  0  0  0
    9.0397    7.1111    2.0734 H   0  0  0  0  0  0  0  0  0  0  0  0
    9.8376    8.3598    1.0576 H   0  0  0  0  0  0  0  0  0  0  0  0
    9.4769    8.5424    4.1216 H   0  0  0  0  0  0  0  0  0  0  0  0
    7.5505    9.5419    4.9216 H   0  0  0  0  0  0  0  0  0  0  0  0
    5.3694   10.4077    1.7257 H   0  0  0  0  0  0  0  0  0  0  0  0
    3.0363   11.1086    2.4715 H   0  0  0  0  0  0  0  0  0  0  0  0
    2.8497   11.0064    5.0363 H   0  0  0  0  0  0  0  0  0  0  0  0
    6.1878    9.8233    6.6606 H   0  0  0  0  0  0  0  0  0  0  0  0
    4.5231   10.3419    7.0698 H   0  0  0  0  0  0  0  0  0  0  0  0
   10.3596   10.5871    1.9819 H   0  0  0  0  0  0  0  0  0  0  0  0
   10.1052   10.9516    3.7198 H   0  0  0  0  0  0  0  0  0  0  0  0
   11.9647    9.7478    4.4111 H   0  0  0  0  0  0  0  0  0  0  0  0
   12.4788   10.5255    2.9007 H   0  0  0  0  0  0  0  0  0  0  0  0
  1  2  1  0
  2  3  1  0
  2  4  1  0
  4  5  1  0
  5  6  1  0
  6  7  1  0
  7  8  1  0
  8  9  2  0
  8 10  1  0
 10 11  1  0
 11 12  2  0
 12 13  1  0
 13 14  1  0
 14 15  2  0
 15 16  1  0
  7 17  1  0
 17 18  1  0
 18  4  1  0
 15 11  1  0
  1 19  1  0
  1 20  1  0
  1 21  1  0
  2 22  1  0
  3 23  1  0
  3 24  1  0
  3 25  1  0
  4 26  1  0
  5 27  1  0
  5 28  1  0
  6 29  1  0
  6 30  1  0
  7 31  1  0
 10 32  1  0
 12 33  1  0
 13 34  1  0
 14 35  1  0
 16 36  1  0
 16 37  1  0
 17 38  1  0
 17 39  1  0
 18 40  1  0
 18 41  1  0
M  CHG  1   3   1
M  END
>  <EmbedRMS>  (132) 
0.20222811455084339

$$$$

     RDKit          3D

 41 42  0  0  0  0  0  0  0  0999 V2000
   13.9847    7.0988    1.1849 C   0  0  0  0  0  0  0  0  0  0  0  0
   13.5816    8.3572    1.9535 C   0  0  0  0  0  0  0  0  0  0  0  0
   14.7124    8.8838    2.7300 N   0  0  0  0  0  4  0  0  0  0  0  0
   12.2773    8.3209    2.7737 C   0  0  0  0  0  0  0  0  0  0  0  0
   11.1607    7.3107    2.3967 C   0  0  0  0  0  0  0  0  0  0  0  0
    9.8034    7.9207    2.0803 C   0  0  0  0  0  0  0  0  0  0  0  0
    9.4183    8.9872    3.1024 C   0  0  0  0  0  0  0  0  0  0  0  0
    8.0148    9.4682    2.8544 C   0  0  0  0  0  0  0  0  0  0  0  0
    7.6247    9.6822    1.6746 O   0  0  0  0  0  0  0  0  0  0  0  0
    7.1491    9.7011    3.9721 N   0  0  0  0  0  0  0  0  0  0  0  0
    5.7839   10.1362    3.8888 C   0  0  0  0  0  0  0  0  0  0  0  0
    5.0471   10.4441    2.7548 C   0  0  0  0  0  0  0  0  0  0  0  0
    3.8048   10.8205    3.1167 N   0  0  0  0  0  0  0  0  0  0  0  0
    3.7319   10.7593    4.4601 C   0  0  0  0  0  0  0  0  0  0  0  0
    4.9425   10.3388    4.9630 C   0  0  0  0  0  0  0  0  0  0  0  0
    5.2501   10.1517    6.3450 N   0  0  0  0  0  0  0  0  0  0  0  0
   10.3993   10.1503    3.0056 C   0  0  0  0  0  0  0  0  0  0  0  0
   11.8332    9.7183    3.3050 C   0  0  0  0  0  0  0  0  0  0  0  0
   13.9884    6.2217    1.8660 H   0  0  0  0  0  0  0  0  0  0  0  0
   13.2931    6.9113    0.3370 H   0  0  0  0  0  0  0  0  0  0  0  0
   15.0007    7.2123    0.7507 H   0  0  0  0  0  0  0  0  0  0  0  0
   13.3811    9.1013    1.1486 H   0  0  0  0  0  0  0  0  0  0  0  0
   14.9961    8.1896    3.4592 H   0  0  0  0  0  0  0  0  0  0  0  0
   14.4935    9.7897    3.1975 H   0  0  0  0  0  0  0  0  0  0  0  0
   15.5297    9.0536    2.0993 H   0  0  0  0  0  0  0  0  0  0  0  0
   12.6604    7.8392    3.7044 H   0  0  0  0  0  0  0  0  0  0  0  0
   11.0039    6.5984    3.2403 H   0  0  0  0  0  0  0  0  0  0  0  0
   11.4456    6.6777    1.5363 H   0  0  0  0  0  0  0  0  0  0  0  0
    9.0397    7.1111    2.0734 H   0  0  0  0  0  0  0  0  0  0  0  0
    9.8376    8.3598    1.0576 H   0  0  0  0  0  0  0  0  0  0  0  0
    9.4769    8.5424    4.1216 H   0  0  0  0  0  0  0  0  0  0  0  0
    7.5505    9.5419    4.9216 H   0  0  0  0  0  0  0  0  0  0  0  0
    5.3694   10.4077    1.7257 H   0  0  0  0  0  0  0  0  0  0  0  0
    3.0363   11.1086    2.4715 H   0  0  0  0  0  0  0  0  0  0  0  0
    2.8497   11.0064    5.0363 H   0  0  0  0  0  0  0  0  0  0  0  0
    6.1878    9.8233    6.6606 H   0  0  0  0  0  0  0  0  0  0  0  0
    4.5231   10.3419    7.0698 H   0  0  0  0  0  0  0  0  0  0  0  0
   10.3596   10.5871    1.9819 H   0  0  0  0  0  0  0  0  0  0  0  0
   10.1052   10.9516    3.7198 H   0  0  0  0  0  0  0  0  0  0  0  0
   11.9647    9.7478    4.4111 H   0  0  0  0  0  0  0  0  0  0  0  0
   12.4788   10.5255    2.9007 H   0  0  0  0  0  0  0  0  0  0  0  0
  1  2  1  0
  2  3  1  0
  2  4  1  0
  4  5  1  0
  5  6  1  0
  6  7  1  0
  7  8  1  0
  8  9  2  0
  8 10  1  0
 10 11  1  0
 11 12  2  0
 12 13  1  0
 13 14  1  0
 14 15  2  0
 15 16  1  0
  7 17  1  0
 17 18  1  0
 18  4  1  0
 15 11  1  0
  1 19  1  0
  1 20  1  0
  1 21  1  0
  2 22  1  0
  3 23  1  0
  3 24  1  0
  3 25  1  0
  4 26  1  0
  5 27  1  0
  5 28  1  0
  6 29  1  0
  6 30  1  0
  7 31  1  0
 10 32  1  0
 12 33  1  0
 13 34  1  0
 14 35  1  0
 16 36  1  0
 16 37  1  0
 17 38  1  0
 17 39  1  0
 18 40  1  0
 18 41  1  0
M  CHG  1   3   1
M  END
>  <EmbedRMS>  (133) 
0.20222811455084339

$$$$

     RDKit          3D

 42 42  0  0  0  0  0  0  0  0999 V2000
    8.6750    8.1658    7.0703 C   0  0  0  0  0  0  0  0  0  0  0  0
    8.3763    8.4580    5.8022 C   0  0  0  0  0  0  0  0  0  0  0  0
    7.3143    9.3915    5.3537 C   0  0  0  0  0  0  0  0  0  0  0  0
    6.4078    9.8578    6.2465 C   0  0  0  0  0  0  0  0  0  0  0  0
    5.2565   10.7471    5.8877 C   0  0  0  0  0  0  0  0  0  0  0  0
    7.1493    9.7152    3.9495 N   0  0  0  0  0  0  0  0  0  0  0  0
    7.9765    9.4983    2.7821 C   0  0  0  0  0  0  0  0  0  0  0  0
    7.4301    9.6608    1.6607 O   0  0  0  0  0  0  0  0  0  0  0  0
    9.4445    9.1811    2.6937 C   0  0  0  0  0  0  0  0  0  0  0  0
    9.7537    7.7156    2.4382 C   0  0  0  0  0  0  0  0  0  0  0  0
   11.2038    7.4507    2.0892 C   0  0  0  0  0  0  0  0  0  0  0  0
   12.2683    8.3270    2.7571 C   0  0  0  0  0  0  0  0  0  0  0  0
   13.6145    8.3244    1.9914 C   0  0  0  0  0  0  0  0  0  0  0  0
   14.0289    7.0506    1.2546 C   0  0  0  0  0  0  0  0  0  0  0  0
   14.7105    8.8911    2.7788 N   0  0  0  0  0  4  0  0  0  0  0  0
   11.8580    9.7797    3.1035 C   0  0  0  0  0  0  0  0  0  0  0  0
   10.4067   10.0105    3.5026 C   0  0  0  0  0  0  0  0  0  0  0  0
    9.4522    7.4407    7.2763 H   0  0  0  0  0  0  0  0  0  0  0  0
    8.2207    8.6429    7.9236 H   0  0  0  0  0  0  0  0  0  0  0  0
    8.9290    7.9270    5.0689 H   0  0  0  0  0  0  0  0  0  0  0  0
    6.4522    9.5905    7.2899 H   0  0  0  0  0  0  0  0  0  0  0  0
    5.6232   11.6730    5.3961 H   0  0  0  0  0  0  0  0  0  0  0  0
    4.7085   11.0385    6.8086 H   0  0  0  0  0  0  0  0  0  0  0  0
    4.5465   10.2109    5.2233 H   0  0  0  0  0  0  0  0  0  0  0  0
    6.2337   10.1339    3.6758 H   0  0  0  0  0  0  0  0  0  0  0  0
    9.6986    9.5966    1.6856 H   0  0  0  0  0  0  0  0  0  0  0  0
    9.1148    7.3426    1.6051 H   0  0  0  0  0  0  0  0  0  0  0  0
    9.4972    7.0769    3.2974 H   0  0  0  0  0  0  0  0  0  0  0  0
   11.2718    7.6249    0.9927 H   0  0  0  0  0  0  0  0  0  0  0  0
   11.4331    6.3748    2.2587 H   0  0  0  0  0  0  0  0  0  0  0  0
   12.4573    7.8339    3.7373 H   0  0  0  0  0  0  0  0  0  0  0  0
   13.4588    9.0294    1.1415 H   0  0  0  0  0  0  0  0  0  0  0  0
   14.1162    6.2135    1.9787 H   0  0  0  0  0  0  0  0  0  0  0  0
   13.3003    6.7723    0.4659 H   0  0  0  0  0  0  0  0  0  0  0  0
   15.0110    7.1880    0.7539 H   0  0  0  0  0  0  0  0  0  0  0  0
   14.5373    9.8979    2.9966 H   0  0  0  0  0  0  0  0  0  0  0  0
   15.6086    8.8475    2.2446 H   0  0  0  0  0  0  0  0  0  0  0  0
   14.8256    8.3542    3.6688 H   0  0  0  0  0  0  0  0  0  0  0  0
   12.4979   10.1655    3.9267 H   0  0  0  0  0  0  0  0  0  0  0  0
   12.0458   10.4293    2.2200 H   0  0  0  0  0  0  0  0  0  0  0  0
   10.1603   11.0919    3.4053 H   0  0  0  0  0  0  0  0  0  0  0  0
   10.3056    9.7529    4.5738 H   0  0  0  0  0  0  0  0  0  0  0  0
  1  2  2  3
  2  3  1  0
  3  4  2  3
  4  5  1  0
  3  6  1  0
  6  7  1  0
  7  8  2  0
  7  9  1  0
  9 10  1  0
 10 11  1  0
 11 12  1  0
 12 13  1  0
 13 14  1  0
 13 15  1  0
 12 16  1  0
 16 17  1  0
 17  9  1  0
  1 18  1  0
  1 19  1  0
  2 20  1  0
  4 21  1  0
  5 22  1  0
  5 23  1  0
  5 24  1  0
  6 25  1  0
  9 26  1  0
 10 27  1  0
 10 28  1  0
 11 29  1  0
 11 30  1  0
 12 31  1  0
 13 32  1  0
 14 33  1  0
 14 34  1  0
 14 35  1  0
 15 36  1  0
 15 37  1  0
 15 38  1  0
 16 39  1  0
 16 40  1  0
 17 41  1  0
 17 42  1  0
M  CHG  1  15   1
M  END
>  <EmbedRMS>  (134) 
0.29216731409503444

$$$$

     RDKit          3D

 41 42  0  0  0  0  0  0  0  0999 V2000
   14.0506    7.2193    1.1046 C   0  0  0  0  0  0  0  0  0  0  0  0
   13.6523    7.9552    2.3991 C   0  0  0  0  0  0  0  0  0  0  0  0
   14.6310    9.0158    2.6708 N   0  0  0  0  0  4  0  0  0  0  0  0
   12.2031    8.5107    2.2747 C   0  0  0  0  0  0  0  0  0  0  0  0
   11.1853    7.3632    2.4382 C   0  0  0  0  0  0  0  0  0  0  0  0
    9.7777    7.8674    2.1595 C   0  0  0  0  0  0  0  0  0  0  0  0
    9.4154    8.9902    3.1373 C   0  0  0  0  0  0  0  0  0  0  0  0
    8.0242    9.4779    2.8652 C   0  0  0  0  0  0  0  0  0  0  0  0
    7.6624    9.6804    1.6757 O   0  0  0  0  0  0  0  0  0  0  0  0
    7.1410    9.7102    3.9734 N   0  0  0  0  0  0  0  0  0  0  0  0
    5.7697   10.1451    3.9212 C   0  0  0  0  0  0  0  0  0  0  0  0
    5.0976   10.4459    2.7160 C   0  0  0  0  0  0  0  0  0  0  0  0
    3.7728   10.8735    2.7336 C   0  0  0  0  0  0  0  0  0  0  0  0
    3.0955   11.0090    3.9434 C   0  0  0  0  0  0  0  0  0  0  0  0
    1.4311   11.5505    3.9490 Cl  0  0  0  0  0  0  0  0  0  0  0  0
    3.7439   10.7143    5.1441 C   0  0  0  0  0  0  0  0  0  0  0  0
    5.0718   10.2850    5.1333 C   0  0  0  0  0  0  0  0  0  0  0  0
   10.4277   10.1461    3.0687 C   0  0  0  0  0  0  0  0  0  0  0  0
   11.8622    9.6365    3.2826 C   0  0  0  0  0  0  0  0  0  0  0  0
   13.9789    7.8973    0.2273 H   0  0  0  0  0  0  0  0  0  0  0  0
   15.0984    6.8586    1.1795 H   0  0  0  0  0  0  0  0  0  0  0  0
   13.4205    6.3261    0.9274 H   0  0  0  0  0  0  0  0  0  0  0  0
   13.6950    7.2244    3.2391 H   0  0  0  0  0  0  0  0  0  0  0  0
   14.4992    9.3929    3.6368 H   0  0  0  0  0  0  0  0  0  0  0  0
   15.6027    8.6305    2.6290 H   0  0  0  0  0  0  0  0  0  0  0  0
   14.5446    9.7866    1.9685 H   0  0  0  0  0  0  0  0  0  0  0  0
   12.0897    8.9456    1.2547 H   0  0  0  0  0  0  0  0  0  0  0  0
   11.2401    6.9380    3.4653 H   0  0  0  0  0  0  0  0  0  0  0  0
   11.3872    6.5418    1.7225 H   0  0  0  0  0  0  0  0  0  0  0  0
    9.7171    8.2241    1.1066 H   0  0  0  0  0  0  0  0  0  0  0  0
    9.0629    7.0234    2.2794 H   0  0  0  0  0  0  0  0  0  0  0  0
    9.4504    8.5631    4.1650 H   0  0  0  0  0  0  0  0  0  0  0  0
    7.5417    9.5468    4.9252 H   0  0  0  0  0  0  0  0  0  0  0  0
    5.5458   10.3731    1.7452 H   0  0  0  0  0  0  0  0  0  0  0  0
    3.2700   11.1026    1.8021 H   0  0  0  0  0  0  0  0  0  0  0  0
    3.2203   10.8184    6.0860 H   0  0  0  0  0  0  0  0  0  0  0  0
    5.5580   10.0630    6.0751 H   0  0  0  0  0  0  0  0  0  0  0  0
   10.3617   10.6500    2.0784 H   0  0  0  0  0  0  0  0  0  0  0  0
   10.1891   10.8976    3.8528 H   0  0  0  0  0  0  0  0  0  0  0  0
   11.9786    9.2646    4.3246 H   0  0  0  0  0  0  0  0  0  0  0  0
   12.5407   10.5040    3.1421 H   0  0  0  0  0  0  0  0  0  0  0  0
  1  2  1  0
  2  3  1  0
  2  4  1  0
  4  5  1  0
  5  6  1  0
  6  7  1  0
  7  8  1  0
  8  9  2  0
  8 10  1  0
 10 11  1  0
 11 12  2  0
 12 13  1  0
 13 14  2  0
 14 15  1  0
 14 16  1  0
 16 17  2  0
  7 18  1  0
 18 19  1  0
 19  4  1  0
 17 11  1  0
  1 20  1  0
  1 21  1  0
  1 22  1  0
  2 23  1  0
  3 24  1  0
  3 25  1  0
  3 26  1  0
  4 27  1  0
  5 28  1  0
  5 29  1  0
  6 30  1  0
  6 31  1  0
  7 32  1  0
 10 33  1  0
 12 34  1  0
 13 35  1  0
 16 36  1  0
 17 37  1  0
 18 38  1  0
 18 39  1  0
 19 40  1  0
 19 41  1  0
M  CHG  1   3   1
M  END
>  <EmbedRMS>  (135) 
0.03263599400313068

$$$$

     RDKit          3D

 43 43  0  0  0  0  0  0  0  0999 V2000
    5.7455   11.3191    6.0203 C   0  0  0  0  0  0  0  0  0  0  0  0
    5.0047   10.7821    4.8077 C   0  0  0  0  0  0  0  0  0  0  0  0
    3.5728   10.3507    5.0822 C   0  0  0  0  0  0  0  0  0  0  0  0
    5.7224    9.8551    3.8187 C   0  0  0  0  0  0  0  0  0  0  0  0
    7.1673    9.7742    3.9858 N   0  0  0  0  0  0  0  0  0  0  0  0
    8.0197    9.4860    2.8700 C   0  0  0  0  0  0  0  0  0  0  0  0
    7.6120    9.6782    1.6893 O   0  0  0  0  0  0  0  0  0  0  0  0
    9.4200    8.9947    3.1117 C   0  0  0  0  0  0  0  0  0  0  0  0
    9.7988    7.9256    2.0876 C   0  0  0  0  0  0  0  0  0  0  0  0
   11.1582    7.3137    2.3954 C   0  0  0  0  0  0  0  0  0  0  0  0
   12.2771    8.3213    2.7736 C   0  0  0  0  0  0  0  0  0  0  0  0
   13.5816    8.3566    1.9535 C   0  0  0  0  0  0  0  0  0  0  0  0
   13.9838    7.0979    1.1851 C   0  0  0  0  0  0  0  0  0  0  0  0
   14.7128    8.8826    2.7299 N   0  0  0  0  0  4  0  0  0  0  0  0
   11.8363    9.7189    3.3063 C   0  0  0  0  0  0  0  0  0  0  0  0
   10.4036   10.1539    3.0090 C   0  0  0  0  0  0  0  0  0  0  0  0
    6.6922   11.8134    5.7137 H   0  0  0  0  0  0  0  0  0  0  0  0
    5.9786   10.4860    6.7163 H   0  0  0  0  0  0  0  0  0  0  0  0
    5.1250   12.0678    6.5586 H   0  0  0  0  0  0  0  0  0  0  0  0
    4.8657   11.7152    4.2129 H   0  0  0  0  0  0  0  0  0  0  0  0
    3.0203   11.1491    5.6229 H   0  0  0  0  0  0  0  0  0  0  0  0
    3.0383   10.1417    4.1302 H   0  0  0  0  0  0  0  0  0  0  0  0
    3.5694    9.4316    5.7057 H   0  0  0  0  0  0  0  0  0  0  0  0
    5.4637   10.1654    2.7814 H   0  0  0  0  0  0  0  0  0  0  0  0
    5.3247    8.8235    3.9382 H   0  0  0  0  0  0  0  0  0  0  0  0
    7.5474    9.6168    4.9461 H   0  0  0  0  0  0  0  0  0  0  0  0
    9.4774    8.5519    4.1318 H   0  0  0  0  0  0  0  0  0  0  0  0
    9.0337    7.1173    2.0860 H   0  0  0  0  0  0  0  0  0  0  0  0
    9.8270    8.3640    1.0645 H   0  0  0  0  0  0  0  0  0  0  0  0
   11.4397    6.6861    1.5299 H   0  0  0  0  0  0  0  0  0  0  0  0
   11.0047    6.5964    3.2353 H   0  0  0  0  0  0  0  0  0  0  0  0
   12.6593    7.8378    3.7038 H   0  0  0  0  0  0  0  0  0  0  0  0
   13.3817    9.1007    1.1484 H   0  0  0  0  0  0  0  0  0  0  0  0
   15.0002    7.2104    0.7513 H   0  0  0  0  0  0  0  0  0  0  0  0
   13.9864    6.2209    1.8663 H   0  0  0  0  0  0  0  0  0  0  0  0
   13.2924    6.9108    0.3370 H   0  0  0  0  0  0  0  0  0  0  0  0
   14.4954    9.7894    3.1965 H   0  0  0  0  0  0  0  0  0  0  0  0
   15.5306    9.0506    2.0995 H   0  0  0  0  0  0  0  0  0  0  0  0
   14.9953    8.1887    3.4600 H   0  0  0  0  0  0  0  0  0  0  0  0
   12.4825   10.5253    2.9014 H   0  0  0  0  0  0  0  0  0  0  0  0
   11.9695    9.7477    4.4122 H   0  0  0  0  0  0  0  0  0  0  0  0
   10.1142   10.9583    3.7217 H   0  0  0  0  0  0  0  0  0  0  0  0
   10.3629   10.5881    1.9841 H   0  0  0  0  0  0  0  0  0  0  0  0
  1  2  1  0
  2  3  1  0
  2  4  1  0
  4  5  1  0
  5  6  1  0
  6  7  2  0
  6  8  1  0
  8  9  1  0
  9 10  1  0
 10 11  1  0
 11 12  1  0
 12 13  1  0
 12 14  1  0
 11 15  1  0
 15 16  1  0
 16  8  1  0
  1 17  1  0
  1 18  1  0
  1 19  1  0
  2 20  1  0
  3 21  1  0
  3 22  1  0
  3 23  1  0
  4 24  1  0
  4 25  1  0
  5 26  1  0
  8 27  1  0
  9 28  1  0
  9 29  1  0
 10 30  1  0
 10 31  1  0
 11 32  1  0
 12 33  1  0
 13 34  1  0
 13 35  1  0
 13 36  1  0
 14 37  1  0
 14 38  1  0
 14 39  1  0
 15 40  1  0
 15 41  1  0
 16 42  1  0
 16 43  1  0
M  CHG  1  14   1
M  END
>  <EmbedRMS>  (136) 
0.28373172213554615

$$$$

     RDKit          3D

 37 37  0  0  0  0  0  0  0  0999 V2000
    4.9010    8.9493    3.3214 C   0  0  0  0  0  0  0  0  0  0  0  0
    5.7477   10.1185    3.8091 C   0  0  0  0  0  0  0  0  0  0  0  0
    7.1378    9.7075    3.9757 N   0  0  0  0  0  0  0  0  0  0  0  0
    8.0091    9.4709    2.8632 C   0  0  0  0  0  0  0  0  0  0  0  0
    7.6090    9.6877    1.6849 O   0  0  0  0  0  0  0  0  0  0  0  0
    9.4140    8.9898    3.1084 C   0  0  0  0  0  0  0  0  0  0  0  0
    9.7981    7.9225    2.0853 C   0  0  0  0  0  0  0  0  0  0  0  0
   11.1578    7.3127    2.3960 C   0  0  0  0  0  0  0  0  0  0  0  0
   12.2752    8.3218    2.7734 C   0  0  0  0  0  0  0  0  0  0  0  0
   13.5805    8.3571    1.9538 C   0  0  0  0  0  0  0  0  0  0  0  0
   13.9836    7.0985    1.1857 C   0  0  0  0  0  0  0  0  0  0  0  0
   14.7111    8.8839    2.7305 N   0  0  0  0  0  4  0  0  0  0  0  0
   11.8317    9.7194    3.3044 C   0  0  0  0  0  0  0  0  0  0  0  0
   10.3968   10.1516    3.0079 C   0  0  0  0  0  0  0  0  0  0  0  0
    4.9738    8.1023    4.0363 H   0  0  0  0  0  0  0  0  0  0  0  0
    5.2401    8.6114    2.3200 H   0  0  0  0  0  0  0  0  0  0  0  0
    3.8390    9.2647    3.2475 H   0  0  0  0  0  0  0  0  0  0  0  0
    5.6836   10.9644    3.0910 H   0  0  0  0  0  0  0  0  0  0  0  0
    5.3476   10.4660    4.7862 H   0  0  0  0  0  0  0  0  0  0  0  0
    7.5181    9.6307    4.9461 H   0  0  0  0  0  0  0  0  0  0  0  0
    9.4709    8.5475    4.1287 H   0  0  0  0  0  0  0  0  0  0  0  0
    9.8276    8.3613    1.0624 H   0  0  0  0  0  0  0  0  0  0  0  0
    9.0349    7.1124    2.0811 H   0  0  0  0  0  0  0  0  0  0  0  0
   11.0040    6.5968    3.2371 H   0  0  0  0  0  0  0  0  0  0  0  0
   11.4410    6.6836    1.5321 H   0  0  0  0  0  0  0  0  0  0  0  0
   12.6575    7.8399    3.7045 H   0  0  0  0  0  0  0  0  0  0  0  0
   13.3805    9.1010    1.1485 H   0  0  0  0  0  0  0  0  0  0  0  0
   15.0000    7.2116    0.7521 H   0  0  0  0  0  0  0  0  0  0  0  0
   13.2924    6.9108    0.3375 H   0  0  0  0  0  0  0  0  0  0  0  0
   13.9867    6.2216    1.8670 H   0  0  0  0  0  0  0  0  0  0  0  0
   14.9942    8.1900    3.4603 H   0  0  0  0  0  0  0  0  0  0  0  0
   14.4920    9.7901    3.1973 H   0  0  0  0  0  0  0  0  0  0  0  0
   15.5287    9.0531    2.1001 H   0  0  0  0  0  0  0  0  0  0  0  0
   12.4766   10.5261    2.8979 H   0  0  0  0  0  0  0  0  0  0  0  0
   11.9658    9.7500    4.4102 H   0  0  0  0  0  0  0  0  0  0  0  0
   10.3549   10.5873    1.9838 H   0  0  0  0  0  0  0  0  0  0  0  0
   10.1049   10.9541    3.7216 H   0  0  0  0  0  0  0  0  0  0  0  0
  1  2  1  0
  2  3  1  0
  3  4  1  0
  4  5  2  0
  4  6  1  0
  6  7  1  0
  7  8  1  0
  8  9  1  0
  9 10  1  0
 10 11  1  0
 10 12  1  0
  9 13  1  0
 13 14  1  0
 14  6  1  0
  1 15  1  0
  1 16  1  0
  1 17  1  0
  2 18  1  0
  2 19  1  0
  3 20  1  0
  6 21  1  0
  7 22  1  0
  7 23  1  0
  8 24  1  0
  8 25  1  0
  9 26  1  0
 10 27  1  0
 11 28  1  0
 11 29  1  0
 11 30  1  0
 12 31  1  0
 12 32  1  0
 12 33  1  0
 13 34  1  0
 13 35  1  0
 14 36  1  0
 14 37  1  0
M  CHG  1  12   1
M  END
>  <EmbedRMS>  (137) 
0.22880006867790334

$$$$

     RDKit          3D

 44 44  0  0  0  0  0  0  0  0999 V2000
    6.6437   12.2790    2.6486 C   0  0  0  0  0  0  0  0  0  0  0  0
    5.6131   11.5301    3.0449 C   0  0  0  0  0  0  0  0  0  0  0  0
    4.2786   11.9209    2.6893 N   0  0  0  0  0  0  0  0  0  0  0  0
    5.8501   10.3502    3.9226 C   0  0  0  0  0  0  0  0  0  0  0  0
    4.8812    9.9484    4.7654 C   0  0  0  0  0  0  0  0  0  0  0  0
    5.0470    8.7995    5.7114 C   0  0  0  0  0  0  0  0  0  0  0  0
    7.1470    9.7278    3.9965 N   0  0  0  0  0  0  0  0  0  0  0  0
    8.0090    9.4745    2.8802 C   0  0  0  0  0  0  0  0  0  0  0  0
    7.6086    9.6631    1.6969 O   0  0  0  0  0  0  0  0  0  0  0  0
    9.4086    8.9874    3.1492 C   0  0  0  0  0  0  0  0  0  0  0  0
    9.7850    7.8278    2.2083 C   0  0  0  0  0  0  0  0  0  0  0  0
   11.2371    7.3785    2.4499 C   0  0  0  0  0  0  0  0  0  0  0  0
   12.1565    8.5902    2.2116 C   0  0  0  0  0  0  0  0  0  0  0  0
   13.6682    8.3360    1.9397 C   0  0  0  0  0  0  0  0  0  0  0  0
   14.0268    7.0391    1.2346 C   0  0  0  0  0  0  0  0  0  0  0  0
   14.6124    8.7684    2.9623 N   0  0  0  0  0  4  0  0  0  0  0  0
   11.8544    9.6809    3.2540 C   0  0  0  0  0  0  0  0  0  0  0  0
   10.4054   10.1605    3.0857 C   0  0  0  0  0  0  0  0  0  0  0  0
    6.5020   13.1585    2.0336 H   0  0  0  0  0  0  0  0  0  0  0  0
    6.5020   13.1585    2.0336 H   0  0  0  0  0  0  0  0  0  0  0  0
    3.4754   11.2614    2.7816 H   0  0  0  0  0  0  0  0  0  0  0  0
    4.0934   12.8307    2.2102 H   0  0  0  0  0  0  0  0  0  0  0  0
    3.9278   10.4583    4.7978 H   0  0  0  0  0  0  0  0  0  0  0  0
    4.0823    8.5941    6.2211 H   0  0  0  0  0  0  0  0  0  0  0  0
    5.3539    7.8870    5.1574 H   0  0  0  0  0  0  0  0  0  0  0  0
    5.8024    9.0447    6.4868 H   0  0  0  0  0  0  0  0  0  0  0  0
    7.4943    9.4390    4.9382 H   0  0  0  0  0  0  0  0  0  0  0  0
    9.4488    8.5797    4.1842 H   0  0  0  0  0  0  0  0  0  0  0  0
    9.1080    6.9662    2.3979 H   0  0  0  0  0  0  0  0  0  0  0  0
    9.6564    8.1282    1.1444 H   0  0  0  0  0  0  0  0  0  0  0  0
   11.3647    6.9871    3.4829 H   0  0  0  0  0  0  0  0  0  0  0  0
   11.4596    6.5584    1.7370 H   0  0  0  0  0  0  0  0  0  0  0  0
   11.8023    9.0102    1.2370 H   0  0  0  0  0  0  0  0  0  0  0  0
   13.8824    9.0574    1.1113 H   0  0  0  0  0  0  0  0  0  0  0  0
   13.9056    6.1862    1.9348 H   0  0  0  0  0  0  0  0  0  0  0  0
   15.0821    7.0592    0.8866 H   0  0  0  0  0  0  0  0  0  0  0  0
   13.3762    6.8820    0.3473 H   0  0  0  0  0  0  0  0  0  0  0  0
   15.5885    8.5012    2.6977 H   0  0  0  0  0  0  0  0  0  0  0  0
   14.3763    8.3026    3.8679 H   0  0  0  0  0  0  0  0  0  0  0  0
   14.5957    9.8058    3.0873 H   0  0  0  0  0  0  0  0  0  0  0  0
   12.0178    9.2942    4.2838 H   0  0  0  0  0  0  0  0  0  0  0  0
   12.5084   10.5637    3.0959 H   0  0  0  0  0  0  0  0  0  0  0  0
   10.3033   10.6893    2.1114 H   0  0  0  0  0  0  0  0  0  0  0  0
   10.1709   10.8905    3.8913 H   0  0  0  0  0  0  0  0  0  0  0  0
  1  2  2  3
  2  3  1  0
  2  4  1  0
  4  5  2  3
  5  6  1  0
  4  7  1  0
  7  8  1  0
  8  9  2  0
  8 10  1  0
 10 11  1  0
 11 12  1  0
 12 13  1  0
 13 14  1  0
 14 15  1  0
 14 16  1  0
 13 17  1  0
 17 18  1  0
 18 10  1  0
  1 19  1  0
  1 20  1  0
  3 21  1  0
  3 22  1  0
  5 23  1  0
  6 24  1  0
  6 25  1  0
  6 26  1  0
  7 27  1  0
 10 28  1  0
 11 29  1  0
 11 30  1  0
 12 31  1  0
 12 32  1  0
 13 33  1  0
 14 34  1  0
 15 35  1  0
 15 36  1  0
 15 37  1  0
 16 38  1  0
 16 39  1  0
 16 40  1  0
 17 41  1  0
 17 42  1  0
 18 43  1  0
 18 44  1  0
M  CHG  1  16   1
M  END
>  <EmbedRMS>  (138) 
0.18324839054966638

$$$$

     RDKit          3D

 42 42  0  0  0  0  0  0  0  0999 V2000
    8.6750    8.1658    7.0703 C   0  0  0  0  0  0  0  0  0  0  0  0
    8.3763    8.4580    5.8022 C   0  0  0  0  0  0  0  0  0  0  0  0
    7.3143    9.3915    5.3537 C   0  0  0  0  0  0  0  0  0  0  0  0
    6.4078    9.8578    6.2465 C   0  0  0  0  0  0  0  0  0  0  0  0
    5.2565   10.7471    5.8877 C   0  0  0  0  0  0  0  0  0  0  0  0
    7.1493    9.7152    3.9495 N   0  0  0  0  0  0  0  0  0  0  0  0
    7.9765    9.4983    2.7821 C   0  0  0  0  0  0  0  0  0  0  0  0
    7.4301    9.6608    1.6607 O   0  0  0  0  0  0  0  0  0  0  0  0
    9.4445    9.1811    2.6937 C   0  0  0  0  0  0  0  0  0  0  0  0
    9.7537    7.7156    2.4382 C   0  0  0  0  0  0  0  0  0  0  0  0
   11.2038    7.4507    2.0892 C   0  0  0  0  0  0  0  0  0  0  0  0
   12.2683    8.3270    2.7571 C   0  0  0  0  0  0  0  0  0  0  0  0
   13.6145    8.3244    1.9914 C   0  0  0  0  0  0  0  0  0  0  0  0
   14.0289    7.0506    1.2546 C   0  0  0  0  0  0  0  0  0  0  0  0
   14.7105    8.8911    2.7788 N   0  0  0  0  0  4  0  0  0  0  0  0
   11.8580    9.7797    3.1035 C   0  0  0  0  0  0  0  0  0  0  0  0
   10.4067   10.0105    3.5026 C   0  0  0  0  0  0  0  0  0  0  0  0
    9.4522    7.4407    7.2763 H   0  0  0  0  0  0  0  0  0  0  0  0
    8.2207    8.6429    7.9236 H   0  0  0  0  0  0  0  0  0  0  0  0
    8.9290    7.9270    5.0689 H   0  0  0  0  0  0  0  0  0  0  0  0
    6.4522    9.5905    7.2899 H   0  0  0  0  0  0  0  0  0  0  0  0
    5.6232   11.6730    5.3961 H   0  0  0  0  0  0  0  0  0  0  0  0
    4.7085   11.0385    6.8086 H   0  0  0  0  0  0  0  0  0  0  0  0
    4.5465   10.2109    5.2233 H   0  0  0  0  0  0  0  0  0  0  0  0
    6.2337   10.1339    3.6758 H   0  0  0  0  0  0  0  0  0  0  0  0
    9.6986    9.5966    1.6856 H   0  0  0  0  0  0  0  0  0  0  0  0
    9.1148    7.3426    1.6051 H   0  0  0  0  0  0  0  0  0  0  0  0
    9.4972    7.0769    3.2974 H   0  0  0  0  0  0  0  0  0  0  0  0
   11.2718    7.6249    0.9927 H   0  0  0  0  0  0  0  0  0  0  0  0
   11.4331    6.3748    2.2587 H   0  0  0  0  0  0  0  0  0  0  0  0
   12.4573    7.8339    3.7373 H   0  0  0  0  0  0  0  0  0  0  0  0
   13.4588    9.0294    1.1415 H   0  0  0  0  0  0  0  0  0  0  0  0
   14.1162    6.2135    1.9787 H   0  0  0  0  0  0  0  0  0  0  0  0
   13.3003    6.7723    0.4659 H   0  0  0  0  0  0  0  0  0  0  0  0
   15.0110    7.1880    0.7539 H   0  0  0  0  0  0  0  0  0  0  0  0
   14.5373    9.8979    2.9966 H   0  0  0  0  0  0  0  0  0  0  0  0
   15.6086    8.8475    2.2446 H   0  0  0  0  0  0  0  0  0  0  0  0
   14.8256    8.3542    3.6688 H   0  0  0  0  0  0  0  0  0  0  0  0
   12.4979   10.1655    3.9267 H   0  0  0  0  0  0  0  0  0  0  0  0
   12.0458   10.4293    2.2200 H   0  0  0  0  0  0  0  0  0  0  0  0
   10.1603   11.0919    3.4053 H   0  0  0  0  0  0  0  0  0  0  0  0
   10.3056    9.7529    4.5738 H   0  0  0  0  0  0  0  0  0  0  0  0
  1  2  2  3
  2  3  1  0
  3  4  2  3
  4  5  1  0
  3  6  1  0
  6  7  1  0
  7  8  2  0
  7  9  1  0
  9 10  1  0
 10 11  1  0
 11 12  1  0
 12 13  1  0
 13 14  1  0
 13 15  1  0
 12 16  1  0
 16 17  1  0
 17  9  1  0
  1 18  1  0
  1 19  1  0
  2 20  1  0
  4 21  1  0
  5 22  1  0
  5 23  1  0
  5 24  1  0
  6 25  1  0
  9 26  1  0
 10 27  1  0
 10 28  1  0
 11 29  1  0
 11 30  1  0
 12 31  1  0
 13 32  1  0
 14 33  1  0
 14 34  1  0
 14 35  1  0
 15 36  1  0
 15 37  1  0
 15 38  1  0
 16 39  1  0
 16 40  1  0
 17 41  1  0
 17 42  1  0
M  CHG  1  15   1
M  END
>  <EmbedRMS>  (139) 
0.29216731409503444

$$$$

     RDKit          3D

 41 42  0  0  0  0  0  0  0  0999 V2000
   14.0155    7.0452    1.2243 C   0  0  0  0  0  0  0  0  0  0  0  0
   13.6577    8.3402    1.9340 C   0  0  0  0  0  0  0  0  0  0  0  0
   14.6213    8.7734    2.9399 N   0  0  0  0  0  4  0  0  0  0  0  0
   12.1479    8.5868    2.2358 C   0  0  0  0  0  0  0  0  0  0  0  0
   11.2708    7.3634    2.5450 C   0  0  0  0  0  0  0  0  0  0  0  0
    9.7738    7.7130    2.4384 C   0  0  0  0  0  0  0  0  0  0  0  0
    9.4545    9.1902    2.6817 C   0  0  0  0  0  0  0  0  0  0  0  0
    7.9930    9.5119    2.7236 C   0  0  0  0  0  0  0  0  0  0  0  0
    7.4746    9.6077    1.5899 O   0  0  0  0  0  0  0  0  0  0  0  0
    7.1920    9.7025    3.9130 N   0  0  0  0  0  0  0  0  0  0  0  0
    5.8002   10.1396    3.9098 C   0  0  0  0  0  0  0  0  0  0  0  0
    5.1136   10.2622    5.1332 C   0  0  0  0  0  0  0  0  0  0  0  0
    3.7791   10.6918    5.1678 C   0  0  0  0  0  0  0  0  0  0  0  0
    3.1050   10.9965    3.9846 C   0  0  0  0  0  0  0  0  0  0  0  0
    3.7620   10.8848    2.7663 C   0  0  0  0  0  0  0  0  0  0  0  0
    5.0915   10.4774    2.7238 C   0  0  0  0  0  0  0  0  0  0  0  0
   10.4123   10.0785    3.4530 C   0  0  0  0  0  0  0  0  0  0  0  0
   11.8967    9.6862    3.2904 C   0  0  0  0  0  0  0  0  0  0  0  0
   13.3412    6.8748    0.3575 H   0  0  0  0  0  0  0  0  0  0  0  0
   15.0600    7.0795    0.8460 H   0  0  0  0  0  0  0  0  0  0  0  0
   13.9272    6.1936    1.9310 H   0  0  0  0  0  0  0  0  0  0  0  0
   13.8472    9.0661    1.1041 H   0  0  0  0  0  0  0  0  0  0  0  0
   14.4394    8.2635    3.8342 H   0  0  0  0  0  0  0  0  0  0  0  0
   14.5690    9.8041    3.1044 H   0  0  0  0  0  0  0  0  0  0  0  0
   15.5964    8.5564    2.6293 H   0  0  0  0  0  0  0  0  0  0  0  0
   11.7549    8.9789    1.2687 H   0  0  0  0  0  0  0  0  0  0  0  0
   11.4801    6.5302    1.8427 H   0  0  0  0  0  0  0  0  0  0  0  0
   11.5022    7.0014    3.5710 H   0  0  0  0  0  0  0  0  0  0  0  0
    9.3960    7.4069    1.4357 H   0  0  0  0  0  0  0  0  0  0  0  0
    9.2216    7.1022    3.1855 H   0  0  0  0  0  0  0  0  0  0  0  0
    9.7131    9.5882    1.6698 H   0  0  0  0  0  0  0  0  0  0  0  0
    7.6559    9.5263    4.8324 H   0  0  0  0  0  0  0  0  0  0  0  0
    5.6153   10.0259    6.0630 H   0  0  0  0  0  0  0  0  0  0  0  0
    3.2672   10.7820    6.1172 H   0  0  0  0  0  0  0  0  0  0  0  0
    2.0739   11.3242    4.0170 H   0  0  0  0  0  0  0  0  0  0  0  0
    3.2415   11.1383    1.8510 H   0  0  0  0  0  0  0  0  0  0  0  0
    5.5040   10.4952    1.7386 H   0  0  0  0  0  0  0  0  0  0  0  0
   10.1475   10.0136    4.5305 H   0  0  0  0  0  0  0  0  0  0  0  0
   10.2671   11.1433    3.1573 H   0  0  0  0  0  0  0  0  0  0  0  0
   12.4562   10.6027    3.0029 H   0  0  0  0  0  0  0  0  0  0  0  0
   12.2889    9.3466    4.2742 H   0  0  0  0  0  0  0  0  0  0  0  0
  1  2  1  0
  2  3  1  0
  2  4  1  0
  4  5  1  0
  5  6  1  0
  6  7  1  0
  7  8  1  0
  8  9  2  0
  8 10  1  0
 10 11  1  0
 11 12  2  0
 12 13  1  0
 13 14  2  0
 14 15  1  0
 15 16  2  0
  7 17  1  0
 17 18  1  0
 18  4  1  0
 16 11  1  0
  1 19  1  0
  1 20  1  0
  1 21  1  0
  2 22  1  0
  3 23  1  0
  3 24  1  0
  3 25  1  0
  4 26  1  0
  5 27  1  0
  5 28  1  0
  6 29  1  0
  6 30  1  0
  7 31  1  0
 10 32  1  0
 12 33  1  0
 13 34  1  0
 14 35  1  0
 15 36  1  0
 16 37  1  0
 17 38  1  0
 17 39  1  0
 18 40  1  0
 18 41  1  0
M  CHG  1   3   1
M  END
>  <EmbedRMS>  (140) 
0.24964892458419108

$$$$

     RDKit          3D

 44 45  0  0  0  0  0  0  0  0999 V2000
    5.7363    9.9715    6.4656 C   0  0  0  0  0  0  0  0  0  0  0  0
    5.0873   10.2728    5.1444 C   0  0  0  0  0  0  0  0  0  0  0  0
    3.7465   10.7056    5.1401 C   0  0  0  0  0  0  0  0  0  0  0  0
    3.0948   11.0014    3.9462 C   0  0  0  0  0  0  0  0  0  0  0  0
    3.7702   10.8834    2.7433 C   0  0  0  0  0  0  0  0  0  0  0  0
    5.0985   10.4784    2.7242 C   0  0  0  0  0  0  0  0  0  0  0  0
    5.7984   10.1434    3.9177 C   0  0  0  0  0  0  0  0  0  0  0  0
    7.1984    9.7105    3.9068 N   0  0  0  0  0  0  0  0  0  0  0  0
    7.9986    9.5333    2.7122 C   0  0  0  0  0  0  0  0  0  0  0  0
    7.4773    9.6168    1.5804 O   0  0  0  0  0  0  0  0  0  0  0  0
    9.4604    9.2111    2.6585 C   0  0  0  0  0  0  0  0  0  0  0  0
    9.7421    7.7424    2.3801 C   0  0  0  0  0  0  0  0  0  0  0  0
   11.2036    7.3487    2.5455 C   0  0  0  0  0  0  0  0  0  0  0  0
   12.1857    8.5085    2.2995 C   0  0  0  0  0  0  0  0  0  0  0  0
   13.6492    7.9628    2.3856 C   0  0  0  0  0  0  0  0  0  0  0  0
   14.0287    7.2306    1.0856 C   0  0  0  0  0  0  0  0  0  0  0  0
   14.6304    9.0249    2.6460 N   0  0  0  0  0  4  0  0  0  0  0  0
   11.9025    9.6387    3.3237 C   0  0  0  0  0  0  0  0  0  0  0  0
   10.4244   10.0710    3.4473 C   0  0  0  0  0  0  0  0  0  0  0  0
    6.5949   10.6566    6.6268 H   0  0  0  0  0  0  0  0  0  0  0  0
    6.0907    8.9193    6.4792 H   0  0  0  0  0  0  0  0  0  0  0  0
    5.0315   10.1021    7.3144 H   0  0  0  0  0  0  0  0  0  0  0  0
    3.1987   10.8112    6.0685 H   0  0  0  0  0  0  0  0  0  0  0  0
    2.0633   11.3295    3.9585 H   0  0  0  0  0  0  0  0  0  0  0  0
    3.2645   11.1332    1.8185 H   0  0  0  0  0  0  0  0  0  0  0  0
    5.5182   10.5025    1.7436 H   0  0  0  0  0  0  0  0  0  0  0  0
    7.6882    9.5294    4.8094 H   0  0  0  0  0  0  0  0  0  0  0  0
    9.7401    9.6220    1.6549 H   0  0  0  0  0  0  0  0  0  0  0  0
    9.1350    7.1225    3.0765 H   0  0  0  0  0  0  0  0  0  0  0  0
    9.4050    7.4790    1.3504 H   0  0  0  0  0  0  0  0  0  0  0  0
   11.4030    6.4985    1.8624 H   0  0  0  0  0  0  0  0  0  0  0  0
   11.3506    6.9696    3.5821 H   0  0  0  0  0  0  0  0  0  0  0  0
   12.0138    8.9221    1.2801 H   0  0  0  0  0  0  0  0  0  0  0  0
   13.7197    7.2278    3.2203 H   0  0  0  0  0  0  0  0  0  0  0  0
   13.3822    6.3496    0.9055 H   0  0  0  0  0  0  0  0  0  0  0  0
   13.9560    7.9172    0.2152 H   0  0  0  0  0  0  0  0  0  0  0  0
   15.0726    6.8563    1.1492 H   0  0  0  0  0  0  0  0  0  0  0  0
   14.5275    9.7985    1.9491 H   0  0  0  0  0  0  0  0  0  0  0  0
   14.5204    9.3994    3.6154 H   0  0  0  0  0  0  0  0  0  0  0  0
   15.6022    8.6430    2.5810 H   0  0  0  0  0  0  0  0  0  0  0  0
   12.4967   10.5376    3.0518 H   0  0  0  0  0  0  0  0  0  0  0  0
   12.2502    9.3049    4.3270 H   0  0  0  0  0  0  0  0  0  0  0  0
   10.3162   11.1400    3.1504 H   0  0  0  0  0  0  0  0  0  0  0  0
   10.1323   10.0162    4.5184 H   0  0  0  0  0  0  0  0  0  0  0  0
  1  2  1  0
  2  3  2  0
  3  4  1  0
  4  5  2  0
  5  6  1  0
  6  7  2  0
  7  8  1  0
  8  9  1  0
  9 10  2  0
  9 11  1  0
 11 12  1  0
 12 13  1  0
 13 14  1  0
 14 15  1  0
 15 16  1  0
 15 17  1  0
 14 18  1  0
 18 19  1  0
  7  2  1  0
 19 11  1  0
  1 20  1  0
  1 21  1  0
  1 22  1  0
  3 23  1  0
  4 24  1  0
  5 25  1  0
  6 26  1  0
  8 27  1  0
 11 28  1  0
 12 29  1  0
 12 30  1  0
 13 31  1  0
 13 32  1  0
 14 33  1  0
 15 34  1  0
 16 35  1  0
 16 36  1  0
 16 37  1  0
 17 38  1  0
 17 39  1  0
 17 40  1  0
 18 41  1  0
 18 42  1  0
 19 43  1  0
 19 44  1  0
M  CHG  1  17   1
M  END
>  <EmbedRMS>  (141) 
0.17064538222927092

$$$$

     RDKit          3D

 48 48  0  0  0  0  0  0  0  0999 V2000
    4.2734    7.7287    1.2684 C   0  0  0  0  0  0  0  0  0  0  0  0
    4.4326    8.8614    1.9602 C   0  0  0  0  0  0  0  0  0  0  0  0
    4.2795   10.1319    1.1713 C   0  0  0  0  0  0  0  0  0  0  0  0
    4.9218    8.9138    3.3805 C   0  0  0  0  0  0  0  0  0  0  0  0
    4.6391    7.9869    4.3249 C   0  0  0  0  0  0  0  0  0  0  0  0
    3.7447    6.7954    4.1641 C   0  0  0  0  0  0  0  0  0  0  0  0
    5.7558   10.0968    3.8283 C   0  0  0  0  0  0  0  0  0  0  0  0
    7.1465    9.6957    3.9946 N   0  0  0  0  0  0  0  0  0  0  0  0
    8.0144    9.4644    2.8810 C   0  0  0  0  0  0  0  0  0  0  0  0
    7.6114    9.6853    1.7036 O   0  0  0  0  0  0  0  0  0  0  0  0
    9.4225    8.9838    3.1214 C   0  0  0  0  0  0  0  0  0  0  0  0
    9.7835    7.9352    2.0758 C   0  0  0  0  0  0  0  0  0  0  0  0
   11.1471    7.3156    2.3191 C   0  0  0  0  0  0  0  0  0  0  0  0
   12.2329    8.2988    2.7955 C   0  0  0  0  0  0  0  0  0  0  0  0
   13.7102    7.9150    2.4296 C   0  0  0  0  0  0  0  0  0  0  0  0
   13.9327    7.3323    1.0258 C   0  0  0  0  0  0  0  0  0  0  0  0
   14.6484    9.0166    2.6728 N   0  0  0  0  0  4  0  0  0  0  0  0
   11.8857    9.7890    2.9955 C   0  0  0  0  0  0  0  0  0  0  0  0
   10.3937   10.1680    3.0620 C   0  0  0  0  0  0  0  0  0  0  0  0
    4.5134    6.7524    1.6574 H   0  0  0  0  0  0  0  0  0  0  0  0
    4.5134    6.7524    1.6574 H   0  0  0  0  0  0  0  0  0  0  0  0
    3.8149   10.9198    1.8008 H   0  0  0  0  0  0  0  0  0  0  0  0
    5.2671   10.4786    0.8043 H   0  0  0  0  0  0  0  0  0  0  0  0
    3.6130    9.9853    0.2927 H   0  0  0  0  0  0  0  0  0  0  0  0
    5.0395    8.1286    5.3234 H   0  0  0  0  0  0  0  0  0  0  0  0
    3.3608    6.4988    5.1627 H   0  0  0  0  0  0  0  0  0  0  0  0
    2.8644    7.0323    3.5305 H   0  0  0  0  0  0  0  0  0  0  0  0
    4.3164    5.9300    3.7717 H   0  0  0  0  0  0  0  0  0  0  0  0
    5.7096   10.9608    3.1372 H   0  0  0  0  0  0  0  0  0  0  0  0
    5.3664   10.4739    4.8000 H   0  0  0  0  0  0  0  0  0  0  0  0
    7.5174    9.5798    4.9648 H   0  0  0  0  0  0  0  0  0  0  0  0
    9.4851    8.5135    4.1284 H   0  0  0  0  0  0  0  0  0  0  0  0
    9.7845    8.4036    1.0650 H   0  0  0  0  0  0  0  0  0  0  0  0
    9.0188    7.1261    2.0695 H   0  0  0  0  0  0  0  0  0  0  0  0
   11.0340    6.4795    3.0482 H   0  0  0  0  0  0  0  0  0  0  0  0
   11.4300    6.8362    1.3636 H   0  0  0  0  0  0  0  0  0  0  0  0
   12.2361    8.0286    3.8799 H   0  0  0  0  0  0  0  0  0  0  0  0
   14.0074    7.0852    3.1156 H   0  0  0  0  0  0  0  0  0  0  0  0
   15.0171    7.2738    0.7923 H   0  0  0  0  0  0  0  0  0  0  0  0
   13.5361    6.2978    0.9561 H   0  0  0  0  0  0  0  0  0  0  0  0
   13.4428    7.9753    0.2641 H   0  0  0  0  0  0  0  0  0  0  0  0
   15.6316    8.6701    2.5840 H   0  0  0  0  0  0  0  0  0  0  0  0
   14.5091    9.7864    1.9794 H   0  0  0  0  0  0  0  0  0  0  0  0
   14.5403    9.3812    3.6465 H   0  0  0  0  0  0  0  0  0  0  0  0
   12.3912   10.1915    3.9032 H   0  0  0  0  0  0  0  0  0  0  0  0
   12.3152   10.3476    2.1368 H   0  0  0  0  0  0  0  0  0  0  0  0
   10.2194   10.8170    3.9489 H   0  0  0  0  0  0  0  0  0  0  0  0
   10.1525   10.7873    2.1676 H   0  0  0  0  0  0  0  0  0  0  0  0
  1  2  2  3
  2  3  1  0
  2  4  1  0
  4  5  2  3
  5  6  1  0
  4  7  1  0
  7  8  1  0
  8  9  1  0
  9 10  2  0
  9 11  1  0
 11 12  1  0
 12 13  1  0
 13 14  1  0
 14 15  1  0
 15 16  1  0
 15 17  1  0
 14 18  1  0
 18 19  1  0
 19 11  1  0
  1 20  1  0
  1 21  1  0
  3 22  1  0
  3 23  1  0
  3 24  1  0
  5 25  1  0
  6 26  1  0
  6 27  1  0
  6 28  1  0
  7 29  1  0
  7 30  1  0
  8 31  1  0
 11 32  1  0
 12 33  1  0
 12 34  1  0
 13 35  1  0
 13 36  1  0
 14 37  1  0
 15 38  1  0
 16 39  1  0
 16 40  1  0
 16 41  1  0
 17 42  1  0
 17 43  1  0
 17 44  1  0
 18 45  1  0
 18 46  1  0
 19 47  1  0
 19 48  1  0
M  CHG  1  17   1
M  END
>  <EmbedRMS>  (142) 
0.16423161568044162

$$$$

     RDKit          3D

 34 34  0  0  0  0  0  0  0  0999 V2000
    5.8329   10.1084    3.8848 C   0  0  0  0  0  0  0  0  0  0  0  0
    7.2300    9.6721    3.9456 N   0  0  0  0  0  0  0  0  0  0  0  0
    7.9825    9.5176    2.7336 C   0  0  0  0  0  0  0  0  0  0  0  0
    7.4038    9.6808    1.6309 O   0  0  0  0  0  0  0  0  0  0  0  0
    9.4450    9.1949    2.6523 C   0  0  0  0  0  0  0  0  0  0  0  0
    9.7659    7.7145    2.4310 C   0  0  0  0  0  0  0  0  0  0  0  0
   11.2645    7.3643    2.5394 C   0  0  0  0  0  0  0  0  0  0  0  0
   12.1440    8.5865    2.2316 C   0  0  0  0  0  0  0  0  0  0  0  0
   13.6550    8.3396    1.9330 C   0  0  0  0  0  0  0  0  0  0  0  0
   14.0142    7.0445    1.2245 C   0  0  0  0  0  0  0  0  0  0  0  0
   14.6175    8.7737    2.9400 N   0  0  0  0  0  4  0  0  0  0  0  0
   11.8902    9.6847    3.2842 C   0  0  0  0  0  0  0  0  0  0  0  0
   10.4057   10.0818    3.4290 C   0  0  0  0  0  0  0  0  0  0  0  0
    5.7674   11.1015    3.3922 H   0  0  0  0  0  0  0  0  0  0  0  0
    5.4215   10.1915    4.9127 H   0  0  0  0  0  0  0  0  0  0  0  0
    5.2299    9.3684    3.3173 H   0  0  0  0  0  0  0  0  0  0  0  0
    7.6848    9.4991    4.8697 H   0  0  0  0  0  0  0  0  0  0  0  0
    9.6804    9.5858    1.6329 H   0  0  0  0  0  0  0  0  0  0  0  0
    9.2153    7.1145    3.1879 H   0  0  0  0  0  0  0  0  0  0  0  0
    9.3849    7.3947    1.4340 H   0  0  0  0  0  0  0  0  0  0  0  0
   11.4945    7.0012    3.5653 H   0  0  0  0  0  0  0  0  0  0  0  0
   11.4746    6.5314    1.8369 H   0  0  0  0  0  0  0  0  0  0  0  0
   11.7511    8.9795    1.2646 H   0  0  0  0  0  0  0  0  0  0  0  0
   13.8453    9.0650    1.1029 H   0  0  0  0  0  0  0  0  0  0  0  0
   15.0594    7.0787    0.8480 H   0  0  0  0  0  0  0  0  0  0  0  0
   13.3413    6.8737    0.3566 H   0  0  0  0  0  0  0  0  0  0  0  0
   13.9245    6.1932    1.9314 H   0  0  0  0  0  0  0  0  0  0  0  0
   15.5929    8.5546    2.6319 H   0  0  0  0  0  0  0  0  0  0  0  0
   14.5663    9.8048    3.1021 H   0  0  0  0  0  0  0  0  0  0  0  0
   14.4328    8.2662    3.8350 H   0  0  0  0  0  0  0  0  0  0  0  0
   12.2711    9.3420    4.2714 H   0  0  0  0  0  0  0  0  0  0  0  0
   12.4559   10.5993    3.0033 H   0  0  0  0  0  0  0  0  0  0  0  0
   10.1327   10.0263    4.5050 H   0  0  0  0  0  0  0  0  0  0  0  0
   10.2681   11.1447    3.1242 H   0  0  0  0  0  0  0  0  0  0  0  0
  1  2  1  0
  2  3  1  0
  3  4  2  0
  3  5  1  0
  5  6  1  0
  6  7  1  0
  7  8  1  0
  8  9  1  0
  9 10  1  0
  9 11  1  0
  8 12  1  0
 12 13  1  0
 13  5  1  0
  1 14  1  0
  1 15  1  0
  1 16  1  0
  2 17  1  0
  5 18  1  0
  6 19  1  0
  6 20  1  0
  7 21  1  0
  7 22  1  0
  8 23  1  0
  9 24  1  0
 10 25  1  0
 10 26  1  0
 10 27  1  0
 11 28  1  0
 11 29  1  0
 11 30  1  0
 12 31  1  0
 12 32  1  0
 13 33  1  0
 13 34  1  0
M  CHG  1  11   1
M  END
>  <EmbedRMS>  (143) 
0.29639754771625826

$$$$

     RDKit          3D

 43 44  0  0  0  0  0  0  0  0999 V2000
    3.2985   11.1089    1.2880 C   0  0  0  0  0  0  0  0  0  0  0  0
    3.9019   10.8257    2.6253 C   0  0  0  0  0  0  0  0  0  0  0  0
    3.1426   10.9951    3.7892 C   0  0  0  0  0  0  0  0  0  0  0  0
    3.7229   10.7271    5.0281 C   0  0  0  0  0  0  0  0  0  0  0  0
    5.0464   10.2966    5.0960 C   0  0  0  0  0  0  0  0  0  0  0  0
    5.7835   10.1363    3.9161 C   0  0  0  0  0  0  0  0  0  0  0  0
    7.1478    9.6972    3.9973 N   0  0  0  0  0  0  0  0  0  0  0  0
    8.0078    9.4687    2.8744 C   0  0  0  0  0  0  0  0  0  0  0  0
    7.6050    9.6887    1.6970 O   0  0  0  0  0  0  0  0  0  0  0  0
    9.4188    8.9857    3.1138 C   0  0  0  0  0  0  0  0  0  0  0  0
    9.7829    7.9374    2.0695 C   0  0  0  0  0  0  0  0  0  0  0  0
   11.1453    7.3163    2.3185 C   0  0  0  0  0  0  0  0  0  0  0  0
   12.2316    8.2991    2.7950 C   0  0  0  0  0  0  0  0  0  0  0  0
   13.7091    7.9151    2.4296 C   0  0  0  0  0  0  0  0  0  0  0  0
   13.9322    7.3324    1.0259 C   0  0  0  0  0  0  0  0  0  0  0  0
   14.6474    9.0167    2.6731 N   0  0  0  0  0  4  0  0  0  0  0  0
   11.8842    9.7893    2.9952 C   0  0  0  0  0  0  0  0  0  0  0  0
   10.3919   10.1689    3.0600 C   0  0  0  0  0  0  0  0  0  0  0  0
    5.1943   10.4038    2.7156 N   0  0  0  0  0  0  0  0  0  0  0  0
    2.4140   10.4567    1.1293 H   0  0  0  0  0  0  0  0  0  0  0  0
    2.9841   12.1725    1.2358 H   0  0  0  0  0  0  0  0  0  0  0  0
    4.0346   10.9143    0.4792 H   0  0  0  0  0  0  0  0  0  0  0  0
    2.1142   11.3305    3.7357 H   0  0  0  0  0  0  0  0  0  0  0  0
    3.1466   10.8539    5.9354 H   0  0  0  0  0  0  0  0  0  0  0  0
    5.4931   10.0906    6.0606 H   0  0  0  0  0  0  0  0  0  0  0  0
    7.5466    9.5289    4.9490 H   0  0  0  0  0  0  0  0  0  0  0  0
    9.4828    8.5125    4.1193 H   0  0  0  0  0  0  0  0  0  0  0  0
    9.0176    7.1291    2.0600 H   0  0  0  0  0  0  0  0  0  0  0  0
    9.7880    8.4066    1.0592 H   0  0  0  0  0  0  0  0  0  0  0  0
   11.0287    6.4824    3.0497 H   0  0  0  0  0  0  0  0  0  0  0  0
   11.4300    6.8334    1.3652 H   0  0  0  0  0  0  0  0  0  0  0  0
   12.2347    8.0288    3.8794 H   0  0  0  0  0  0  0  0  0  0  0  0
   14.0060    7.0854    3.1157 H   0  0  0  0  0  0  0  0  0  0  0  0
   13.4420    7.9750    0.2640 H   0  0  0  0  0  0  0  0  0  0  0  0
   13.5361    6.2977    0.9562 H   0  0  0  0  0  0  0  0  0  0  0  0
   15.0167    7.2744    0.7925 H   0  0  0  0  0  0  0  0  0  0  0  0
   14.5388    9.3815    3.6466 H   0  0  0  0  0  0  0  0  0  0  0  0
   15.6307    8.6700    2.5849 H   0  0  0  0  0  0  0  0  0  0  0  0
   14.5086    9.7863    1.9794 H   0  0  0  0  0  0  0  0  0  0  0  0
   12.3889   10.1916    3.9034 H   0  0  0  0  0  0  0  0  0  0  0  0
   12.3147   10.3479    2.1370 H   0  0  0  0  0  0  0  0  0  0  0  0
   10.1524   10.7911    2.1672 H   0  0  0  0  0  0  0  0  0  0  0  0
   10.2164   10.8153    3.9485 H   0  0  0  0  0  0  0  0  0  0  0  0
  1  2  1  0
  2  3  2  0
  3  4  1  0
  4  5  2  0
  5  6  1  0
  6  7  1  0
  7  8  1  0
  8  9  2  0
  8 10  1  0
 10 11  1  0
 11 12  1  0
 12 13  1  0
 13 14  1  0
 14 15  1  0
 14 16  1  0
 13 17  1  0
 17 18  1  0
  6 19  2  0
 19  2  1  0
 18 10  1  0
  1 20  1  0
  1 21  1  0
  1 22  1  0
  3 23  1  0
  4 24  1  0
  5 25  1  0
  7 26  1  0
 10 27  1  0
 11 28  1  0
 11 29  1  0
 12 30  1  0
 12 31  1  0
 13 32  1  0
 14 33  1  0
 15 34  1  0
 15 35  1  0
 15 36  1  0
 16 37  1  0
 16 38  1  0
 16 39  1  0
 17 40  1  0
 17 41  1  0
 18 42  1  0
 18 43  1  0
M  CHG  1  16   1
M  END
>  <EmbedRMS>  (144) 
0.15965114723976082

$$$$

     RDKit          3D

 42 42  0  0  0  0  0  0  0  0999 V2000
    8.6750    8.1658    7.0703 C   0  0  0  0  0  0  0  0  0  0  0  0
    8.3763    8.4580    5.8022 C   0  0  0  0  0  0  0  0  0  0  0  0
    7.3143    9.3915    5.3537 C   0  0  0  0  0  0  0  0  0  0  0  0
    6.4078    9.8578    6.2465 C   0  0  0  0  0  0  0  0  0  0  0  0
    5.2565   10.7471    5.8877 C   0  0  0  0  0  0  0  0  0  0  0  0
    7.1493    9.7152    3.9495 N   0  0  0  0  0  0  0  0  0  0  0  0
    7.9765    9.4983    2.7821 C   0  0  0  0  0  0  0  0  0  0  0  0
    7.4301    9.6608    1.6607 O   0  0  0  0  0  0  0  0  0  0  0  0
    9.4445    9.1811    2.6937 C   0  0  0  0  0  0  0  0  0  0  0  0
    9.7537    7.7156    2.4382 C   0  0  0  0  0  0  0  0  0  0  0  0
   11.2038    7.4507    2.0892 C   0  0  0  0  0  0  0  0  0  0  0  0
   12.2683    8.3270    2.7571 C   0  0  0  0  0  0  0  0  0  0  0  0
   13.6145    8.3244    1.9914 C   0  0  0  0  0  0  0  0  0  0  0  0
   14.0289    7.0506    1.2546 C   0  0  0  0  0  0  0  0  0  0  0  0
   14.7105    8.8911    2.7788 N   0  0  0  0  0  4  0  0  0  0  0  0
   11.8580    9.7797    3.1035 C   0  0  0  0  0  0  0  0  0  0  0  0
   10.4067   10.0105    3.5026 C   0  0  0  0  0  0  0  0  0  0  0  0
    9.4522    7.4407    7.2763 H   0  0  0  0  0  0  0  0  0  0  0  0
    8.2207    8.6429    7.9236 H   0  0  0  0  0  0  0  0  0  0  0  0
    8.9290    7.9270    5.0689 H   0  0  0  0  0  0  0  0  0  0  0  0
    6.4522    9.5905    7.2899 H   0  0  0  0  0  0  0  0  0  0  0  0
    5.6232   11.6730    5.3961 H   0  0  0  0  0  0  0  0  0  0  0  0
    4.7085   11.0385    6.8086 H   0  0  0  0  0  0  0  0  0  0  0  0
    4.5465   10.2109    5.2233 H   0  0  0  0  0  0  0  0  0  0  0  0
    6.2337   10.1339    3.6758 H   0  0  0  0  0  0  0  0  0  0  0  0
    9.6986    9.5966    1.6856 H   0  0  0  0  0  0  0  0  0  0  0  0
    9.1148    7.3426    1.6051 H   0  0  0  0  0  0  0  0  0  0  0  0
    9.4972    7.0769    3.2974 H   0  0  0  0  0  0  0  0  0  0  0  0
   11.2718    7.6249    0.9927 H   0  0  0  0  0  0  0  0  0  0  0  0
   11.4331    6.3748    2.2587 H   0  0  0  0  0  0  0  0  0  0  0  0
   12.4573    7.8339    3.7373 H   0  0  0  0  0  0  0  0  0  0  0  0
   13.4588    9.0294    1.1415 H   0  0  0  0  0  0  0  0  0  0  0  0
   14.1162    6.2135    1.9787 H   0  0  0  0  0  0  0  0  0  0  0  0
   13.3003    6.7723    0.4659 H   0  0  0  0  0  0  0  0  0  0  0  0
   15.0110    7.1880    0.7539 H   0  0  0  0  0  0  0  0  0  0  0  0
   14.5373    9.8979    2.9966 H   0  0  0  0  0  0  0  0  0  0  0  0
   15.6086    8.8475    2.2446 H   0  0  0  0  0  0  0  0  0  0  0  0
   14.8256    8.3542    3.6688 H   0  0  0  0  0  0  0  0  0  0  0  0
   12.4979   10.1655    3.9267 H   0  0  0  0  0  0  0  0  0  0  0  0
   12.0458   10.4293    2.2200 H   0  0  0  0  0  0  0  0  0  0  0  0
   10.1603   11.0919    3.4053 H   0  0  0  0  0  0  0  0  0  0  0  0
   10.3056    9.7529    4.5738 H   0  0  0  0  0  0  0  0  0  0  0  0
  1  2  2  3
  2  3  1  0
  3  4  2  3
  4  5  1  0
  3  6  1  0
  6  7  1  0
  7  8  2  0
  7  9  1  0
  9 10  1  0
 10 11  1  0
 11 12  1  0
 12 13  1  0
 13 14  1  0
 13 15  1  0
 12 16  1  0
 16 17  1  0
 17  9  1  0
  1 18  1  0
  1 19  1  0
  2 20  1  0
  4 21  1  0
  5 22  1  0
  5 23  1  0
  5 24  1  0
  6 25  1  0
  9 26  1  0
 10 27  1  0
 10 28  1  0
 11 29  1  0
 11 30  1  0
 12 31  1  0
 13 32  1  0
 14 33  1  0
 14 34  1  0
 14 35  1  0
 15 36  1  0
 15 37  1  0
 15 38  1  0
 16 39  1  0
 16 40  1  0
 17 41  1  0
 17 42  1  0
M  CHG  1  15   1
M  END
>  <EmbedRMS>  (145) 
0.29216731409503444

$$$$

     RDKit          3D

 37 37  0  0  0  0  0  0  0  0999 V2000
   13.9221    7.3285    1.0385 C   0  0  0  0  0  0  0  0  0  0  0  0
   13.7076    7.9210    2.4415 C   0  0  0  0  0  0  0  0  0  0  0  0
   14.6427    9.0267    2.6699 N   0  0  0  0  0  4  0  0  0  0  0  0
   12.2298    8.2935    2.8227 C   0  0  0  0  0  0  0  0  0  0  0  0
   11.1735    7.4162    2.1521 C   0  0  0  0  0  0  0  0  0  0  0  0
    9.7354    7.7244    2.5407 C   0  0  0  0  0  0  0  0  0  0  0  0
    9.4522    9.2048    2.6377 C   0  0  0  0  0  0  0  0  0  0  0  0
    7.9904    9.5435    2.7176 C   0  0  0  0  0  0  0  0  0  0  0  0
    7.4423    9.6720    1.6001 O   0  0  0  0  0  0  0  0  0  0  0  0
    7.2114    9.7063    3.9231 N   0  0  0  0  0  0  0  0  0  0  0  0
    5.8409   10.1958    3.9359 C   0  0  0  0  0  0  0  0  0  0  0  0
    5.0243   10.2629    5.3562 S   0  0  0  0  0  0  0  0  0  0  0  0
    5.1729   10.8418    2.7438 C   0  0  0  0  0  0  0  0  0  0  0  0
    5.8007   12.5323    2.5133 S   0  0  0  0  0  0  0  0  0  0  0  0
   10.4261   10.0516    3.4237 C   0  0  0  0  0  0  0  0  0  0  0  0
   11.8800    9.7844    3.0012 C   0  0  0  0  0  0  0  0  0  0  0  0
   13.5722    8.0452    0.2658 H   0  0  0  0  0  0  0  0  0  0  0  0
   14.9990    7.1182    0.8650 H   0  0  0  0  0  0  0  0  0  0  0  0
   13.3771    6.3681    0.9250 H   0  0  0  0  0  0  0  0  0  0  0  0
   14.0118    7.0967    3.1298 H   0  0  0  0  0  0  0  0  0  0  0  0
   15.6233    8.7091    2.4908 H   0  0  0  0  0  0  0  0  0  0  0  0
   14.5998    9.3359    3.6676 H   0  0  0  0  0  0  0  0  0  0  0  0
   14.4327    9.8277    2.0314 H   0  0  0  0  0  0  0  0  0  0  0  0
   12.1640    7.9493    3.8821 H   0  0  0  0  0  0  0  0  0  0  0  0
   11.3801    6.3428    2.3599 H   0  0  0  0  0  0  0  0  0  0  0  0
   11.2451    7.5649    1.0530 H   0  0  0  0  0  0  0  0  0  0  0  0
    9.0496    7.2437    1.8072 H   0  0  0  0  0  0  0  0  0  0  0  0
    9.5314    7.2692    3.5344 H   0  0  0  0  0  0  0  0  0  0  0  0
    9.7141    9.5370    1.6017 H   0  0  0  0  0  0  0  0  0  0  0  0
    7.6639    9.4565    4.8309 H   0  0  0  0  0  0  0  0  0  0  0  0
    4.0799   10.9240    2.9290 H   0  0  0  0  0  0  0  0  0  0  0  0
    5.2455   10.2414    1.8195 H   0  0  0  0  0  0  0  0  0  0  0  0
    4.9597   12.7639    1.4083 H   0  0  0  0  0  0  0  0  0  0  0  0
   10.3125    9.8094    4.5026 H   0  0  0  0  0  0  0  0  0  0  0  0
   10.1939   11.1315    3.2903 H   0  0  0  0  0  0  0  0  0  0  0  0
   12.5408   10.2598    3.7565 H   0  0  0  0  0  0  0  0  0  0  0  0
   12.0572   10.2971    2.0308 H   0  0  0  0  0  0  0  0  0  0  0  0
  1  2  1  0
  2  3  1  0
  2  4  1  0
  4  5  1  0
  5  6  1  0
  6  7  1  0
  7  8  1  0
  8  9  2  0
  8 10  1  0
 10 11  1  0
 11 12  2  0
 11 13  1  0
 13 14  1  0
  7 15  1  0
 15 16  1  0
 16  4  1  0
  1 17  1  0
  1 18  1  0
  1 19  1  0
  2 20  1  0
  3 21  1  0
  3 22  1  0
  3 23  1  0
  4 24  1  0
  5 25  1  0
  5 26  1  0
  6 27  1  0
  6 28  1  0
  7 29  1  0
 10 30  1  0
 13 31  1  0
 13 32  1  0
 14 33  1  0
 15 34  1  0
 15 35  1  0
 16 36  1  0
 16 37  1  0
M  CHG  1   3   1
M  END
>  <EmbedRMS>  (146) 
0.2776559693615689

$$$$

     RDKit          3D

 39 39  0  0  0  0  0  0  0  0999 V2000
   14.0292    7.0395    1.2341 C   0  0  0  0  0  0  0  0  0  0  0  0
   13.6705    8.3363    1.9394 C   0  0  0  0  0  0  0  0  0  0  0  0
   14.6141    8.7683    2.9625 N   0  0  0  0  0  4  0  0  0  0  0  0
   12.1593    8.5896    2.2112 C   0  0  0  0  0  0  0  0  0  0  0  0
   11.2420    7.3766    2.4505 C   0  0  0  0  0  0  0  0  0  0  0  0
    9.7906    7.8235    2.2077 C   0  0  0  0  0  0  0  0  0  0  0  0
    9.4138    8.9832    3.1469 C   0  0  0  0  0  0  0  0  0  0  0  0
    8.0167    9.4628    2.8713 C   0  0  0  0  0  0  0  0  0  0  0  0
    7.6224    9.6789    1.6912 O   0  0  0  0  0  0  0  0  0  0  0  0
    7.1450    9.6933    3.9719 N   0  0  0  0  0  0  0  0  0  0  0  0
    5.8319   10.1376    3.7760 N   0  0  0  0  0  0  0  0  0  0  0  0
    5.0510   10.2965    4.7921 C   0  0  0  0  0  0  0  0  0  0  0  0
    3.6759   10.7654    4.6014 C   0  0  0  0  0  0  0  0  0  0  0  0
    2.8533   10.9471    5.5905 N   0  0  0  0  0  0  0  0  0  0  0  0
    3.1947   10.7914    6.9450 N   0  0  0  0  0  0  0  0  0  0  0  0
   10.4077   10.1585    3.0846 C   0  0  0  0  0  0  0  0  0  0  0  0
   11.8567    9.6805    3.2533 C   0  0  0  0  0  0  0  0  0  0  0  0
   13.3786    6.8823    0.3468 H   0  0  0  0  0  0  0  0  0  0  0  0
   15.0845    7.0600    0.8859 H   0  0  0  0  0  0  0  0  0  0  0  0
   13.9086    6.1865    1.9343 H   0  0  0  0  0  0  0  0  0  0  0  0
   13.8849    9.0581    1.1113 H   0  0  0  0  0  0  0  0  0  0  0  0
   14.5973    9.8056    3.0881 H   0  0  0  0  0  0  0  0  0  0  0  0
   15.5904    8.5014    2.6982 H   0  0  0  0  0  0  0  0  0  0  0  0
   14.3778    8.3020    3.8678 H   0  0  0  0  0  0  0  0  0  0  0  0
   11.8047    9.0087    1.2363 H   0  0  0  0  0  0  0  0  0  0  0  0
   11.3697    6.9866    3.4841 H   0  0  0  0  0  0  0  0  0  0  0  0
   11.4656    6.5560    1.7386 H   0  0  0  0  0  0  0  0  0  0  0  0
    9.6620    8.1223    1.1432 H   0  0  0  0  0  0  0  0  0  0  0  0
    9.1148    6.9611    2.3981 H   0  0  0  0  0  0  0  0  0  0  0  0
    9.4496    8.5771    4.1831 H   0  0  0  0  0  0  0  0  0  0  0  0
    7.5021    9.5276    4.9415 H   0  0  0  0  0  0  0  0  0  0  0  0
    5.4203   10.0483    5.7760 H   0  0  0  0  0  0  0  0  0  0  0  0
    3.3184   10.9328    3.5934 H   0  0  0  0  0  0  0  0  0  0  0  0
    4.1754   10.8463    7.2932 H   0  0  0  0  0  0  0  0  0  0  0  0
    2.4349   10.8139    7.6596 H   0  0  0  0  0  0  0  0  0  0  0  0
   10.3060   10.6875    2.1103 H   0  0  0  0  0  0  0  0  0  0  0  0
   10.1719   10.8874    3.8906 H   0  0  0  0  0  0  0  0  0  0  0  0
   12.0204    9.2944    4.2833 H   0  0  0  0  0  0  0  0  0  0  0  0
   12.5100   10.5638    3.0947 H   0  0  0  0  0  0  0  0  0  0  0  0
  1  2  1  0
  2  3  1  0
  2  4  1  0
  4  5  1  0
  5  6  1  0
  6  7  1  0
  7  8  1  0
  8  9  2  0
  8 10  1  0
 10 11  1  0
 11 12  2  3
 12 13  1  0
 13 14  2  3
 14 15  1  0
  7 16  1  0
 16 17  1  0
 17  4  1  0
  1 18  1  0
  1 19  1  0
  1 20  1  0
  2 21  1  0
  3 22  1  0
  3 23  1  0
  3 24  1  0
  4 25  1  0
  5 26  1  0
  5 27  1  0
  6 28  1  0
  6 29  1  0
  7 30  1  0
 10 31  1  0
 12 32  1  0
 13 33  1  0
 15 34  1  0
 15 35  1  0
 16 36  1  0
 16 37  1  0
 17 38  1  0
 17 39  1  0
M  CHG  1   3   1
M  END
>  <EmbedRMS>  (147) 
0.1883840412854219

$$$$

     RDKit          3D

 40 40  0  0  0  0  0  0  0  0999 V2000
    4.7996    8.8875    5.7514 C   0  0  0  0  0  0  0  0  0  0  0  0
    5.0467   10.2639    5.1374 C   0  0  0  0  0  0  0  0  0  0  0  0
    5.7665   10.1567    3.7915 C   0  0  0  0  0  0  0  0  0  0  0  0
    7.1428    9.7130    3.9787 N   0  0  0  0  0  0  0  0  0  0  0  0
    8.0146    9.4652    2.8756 C   0  0  0  0  0  0  0  0  0  0  0  0
    7.6236    9.6740    1.6923 O   0  0  0  0  0  0  0  0  0  0  0  0
    9.4117    8.9838    3.1514 C   0  0  0  0  0  0  0  0  0  0  0  0
    9.7887    7.8242    2.2110 C   0  0  0  0  0  0  0  0  0  0  0  0
   11.2406    7.3770    2.4518 C   0  0  0  0  0  0  0  0  0  0  0  0
   12.1580    8.5898    2.2119 C   0  0  0  0  0  0  0  0  0  0  0  0
   13.6694    8.3363    1.9396 C   0  0  0  0  0  0  0  0  0  0  0  0
   14.0282    7.0396    1.2342 C   0  0  0  0  0  0  0  0  0  0  0  0
   14.6135    8.7686    2.9623 N   0  0  0  0  0  4  0  0  0  0  0  0
   11.8558    9.6805    3.2543 C   0  0  0  0  0  0  0  0  0  0  0  0
   10.4065   10.1585    3.0871 C   0  0  0  0  0  0  0  0  0  0  0  0
    5.7572    8.3688    5.9654 H   0  0  0  0  0  0  0  0  0  0  0  0
    4.2454    9.0044    6.7064 H   0  0  0  0  0  0  0  0  0  0  0  0
    4.1898    8.2616    5.0655 H   0  0  0  0  0  0  0  0  0  0  0  0
    4.0659   10.7624    4.9797 H   0  0  0  0  0  0  0  0  0  0  0  0
    5.6383   10.8902    5.8402 H   0  0  0  0  0  0  0  0  0  0  0  0
    5.7713   11.1553    3.3036 H   0  0  0  0  0  0  0  0  0  0  0  0
    5.2272    9.4458    3.1277 H   0  0  0  0  0  0  0  0  0  0  0  0
    7.5227    9.5975    4.9460 H   0  0  0  0  0  0  0  0  0  0  0  0
    9.4460    8.5780    4.1877 H   0  0  0  0  0  0  0  0  0  0  0  0
    9.1131    6.9617    2.4015 H   0  0  0  0  0  0  0  0  0  0  0  0
    9.6593    8.1232    1.1467 H   0  0  0  0  0  0  0  0  0  0  0  0
   11.3694    6.9867    3.4850 H   0  0  0  0  0  0  0  0  0  0  0  0
   11.4634    6.5566    1.7393 H   0  0  0  0  0  0  0  0  0  0  0  0
   11.8029    9.0089    1.2373 H   0  0  0  0  0  0  0  0  0  0  0  0
   13.8833    9.0581    1.1114 H   0  0  0  0  0  0  0  0  0  0  0  0
   15.0833    7.0602    0.8857 H   0  0  0  0  0  0  0  0  0  0  0  0
   13.3773    6.8823    0.3472 H   0  0  0  0  0  0  0  0  0  0  0  0
   13.9078    6.1866    1.9345 H   0  0  0  0  0  0  0  0  0  0  0  0
   15.5897    8.5020    2.6974 H   0  0  0  0  0  0  0  0  0  0  0  0
   14.5964    9.8059    3.0880 H   0  0  0  0  0  0  0  0  0  0  0  0
   14.3778    8.3021    3.8677 H   0  0  0  0  0  0  0  0  0  0  0  0
   12.5089   10.5640    3.0952 H   0  0  0  0  0  0  0  0  0  0  0  0
   12.0205    9.2944    4.2841 H   0  0  0  0  0  0  0  0  0  0  0  0
   10.1719   10.8879    3.8931 H   0  0  0  0  0  0  0  0  0  0  0  0
   10.3038   10.6871    2.1128 H   0  0  0  0  0  0  0  0  0  0  0  0
  1  2  1  0
  2  3  1  0
  3  4  1  0
  4  5  1  0
  5  6  2  0
  5  7  1  0
  7  8  1  0
  8  9  1  0
  9 10  1  0
 10 11  1  0
 11 12  1  0
 11 13  1  0
 10 14  1  0
 14 15  1  0
 15  7  1  0
  1 16  1  0
  1 17  1  0
  1 18  1  0
  2 19  1  0
  2 20  1  0
  3 21  1  0
  3 22  1  0
  4 23  1  0
  7 24  1  0
  8 25  1  0
  8 26  1  0
  9 27  1  0
  9 28  1  0
 10 29  1  0
 11 30  1  0
 12 31  1  0
 12 32  1  0
 12 33  1  0
 13 34  1  0
 13 35  1  0
 13 36  1  0
 14 37  1  0
 14 38  1  0
 15 39  1  0
 15 40  1  0
M  CHG  1  13   1
M  END
>  <EmbedRMS>  (148) 
0.2000484947854372

$$$$

     RDKit          3D

 43 44  0  0  0  0  0  0  0  0999 V2000
   14.0134    7.0450    1.2246 C   0  0  0  0  0  0  0  0  0  0  0  0
   13.6542    8.3401    1.9333 C   0  0  0  0  0  0  0  0  0  0  0  0
   14.6173    8.7741    2.9397 N   0  0  0  0  0  4  0  0  0  0  0  0
   12.1431    8.5871    2.2329 C   0  0  0  0  0  0  0  0  0  0  0  0
   11.2641    7.3646    2.5408 C   0  0  0  0  0  0  0  0  0  0  0  0
    9.7655    7.7147    2.4337 C   0  0  0  0  0  0  0  0  0  0  0  0
    9.4437    9.1939    2.6629 C   0  0  0  0  0  0  0  0  0  0  0  0
    7.9804    9.5185    2.7350 C   0  0  0  0  0  0  0  0  0  0  0  0
    7.4133    9.6743    1.6246 O   0  0  0  0  0  0  0  0  0  0  0  0
    7.2101    9.6866    3.9373 N   0  0  0  0  0  0  0  0  0  0  0  0
    5.8079   10.1133    3.8144 C   0  0  0  0  0  0  0  0  0  0  0  0
    5.1538   10.2714    5.1492 C   0  0  0  0  0  0  0  0  0  0  0  0
    4.4718    9.2849    5.7620 N   0  0  0  0  0  0  0  0  0  0  0  0
    4.1072    9.8685    6.9253 C   0  0  0  0  0  0  0  0  0  0  0  0
    4.5417   11.1409    7.0242 N   0  0  0  0  0  0  0  0  0  0  0  0
    5.2010   11.3813    5.9065 N   0  0  0  0  0  0  0  0  0  0  0  0
    5.8353   12.6534    5.5829 C   0  0  0  0  0  0  0  0  0  0  0  0
   10.4056   10.0818    3.4356 C   0  0  0  0  0  0  0  0  0  0  0  0
   11.8902    9.6850    3.2864 C   0  0  0  0  0  0  0  0  0  0  0  0
   13.3401    6.8741    0.3570 H   0  0  0  0  0  0  0  0  0  0  0  0
   13.9241    6.1936    1.9315 H   0  0  0  0  0  0  0  0  0  0  0  0
   15.0583    7.0793    0.8476 H   0  0  0  0  0  0  0  0  0  0  0  0
   13.8439    9.0655    1.1032 H   0  0  0  0  0  0  0  0  0  0  0  0
   15.5926    8.5556    2.6309 H   0  0  0  0  0  0  0  0  0  0  0  0
   14.4335    8.2663    3.8347 H   0  0  0  0  0  0  0  0  0  0  0  0
   14.5658    9.8051    3.1022 H   0  0  0  0  0  0  0  0  0  0  0  0
   11.7496    8.9805    1.2663 H   0  0  0  0  0  0  0  0  0  0  0  0
   11.4737    6.5320    1.8378 H   0  0  0  0  0  0  0  0  0  0  0  0
   11.4949    7.0012    3.5664 H   0  0  0  0  0  0  0  0  0  0  0  0
    9.3848    7.3993    1.4350 H   0  0  0  0  0  0  0  0  0  0  0  0
    9.2148    7.1108    3.1875 H   0  0  0  0  0  0  0  0  0  0  0  0
    9.6829    9.5863    1.6449 H   0  0  0  0  0  0  0  0  0  0  0  0
    7.6558    9.5381    4.8707 H   0  0  0  0  0  0  0  0  0  0  0  0
    5.2436    9.3553    3.2291 H   0  0  0  0  0  0  0  0  0  0  0  0
    5.7572   11.0764    3.2627 H   0  0  0  0  0  0  0  0  0  0  0  0
    3.5302    9.3698    7.6922 H   0  0  0  0  0  0  0  0  0  0  0  0
    5.2848   13.1450    4.7538 H   0  0  0  0  0  0  0  0  0  0  0  0
    6.8894   12.4828    5.2779 H   0  0  0  0  0  0  0  0  0  0  0  0
    5.8248   13.3227    6.4692 H   0  0  0  0  0  0  0  0  0  0  0  0
   10.1348   10.0263    4.5122 H   0  0  0  0  0  0  0  0  0  0  0  0
   10.2664   11.1448    3.1315 H   0  0  0  0  0  0  0  0  0  0  0  0
   12.2734    9.3423    4.2727 H   0  0  0  0  0  0  0  0  0  0  0  0
   12.4548   10.6000    3.0047 H   0  0  0  0  0  0  0  0  0  0  0  0
  1  2  1  0
  2  3  1  0
  2  4  1  0
  4  5  1  0
  5  6  1  0
  6  7  1  0
  7  8  1  0
  8  9  2  0
  8 10  1  0
 10 11  1  0
 11 12  1  0
 12 13  2  0
 13 14  1  0
 14 15  2  0
 15 16  1  0
 16 17  1  0
  7 18  1  0
 18 19  1  0
 19  4  1  0
 16 12  1  0
  1 20  1  0
  1 21  1  0
  1 22  1  0
  2 23  1  0
  3 24  1  0
  3 25  1  0
  3 26  1  0
  4 27  1  0
  5 28  1  0
  5 29  1  0
  6 30  1  0
  6 31  1  0
  7 32  1  0
 10 33  1  0
 11 34  1  0
 11 35  1  0
 14 36  1  0
 17 37  1  0
 17 38  1  0
 17 39  1  0
 18 40  1  0
 18 41  1  0
 19 42  1  0
 19 43  1  0
M  CHG  1   3   1
M  END
>  <EmbedRMS>  (149) 
0.24309368491659913

$$$$

     RDKit          3D

 43 43  0  0  0  0  0  0  0  0999 V2000
   14.0146    7.0445    1.2242 C   0  0  0  0  0  0  0  0  0  0  0  0
   13.6556    8.3395    1.9330 C   0  0  0  0  0  0  0  0  0  0  0  0
   14.6184    8.7734    2.9398 N   0  0  0  0  0  4  0  0  0  0  0  0
   12.1448    8.5863    2.2322 C   0  0  0  0  0  0  0  0  0  0  0  0
   11.2656    7.3637    2.5388 C   0  0  0  0  0  0  0  0  0  0  0  0
    9.7674    7.7141    2.4306 C   0  0  0  0  0  0  0  0  0  0  0  0
    9.4460    9.1937    2.6555 C   0  0  0  0  0  0  0  0  0  0  0  0
    7.9824    9.5124    2.7303 C   0  0  0  0  0  0  0  0  0  0  0  0
    7.4094    9.6586    1.6225 O   0  0  0  0  0  0  0  0  0  0  0  0
    7.2288    9.7003    3.9392 N   0  0  0  0  0  0  0  0  0  0  0  0
    5.8269   10.1416    3.8902 C   0  0  0  0  0  0  0  0  0  0  0  0
    5.6901   11.6481    4.1506 C   0  0  0  0  0  0  0  0  0  0  0  0
    6.2706   12.5267    3.0282 C   0  0  0  0  0  0  0  0  0  0  0  0
    7.7254   12.7003    3.1457 N   0  0  0  0  0  4  0  0  0  0  0  0
   10.4081   10.0817    3.4304 C   0  0  0  0  0  0  0  0  0  0  0  0
   11.8916    9.6821    3.2871 C   0  0  0  0  0  0  0  0  0  0  0  0
   13.3416    6.8740    0.3563 H   0  0  0  0  0  0  0  0  0  0  0  0
   15.0597    7.0786    0.8476 H   0  0  0  0  0  0  0  0  0  0  0  0
   13.9249    6.1931    1.9310 H   0  0  0  0  0  0  0  0  0  0  0  0
   13.8457    9.0650    1.1030 H   0  0  0  0  0  0  0  0  0  0  0  0
   15.5936    8.5532    2.6321 H   0  0  0  0  0  0  0  0  0  0  0  0
   14.5683    9.8046    3.1013 H   0  0  0  0  0  0  0  0  0  0  0  0
   14.4333    8.2666    3.8352 H   0  0  0  0  0  0  0  0  0  0  0  0
   11.7517    8.9811    1.2660 H   0  0  0  0  0  0  0  0  0  0  0  0
   11.4955    6.9994    3.5643 H   0  0  0  0  0  0  0  0  0  0  0  0
   11.4755    6.5316    1.8354 H   0  0  0  0  0  0  0  0  0  0  0  0
    9.3870    7.3965    1.4326 H   0  0  0  0  0  0  0  0  0  0  0  0
    9.2166    7.1122    3.1859 H   0  0  0  0  0  0  0  0  0  0  0  0
    9.6828    9.5863    1.6370 H   0  0  0  0  0  0  0  0  0  0  0  0
    7.7104    9.6295    4.8632 H   0  0  0  0  0  0  0  0  0  0  0  0
    5.3469    9.8723    2.9247 H   0  0  0  0  0  0  0  0  0  0  0  0
    5.2653    9.5996    4.6810 H   0  0  0  0  0  0  0  0  0  0  0  0
    6.1402   11.9102    5.1328 H   0  0  0  0  0  0  0  0  0  0  0  0
    4.6039   11.8721    4.2304 H   0  0  0  0  0  0  0  0  0  0  0  0
    5.7781   13.5236    3.0893 H   0  0  0  0  0  0  0  0  0  0  0  0
    6.0066   12.1048    2.0325 H   0  0  0  0  0  0  0  0  0  0  0  0
    8.2041   12.2189    2.3518 H   0  0  0  0  0  0  0  0  0  0  0  0
    7.9628   13.7170    3.0841 H   0  0  0  0  0  0  0  0  0  0  0  0
    8.1062   12.3346    4.0481 H   0  0  0  0  0  0  0  0  0  0  0  0
   10.1346   10.0323    4.5063 H   0  0  0  0  0  0  0  0  0  0  0  0
   10.2782   11.1433    3.1214 H   0  0  0  0  0  0  0  0  0  0  0  0
   12.4598   10.5963    3.0099 H   0  0  0  0  0  0  0  0  0  0  0  0
   12.2700    9.3360    4.2741 H   0  0  0  0  0  0  0  0  0  0  0  0
  1  2  1  0
  2  3  1  0
  2  4  1  0
  4  5  1  0
  5  6  1  0
  6  7  1  0
  7  8  1  0
  8  9  2  0
  8 10  1  0
 10 11  1  0
 11 12  1  0
 12 13  1  0
 13 14  1  0
  7 15  1  0
 15 16  1  0
 16  4  1  0
  1 17  1  0
  1 18  1  0
  1 19  1  0
  2 20  1  0
  3 21  1  0
  3 22  1  0
  3 23  1  0
  4 24  1  0
  5 25  1  0
  5 26  1  0
  6 27  1  0
  6 28  1  0
  7 29  1  0
 10 30  1  0
 11 31  1  0
 11 32  1  0
 12 33  1  0
 12 34  1  0
 13 35  1  0
 13 36  1  0
 14 37  1  0
 14 38  1  0
 14 39  1  0
 15 40  1  0
 15 41  1  0
 16 42  1  0
 16 43  1  0
M  CHG  2   3   1  14   1
M  END
>  <EmbedRMS>  (150) 
0.26685653268904913

$$$$

     RDKit          3D

 44 44  0  0  0  0  0  0  0  0999 V2000
    5.8775   11.4490    5.8599 C   0  0  0  0  0  0  0  0  0  0  0  0
    5.1220   10.7187    4.7918 C   0  0  0  0  0  0  0  0  0  0  0  0
    5.7170    9.9083    3.8974 C   0  0  0  0  0  0  0  0  0  0  0  0
    7.1334    9.6721    3.9932 N   0  0  0  0  0  0  0  0  0  0  0  0
    8.0086    9.4604    2.8799 C   0  0  0  0  0  0  0  0  0  0  0  0
    7.6262    9.7033    1.7007 O   0  0  0  0  0  0  0  0  0  0  0  0
    9.4096    8.9836    3.1496 C   0  0  0  0  0  0  0  0  0  0  0  0
    9.7865    7.8249    2.2087 C   0  0  0  0  0  0  0  0  0  0  0  0
   11.2388    7.3775    2.4503 C   0  0  0  0  0  0  0  0  0  0  0  0
   12.1566    8.5902    2.2114 C   0  0  0  0  0  0  0  0  0  0  0  0
   13.6684    8.3368    1.9397 C   0  0  0  0  0  0  0  0  0  0  0  0
   14.0276    7.0400    1.2347 C   0  0  0  0  0  0  0  0  0  0  0  0
   14.6122    8.7694    2.9626 N   0  0  0  0  0  4  0  0  0  0  0  0
   11.8534    9.6815    3.2532 C   0  0  0  0  0  0  0  0  0  0  0  0
   10.4035   10.1590    3.0855 C   0  0  0  0  0  0  0  0  0  0  0  0
    4.8812    9.1732    2.9075 C   0  0  0  0  0  0  0  0  0  0  0  0
    5.3293    7.8586    2.3348 C   0  0  0  0  0  0  0  0  0  0  0  0
    3.7156    9.6375    2.5770 N   0  0  0  0  0  0  0  0  0  0  0  0
    5.1882   12.1266    6.4059 H   0  0  0  0  0  0  0  0  0  0  0  0
    6.6877   12.0602    5.4085 H   0  0  0  0  0  0  0  0  0  0  0  0
    6.3055   10.7294    6.5889 H   0  0  0  0  0  0  0  0  0  0  0  0
    4.0500   10.8746    4.7592 H   0  0  0  0  0  0  0  0  0  0  0  0
    7.5679    9.6582    4.9430 H   0  0  0  0  0  0  0  0  0  0  0  0
    9.4484    8.5759    4.1851 H   0  0  0  0  0  0  0  0  0  0  0  0
    9.1103    6.9626    2.3983 H   0  0  0  0  0  0  0  0  0  0  0  0
    9.6566    8.1253    1.1449 H   0  0  0  0  0  0  0  0  0  0  0  0
   11.3670    6.9867    3.4834 H   0  0  0  0  0  0  0  0  0  0  0  0
   11.4619    6.5574    1.7376 H   0  0  0  0  0  0  0  0  0  0  0  0
   11.8021    9.0093    1.2366 H   0  0  0  0  0  0  0  0  0  0  0  0
   13.8825    9.0584    1.1115 H   0  0  0  0  0  0  0  0  0  0  0  0
   15.0830    7.0605    0.8868 H   0  0  0  0  0  0  0  0  0  0  0  0
   13.3772    6.8826    0.3473 H   0  0  0  0  0  0  0  0  0  0  0  0
   13.9068    6.1870    1.9349 H   0  0  0  0  0  0  0  0  0  0  0  0
   14.3767    8.3025    3.8678 H   0  0  0  0  0  0  0  0  0  0  0  0
   15.5886    8.5036    2.6977 H   0  0  0  0  0  0  0  0  0  0  0  0
   14.5942    9.8066    3.0886 H   0  0  0  0  0  0  0  0  0  0  0  0
   12.5063   10.5650    3.0941 H   0  0  0  0  0  0  0  0  0  0  0  0
   12.0179    9.2958    4.2832 H   0  0  0  0  0  0  0  0  0  0  0  0
   10.1680   10.8883    3.8913 H   0  0  0  0  0  0  0  0  0  0  0  0
   10.3005   10.6872    2.1110 H   0  0  0  0  0  0  0  0  0  0  0  0
    6.1429    7.4090    2.9413 H   0  0  0  0  0  0  0  0  0  0  0  0
    4.4828    7.1396    2.3312 H   0  0  0  0  0  0  0  0  0  0  0  0
    5.6763    8.0000    1.2905 H   0  0  0  0  0  0  0  0  0  0  0  0
    3.0902    9.1404    1.9035 H   0  0  0  0  0  0  0  0  0  0  0  0
  1  2  1  0
  2  3  2  3
  3  4  1  0
  4  5  1  0
  5  6  2  0
  5  7  1  0
  7  8  1  0
  8  9  1  0
  9 10  1  0
 10 11  1  0
 11 12  1  0
 11 13  1  0
 10 14  1  0
 14 15  1  0
  3 16  1  0
 16 17  1  0
 16 18  2  3
 15  7  1  0
  1 19  1  0
  1 20  1  0
  1 21  1  0
  2 22  1  0
  4 23  1  0
  7 24  1  0
  8 25  1  0
  8 26  1  0
  9 27  1  0
  9 28  1  0
 10 29  1  0
 11 30  1  0
 12 31  1  0
 12 32  1  0
 12 33  1  0
 13 34  1  0
 13 35  1  0
 13 36  1  0
 14 37  1  0
 14 38  1  0
 15 39  1  0
 15 40  1  0
 17 41  1  0
 17 42  1  0
 17 43  1  0
 18 44  1  0
M  CHG  1  13   1
M  END
>  <EmbedRMS>  (151) 
0.18298173008130458

$$$$

     RDKit          3D

 44 45  0  0  0  0  0  0  0  0999 V2000
   14.0491    7.2192    1.1051 C   0  0  0  0  0  0  0  0  0  0  0  0
   13.6499    7.9554    2.3993 C   0  0  0  0  0  0  0  0  0  0  0  0
   14.6293    9.0155    2.6715 N   0  0  0  0  0  4  0  0  0  0  0  0
   12.2007    8.5120    2.2736 C   0  0  0  0  0  0  0  0  0  0  0  0
   11.1807    7.3658    2.4346 C   0  0  0  0  0  0  0  0  0  0  0  0
    9.7726    7.8720    2.1539 C   0  0  0  0  0  0  0  0  0  0  0  0
    9.4099    8.9946    3.1307 C   0  0  0  0  0  0  0  0  0  0  0  0
    8.0144    9.4819    2.8685 C   0  0  0  0  0  0  0  0  0  0  0  0
    7.6163    9.6899    1.6878 O   0  0  0  0  0  0  0  0  0  0  0  0
    7.1421    9.7123    3.9750 N   0  0  0  0  0  0  0  0  0  0  0  0
    5.7615   10.1355    3.7870 C   0  0  0  0  0  0  0  0  0  0  0  0
    5.0980   10.2938    5.1182 C   0  0  0  0  0  0  0  0  0  0  0  0
    4.3917    9.3155    5.7845 C   0  0  0  0  0  0  0  0  0  0  0  0
    4.0621    9.8968    6.9943 C   0  0  0  0  0  0  0  0  0  0  0  0
    4.5655   11.1466    7.0524 N   0  0  0  0  0  0  0  0  0  0  0  0
    5.2022   11.3746    5.9156 N   0  0  0  0  0  0  0  0  0  0  0  0
    5.8996   12.6191    5.6126 C   0  0  0  0  0  0  0  0  0  0  0  0
   10.4244   10.1488    3.0655 C   0  0  0  0  0  0  0  0  0  0  0  0
   11.8589    9.6374    3.2816 C   0  0  0  0  0  0  0  0  0  0  0  0
   15.0965    6.8576    1.1812 H   0  0  0  0  0  0  0  0  0  0  0  0
   13.4183    6.3265    0.9275 H   0  0  0  0  0  0  0  0  0  0  0  0
   13.9788    7.8972    0.2277 H   0  0  0  0  0  0  0  0  0  0  0  0
   13.6913    7.2248    3.2394 H   0  0  0  0  0  0  0  0  0  0  0  0
   14.5438    9.7862    1.9690 H   0  0  0  0  0  0  0  0  0  0  0  0
   15.6007    8.6296    2.6307 H   0  0  0  0  0  0  0  0  0  0  0  0
   14.4966    9.3930    3.6373 H   0  0  0  0  0  0  0  0  0  0  0  0
   12.0890    8.9476    1.2538 H   0  0  0  0  0  0  0  0  0  0  0  0
   11.2335    6.9397    3.4615 H   0  0  0  0  0  0  0  0  0  0  0  0
   11.3829    6.5448    1.7186 H   0  0  0  0  0  0  0  0  0  0  0  0
    9.7117    8.2308    1.1019 H   0  0  0  0  0  0  0  0  0  0  0  0
    9.0568    7.0288    2.2728 H   0  0  0  0  0  0  0  0  0  0  0  0
    9.4450    8.5671    4.1584 H   0  0  0  0  0  0  0  0  0  0  0  0
    7.5143    9.5749    4.9433 H   0  0  0  0  0  0  0  0  0  0  0  0
    5.2177    9.3738    3.1876 H   0  0  0  0  0  0  0  0  0  0  0  0
    5.7355   11.0991    3.2352 H   0  0  0  0  0  0  0  0  0  0  0  0
    4.1557    8.3159    5.4443 H   0  0  0  0  0  0  0  0  0  0  0  0
    3.4981    9.4307    7.7909 H   0  0  0  0  0  0  0  0  0  0  0  0
    5.8854   13.2918    6.4963 H   0  0  0  0  0  0  0  0  0  0  0  0
    6.9558   12.4043    5.3455 H   0  0  0  0  0  0  0  0  0  0  0  0
    5.3997   13.1315    4.7642 H   0  0  0  0  0  0  0  0  0  0  0  0
   10.1851   10.8999    3.8499 H   0  0  0  0  0  0  0  0  0  0  0  0
   10.3600   10.6536    2.0757 H   0  0  0  0  0  0  0  0  0  0  0  0
   12.5384   10.5044    3.1429 H   0  0  0  0  0  0  0  0  0  0  0  0
   11.9731    9.2648    4.3236 H   0  0  0  0  0  0  0  0  0  0  0  0
  1  2  1  0
  2  3  1  0
  2  4  1  0
  4  5  1  0
  5  6  1  0
  6  7  1  0
  7  8  1  0
  8  9  2  0
  8 10  1  0
 10 11  1  0
 11 12  1  0
 12 13  2  0
 13 14  1  0
 14 15  2  0
 15 16  1  0
 16 17  1  0
  7 18  1  0
 18 19  1  0
 19  4  1  0
 16 12  1  0
  1 20  1  0
  1 21  1  0
  1 22  1  0
  2 23  1  0
  3 24  1  0
  3 25  1  0
  3 26  1  0
  4 27  1  0
  5 28  1  0
  5 29  1  0
  6 30  1  0
  6 31  1  0
  7 32  1  0
 10 33  1  0
 11 34  1  0
 11 35  1  0
 13 36  1  0
 14 37  1  0
 17 38  1  0
 17 39  1  0
 17 40  1  0
 18 41  1  0
 18 42  1  0
 19 43  1  0
 19 44  1  0
M  CHG  1   3   1
M  END
>  <EmbedRMS>  (152) 
0.027804703519808214

$$$$

     RDKit          3D

 41 42  0  0  0  0  0  0  0  0999 V2000
   14.0155    7.0452    1.2243 C   0  0  0  0  0  0  0  0  0  0  0  0
   13.6577    8.3402    1.9340 C   0  0  0  0  0  0  0  0  0  0  0  0
   14.6213    8.7734    2.9399 N   0  0  0  0  0  4  0  0  0  0  0  0
   12.1479    8.5868    2.2358 C   0  0  0  0  0  0  0  0  0  0  0  0
   11.2708    7.3634    2.5450 C   0  0  0  0  0  0  0  0  0  0  0  0
    9.7738    7.7130    2.4384 C   0  0  0  0  0  0  0  0  0  0  0  0
    9.4545    9.1902    2.6817 C   0  0  0  0  0  0  0  0  0  0  0  0
    7.9930    9.5119    2.7236 C   0  0  0  0  0  0  0  0  0  0  0  0
    7.4746    9.6077    1.5899 O   0  0  0  0  0  0  0  0  0  0  0  0
    7.1920    9.7025    3.9130 N   0  0  0  0  0  0  0  0  0  0  0  0
    5.8002   10.1396    3.9098 C   0  0  0  0  0  0  0  0  0  0  0  0
    5.1136   10.2622    5.1332 C   0  0  0  0  0  0  0  0  0  0  0  0
    3.7791   10.6918    5.1678 C   0  0  0  0  0  0  0  0  0  0  0  0
    3.1050   10.9965    3.9846 C   0  0  0  0  0  0  0  0  0  0  0  0
    3.7620   10.8848    2.7663 C   0  0  0  0  0  0  0  0  0  0  0  0
    5.0915   10.4774    2.7238 C   0  0  0  0  0  0  0  0  0  0  0  0
   10.4123   10.0785    3.4530 C   0  0  0  0  0  0  0  0  0  0  0  0
   11.8967    9.6862    3.2904 C   0  0  0  0  0  0  0  0  0  0  0  0
   13.3412    6.8748    0.3575 H   0  0  0  0  0  0  0  0  0  0  0  0
   15.0600    7.0795    0.8460 H   0  0  0  0  0  0  0  0  0  0  0  0
   13.9272    6.1936    1.9310 H   0  0  0  0  0  0  0  0  0  0  0  0
   13.8472    9.0661    1.1041 H   0  0  0  0  0  0  0  0  0  0  0  0
   14.4394    8.2635    3.8342 H   0  0  0  0  0  0  0  0  0  0  0  0
   14.5690    9.8041    3.1044 H   0  0  0  0  0  0  0  0  0  0  0  0
   15.5964    8.5564    2.6293 H   0  0  0  0  0  0  0  0  0  0  0  0
   11.7549    8.9789    1.2687 H   0  0  0  0  0  0  0  0  0  0  0  0
   11.4801    6.5302    1.8427 H   0  0  0  0  0  0  0  0  0  0  0  0
   11.5022    7.0014    3.5710 H   0  0  0  0  0  0  0  0  0  0  0  0
    9.3960    7.4069    1.4357 H   0  0  0  0  0  0  0  0  0  0  0  0
    9.2216    7.1022    3.1855 H   0  0  0  0  0  0  0  0  0  0  0  0
    9.7131    9.5882    1.6698 H   0  0  0  0  0  0  0  0  0  0  0  0
    7.6559    9.5263    4.8324 H   0  0  0  0  0  0  0  0  0  0  0  0
    5.6153   10.0259    6.0630 H   0  0  0  0  0  0  0  0  0  0  0  0
    3.2672   10.7820    6.1172 H   0  0  0  0  0  0  0  0  0  0  0  0
    2.0739   11.3242    4.0170 H   0  0  0  0  0  0  0  0  0  0  0  0
    3.2415   11.1383    1.8510 H   0  0  0  0  0  0  0  0  0  0  0  0
    5.5040   10.4952    1.7386 H   0  0  0  0  0  0  0  0  0  0  0  0
   10.1475   10.0136    4.5305 H   0  0  0  0  0  0  0  0  0  0  0  0
   10.2671   11.1433    3.1573 H   0  0  0  0  0  0  0  0  0  0  0  0
   12.4562   10.6027    3.0029 H   0  0  0  0  0  0  0  0  0  0  0  0
   12.2889    9.3466    4.2742 H   0  0  0  0  0  0  0  0  0  0  0  0
  1  2  1  0
  2  3  1  0
  2  4  1  0
  4  5  1  0
  5  6  1  0
  6  7  1  0
  7  8  1  0
  8  9  2  0
  8 10  1  0
 10 11  1  0
 11 12  2  0
 12 13  1  0
 13 14  2  0
 14 15  1  0
 15 16  2  0
  7 17  1  0
 17 18  1  0
 18  4  1  0
 16 11  1  0
  1 19  1  0
  1 20  1  0
  1 21  1  0
  2 22  1  0
  3 23  1  0
  3 24  1  0
  3 25  1  0
  4 26  1  0
  5 27  1  0
  5 28  1  0
  6 29  1  0
  6 30  1  0
  7 31  1  0
 10 32  1  0
 12 33  1  0
 13 34  1  0
 14 35  1  0
 15 36  1  0
 16 37  1  0
 17 38  1  0
 17 39  1  0
 18 40  1  0
 18 41  1  0
M  CHG  1   3   1
M  END
>  <EmbedRMS>  (153) 
0.24964892458419108

$$$$

     RDKit          3D

 41 42  0  0  0  0  0  0  0  0999 V2000
   14.0155    7.0452    1.2243 C   0  0  0  0  0  0  0  0  0  0  0  0
   13.6577    8.3402    1.9340 C   0  0  0  0  0  0  0  0  0  0  0  0
   14.6213    8.7734    2.9399 N   0  0  0  0  0  4  0  0  0  0  0  0
   12.1479    8.5868    2.2358 C   0  0  0  0  0  0  0  0  0  0  0  0
   11.2708    7.3634    2.5450 C   0  0  0  0  0  0  0  0  0  0  0  0
    9.7738    7.7130    2.4384 C   0  0  0  0  0  0  0  0  0  0  0  0
    9.4545    9.1902    2.6817 C   0  0  0  0  0  0  0  0  0  0  0  0
    7.9930    9.5119    2.7236 C   0  0  0  0  0  0  0  0  0  0  0  0
    7.4746    9.6077    1.5899 O   0  0  0  0  0  0  0  0  0  0  0  0
    7.1920    9.7025    3.9130 N   0  0  0  0  0  0  0  0  0  0  0  0
    5.8002   10.1396    3.9098 C   0  0  0  0  0  0  0  0  0  0  0  0
    5.1136   10.2622    5.1332 C   0  0  0  0  0  0  0  0  0  0  0  0
    3.7791   10.6918    5.1678 C   0  0  0  0  0  0  0  0  0  0  0  0
    3.1050   10.9965    3.9846 C   0  0  0  0  0  0  0  0  0  0  0  0
    3.7620   10.8848    2.7663 C   0  0  0  0  0  0  0  0  0  0  0  0
    5.0915   10.4774    2.7238 C   0  0  0  0  0  0  0  0  0  0  0  0
   10.4123   10.0785    3.4530 C   0  0  0  0  0  0  0  0  0  0  0  0
   11.8967    9.6862    3.2904 C   0  0  0  0  0  0  0  0  0  0  0  0
   13.3412    6.8748    0.3575 H   0  0  0  0  0  0  0  0  0  0  0  0
   15.0600    7.0795    0.8460 H   0  0  0  0  0  0  0  0  0  0  0  0
   13.9272    6.1936    1.9310 H   0  0  0  0  0  0  0  0  0  0  0  0
   13.8472    9.0661    1.1041 H   0  0  0  0  0  0  0  0  0  0  0  0
   14.4394    8.2635    3.8342 H   0  0  0  0  0  0  0  0  0  0  0  0
   14.5690    9.8041    3.1044 H   0  0  0  0  0  0  0  0  0  0  0  0
   15.5964    8.5564    2.6293 H   0  0  0  0  0  0  0  0  0  0  0  0
   11.7549    8.9789    1.2687 H   0  0  0  0  0  0  0  0  0  0  0  0
   11.4801    6.5302    1.8427 H   0  0  0  0  0  0  0  0  0  0  0  0
   11.5022    7.0014    3.5710 H   0  0  0  0  0  0  0  0  0  0  0  0
    9.3960    7.4069    1.4357 H   0  0  0  0  0  0  0  0  0  0  0  0
    9.2216    7.1022    3.1855 H   0  0  0  0  0  0  0  0  0  0  0  0
    9.7131    9.5882    1.6698 H   0  0  0  0  0  0  0  0  0  0  0  0
    7.6559    9.5263    4.8324 H   0  0  0  0  0  0  0  0  0  0  0  0
    5.6153   10.0259    6.0630 H   0  0  0  0  0  0  0  0  0  0  0  0
    3.2672   10.7820    6.1172 H   0  0  0  0  0  0  0  0  0  0  0  0
    2.0739   11.3242    4.0170 H   0  0  0  0  0  0  0  0  0  0  0  0
    3.2415   11.1383    1.8510 H   0  0  0  0  0  0  0  0  0  0  0  0
    5.5040   10.4952    1.7386 H   0  0  0  0  0  0  0  0  0  0  0  0
   10.1475   10.0136    4.5305 H   0  0  0  0  0  0  0  0  0  0  0  0
   10.2671   11.1433    3.1573 H   0  0  0  0  0  0  0  0  0  0  0  0
   12.4562   10.6027    3.0029 H   0  0  0  0  0  0  0  0  0  0  0  0
   12.2889    9.3466    4.2742 H   0  0  0  0  0  0  0  0  0  0  0  0
  1  2  1  0
  2  3  1  0
  2  4  1  0
  4  5  1  0
  5  6  1  0
  6  7  1  0
  7  8  1  0
  8  9  2  0
  8 10  1  0
 10 11  1  0
 11 12  2  0
 12 13  1  0
 13 14  2  0
 14 15  1  0
 15 16  2  0
  7 17  1  0
 17 18  1  0
 18  4  1  0
 16 11  1  0
  1 19  1  0
  1 20  1  0
  1 21  1  0
  2 22  1  0
  3 23  1  0
  3 24  1  0
  3 25  1  0
  4 26  1  0
  5 27  1  0
  5 28  1  0
  6 29  1  0
  6 30  1  0
  7 31  1  0
 10 32  1  0
 12 33  1  0
 13 34  1  0
 14 35  1  0
 15 36  1  0
 16 37  1  0
 17 38  1  0
 17 39  1  0
 18 40  1  0
 18 41  1  0
M  CHG  1   3   1
M  END
>  <EmbedRMS>  (154) 
0.24964892458419108

$$$$

     RDKit          3D

 44 45  0  0  0  0  0  0  0  0999 V2000
    3.0967   12.6801    1.7909 C   0  0  0  0  0  0  0  0  0  0  0  0
    2.9226   11.2029    2.1176 C   0  0  0  0  0  0  0  0  0  0  0  0
    3.9341   10.7756    3.0794 N   0  0  0  0  0  0  0  0  0  0  0  0
    3.7990   10.7478    4.4197 C   0  0  0  0  0  0  0  0  0  0  0  0
    4.9952   10.3256    4.9736 C   0  0  0  0  0  0  0  0  0  0  0  0
    5.8239   10.1227    3.8831 C   0  0  0  0  0  0  0  0  0  0  0  0
    7.2052    9.6922    3.9329 N   0  0  0  0  0  0  0  0  0  0  0  0
    7.9822    9.5399    2.7253 C   0  0  0  0  0  0  0  0  0  0  0  0
    7.4227    9.6816    1.6111 O   0  0  0  0  0  0  0  0  0  0  0  0
    9.4471    9.2141    2.6462 C   0  0  0  0  0  0  0  0  0  0  0  0
    9.7331    7.7445    2.3748 C   0  0  0  0  0  0  0  0  0  0  0  0
   11.1966    7.3506    2.5414 C   0  0  0  0  0  0  0  0  0  0  0  0
   12.1807    8.5090    2.2964 C   0  0  0  0  0  0  0  0  0  0  0  0
   13.6449    7.9629    2.3851 C   0  0  0  0  0  0  0  0  0  0  0  0
   14.0266    7.2304    1.0859 C   0  0  0  0  0  0  0  0  0  0  0  0
   14.6266    9.0245    2.6471 N   0  0  0  0  0  4  0  0  0  0  0  0
   11.8955    9.6380    3.3196 C   0  0  0  0  0  0  0  0  0  0  0  0
   10.4175   10.0744    3.4328 C   0  0  0  0  0  0  0  0  0  0  0  0
    5.1593   10.4096    2.7428 N   0  0  0  0  0  0  0  0  0  0  0  0
    2.3240   12.9945    1.0582 H   0  0  0  0  0  0  0  0  0  0  0  0
    4.1014   12.8584    1.3522 H   0  0  0  0  0  0  0  0  0  0  0  0
    2.9869   13.2897    2.7129 H   0  0  0  0  0  0  0  0  0  0  0  0
    3.0194   10.6047    1.1859 H   0  0  0  0  0  0  0  0  0  0  0  0
    1.9058   11.0317    2.5335 H   0  0  0  0  0  0  0  0  0  0  0  0
    2.9009   11.0198    4.9592 H   0  0  0  0  0  0  0  0  0  0  0  0
    5.2312   10.1957    6.0212 H   0  0  0  0  0  0  0  0  0  0  0  0
    7.6554    9.5142    4.8581 H   0  0  0  0  0  0  0  0  0  0  0  0
    9.7091    9.6226    1.6378 H   0  0  0  0  0  0  0  0  0  0  0  0
    9.3949    7.4762    1.3468 H   0  0  0  0  0  0  0  0  0  0  0  0
    9.1268    7.1270    3.0738 H   0  0  0  0  0  0  0  0  0  0  0  0
   11.3964    6.5005    1.8583 H   0  0  0  0  0  0  0  0  0  0  0  0
   11.3426    6.9707    3.5779 H   0  0  0  0  0  0  0  0  0  0  0  0
   12.0098    8.9229    1.2769 H   0  0  0  0  0  0  0  0  0  0  0  0
   13.7134    7.2279    3.2200 H   0  0  0  0  0  0  0  0  0  0  0  0
   13.9565    7.9172    0.2155 H   0  0  0  0  0  0  0  0  0  0  0  0
   15.0698    6.8548    1.1519 H   0  0  0  0  0  0  0  0  0  0  0  0
   13.3790    6.3504    0.9045 H   0  0  0  0  0  0  0  0  0  0  0  0
   15.5982    8.6419    2.5844 H   0  0  0  0  0  0  0  0  0  0  0  0
   14.5255    9.7979    1.9497 H   0  0  0  0  0  0  0  0  0  0  0  0
   14.5143    9.3994    3.6160 H   0  0  0  0  0  0  0  0  0  0  0  0
   12.2358    9.3019    4.3246 H   0  0  0  0  0  0  0  0  0  0  0  0
   12.4940   10.5357    3.0527 H   0  0  0  0  0  0  0  0  0  0  0  0
   10.1217   10.0298    4.5034 H   0  0  0  0  0  0  0  0  0  0  0  0
   10.3146   11.1414    3.1273 H   0  0  0  0  0  0  0  0  0  0  0  0
  1  2  1  0
  2  3  1  0
  3  4  1  0
  4  5  2  0
  5  6  1  0
  6  7  1  0
  7  8  1  0
  8  9  2  0
  8 10  1  0
 10 11  1  0
 11 12  1  0
 12 13  1  0
 13 14  1  0
 14 15  1  0
 14 16  1  0
 13 17  1  0
 17 18  1  0
  6 19  2  0
 19  3  1  0
 18 10  1  0
  1 20  1  0
  1 21  1  0
  1 22  1  0
  2 23  1  0
  2 24  1  0
  4 25  1  0
  5 26  1  0
  7 27  1  0
 10 28  1  0
 11 29  1  0
 11 30  1  0
 12 31  1  0
 12 32  1  0
 13 33  1  0
 14 34  1  0
 15 35  1  0
 15 36  1  0
 15 37  1  0
 16 38  1  0
 16 39  1  0
 16 40  1  0
 17 41  1  0
 17 42  1  0
 18 43  1  0
 18 44  1  0
M  CHG  1  16   1
M  END
>  <EmbedRMS>  (155) 
0.16981956966150463

$$$$

     RDKit          3D

 41 42  0  0  0  0  0  0  0  0999 V2000
   14.0155    7.0452    1.2243 C   0  0  0  0  0  0  0  0  0  0  0  0
   13.6577    8.3402    1.9340 C   0  0  0  0  0  0  0  0  0  0  0  0
   14.6213    8.7734    2.9399 N   0  0  0  0  0  4  0  0  0  0  0  0
   12.1479    8.5868    2.2358 C   0  0  0  0  0  0  0  0  0  0  0  0
   11.2708    7.3634    2.5450 C   0  0  0  0  0  0  0  0  0  0  0  0
    9.7738    7.7130    2.4384 C   0  0  0  0  0  0  0  0  0  0  0  0
    9.4545    9.1902    2.6817 C   0  0  0  0  0  0  0  0  0  0  0  0
    7.9930    9.5119    2.7236 C   0  0  0  0  0  0  0  0  0  0  0  0
    7.4746    9.6077    1.5899 O   0  0  0  0  0  0  0  0  0  0  0  0
    7.1920    9.7025    3.9130 N   0  0  0  0  0  0  0  0  0  0  0  0
    5.8002   10.1396    3.9098 C   0  0  0  0  0  0  0  0  0  0  0  0
    5.1136   10.2622    5.1332 C   0  0  0  0  0  0  0  0  0  0  0  0
    3.7791   10.6918    5.1678 C   0  0  0  0  0  0  0  0  0  0  0  0
    3.1050   10.9965    3.9846 C   0  0  0  0  0  0  0  0  0  0  0  0
    3.7620   10.8848    2.7663 C   0  0  0  0  0  0  0  0  0  0  0  0
    5.0915   10.4774    2.7238 C   0  0  0  0  0  0  0  0  0  0  0  0
   10.4123   10.0785    3.4530 C   0  0  0  0  0  0  0  0  0  0  0  0
   11.8967    9.6862    3.2904 C   0  0  0  0  0  0  0  0  0  0  0  0
   13.3412    6.8748    0.3575 H   0  0  0  0  0  0  0  0  0  0  0  0
   15.0600    7.0795    0.8460 H   0  0  0  0  0  0  0  0  0  0  0  0
   13.9272    6.1936    1.9310 H   0  0  0  0  0  0  0  0  0  0  0  0
   13.8472    9.0661    1.1041 H   0  0  0  0  0  0  0  0  0  0  0  0
   14.4394    8.2635    3.8342 H   0  0  0  0  0  0  0  0  0  0  0  0
   14.5690    9.8041    3.1044 H   0  0  0  0  0  0  0  0  0  0  0  0
   15.5964    8.5564    2.6293 H   0  0  0  0  0  0  0  0  0  0  0  0
   11.7549    8.9789    1.2687 H   0  0  0  0  0  0  0  0  0  0  0  0
   11.4801    6.5302    1.8427 H   0  0  0  0  0  0  0  0  0  0  0  0
   11.5022    7.0014    3.5710 H   0  0  0  0  0  0  0  0  0  0  0  0
    9.3960    7.4069    1.4357 H   0  0  0  0  0  0  0  0  0  0  0  0
    9.2216    7.1022    3.1855 H   0  0  0  0  0  0  0  0  0  0  0  0
    9.7131    9.5882    1.6698 H   0  0  0  0  0  0  0  0  0  0  0  0
    7.6559    9.5263    4.8324 H   0  0  0  0  0  0  0  0  0  0  0  0
    5.6153   10.0259    6.0630 H   0  0  0  0  0  0  0  0  0  0  0  0
    3.2672   10.7820    6.1172 H   0  0  0  0  0  0  0  0  0  0  0  0
    2.0739   11.3242    4.0170 H   0  0  0  0  0  0  0  0  0  0  0  0
    3.2415   11.1383    1.8510 H   0  0  0  0  0  0  0  0  0  0  0  0
    5.5040   10.4952    1.7386 H   0  0  0  0  0  0  0  0  0  0  0  0
   10.1475   10.0136    4.5305 H   0  0  0  0  0  0  0  0  0  0  0  0
   10.2671   11.1433    3.1573 H   0  0  0  0  0  0  0  0  0  0  0  0
   12.4562   10.6027    3.0029 H   0  0  0  0  0  0  0  0  0  0  0  0
   12.2889    9.3466    4.2742 H   0  0  0  0  0  0  0  0  0  0  0  0
  1  2  1  0
  2  3  1  0
  2  4  1  0
  4  5  1  0
  5  6  1  0
  6  7  1  0
  7  8  1  0
  8  9  2  0
  8 10  1  0
 10 11  1  0
 11 12  2  0
 12 13  1  0
 13 14  2  0
 14 15  1  0
 15 16  2  0
  7 17  1  0
 17 18  1  0
 18  4  1  0
 16 11  1  0
  1 19  1  0
  1 20  1  0
  1 21  1  0
  2 22  1  0
  3 23  1  0
  3 24  1  0
  3 25  1  0
  4 26  1  0
  5 27  1  0
  5 28  1  0
  6 29  1  0
  6 30  1  0
  7 31  1  0
 10 32  1  0
 12 33  1  0
 13 34  1  0
 14 35  1  0
 15 36  1  0
 16 37  1  0
 17 38  1  0
 17 39  1  0
 18 40  1  0
 18 41  1  0
M  CHG  1   3   1
M  END
>  <EmbedRMS>  (156) 
0.24964892458419108

$$$$

     RDKit          3D

 37 37  0  0  0  0  0  0  0  0999 V2000
   13.9221    7.3285    1.0385 C   0  0  0  0  0  0  0  0  0  0  0  0
   13.7076    7.9210    2.4415 C   0  0  0  0  0  0  0  0  0  0  0  0
   14.6427    9.0267    2.6699 N   0  0  0  0  0  4  0  0  0  0  0  0
   12.2298    8.2935    2.8227 C   0  0  0  0  0  0  0  0  0  0  0  0
   11.1735    7.4162    2.1521 C   0  0  0  0  0  0  0  0  0  0  0  0
    9.7354    7.7244    2.5407 C   0  0  0  0  0  0  0  0  0  0  0  0
    9.4522    9.2048    2.6377 C   0  0  0  0  0  0  0  0  0  0  0  0
    7.9904    9.5435    2.7176 C   0  0  0  0  0  0  0  0  0  0  0  0
    7.4423    9.6720    1.6001 O   0  0  0  0  0  0  0  0  0  0  0  0
    7.2114    9.7063    3.9231 N   0  0  0  0  0  0  0  0  0  0  0  0
    5.8409   10.1958    3.9359 C   0  0  0  0  0  0  0  0  0  0  0  0
    5.0243   10.2629    5.3562 S   0  0  0  0  0  0  0  0  0  0  0  0
    5.1729   10.8418    2.7438 C   0  0  0  0  0  0  0  0  0  0  0  0
    5.8007   12.5323    2.5133 S   0  0  0  0  0  0  0  0  0  0  0  0
   10.4261   10.0516    3.4237 C   0  0  0  0  0  0  0  0  0  0  0  0
   11.8800    9.7844    3.0012 C   0  0  0  0  0  0  0  0  0  0  0  0
   13.5722    8.0452    0.2658 H   0  0  0  0  0  0  0  0  0  0  0  0
   14.9990    7.1182    0.8650 H   0  0  0  0  0  0  0  0  0  0  0  0
   13.3771    6.3681    0.9250 H   0  0  0  0  0  0  0  0  0  0  0  0
   14.0118    7.0967    3.1298 H   0  0  0  0  0  0  0  0  0  0  0  0
   15.6233    8.7091    2.4908 H   0  0  0  0  0  0  0  0  0  0  0  0
   14.5998    9.3359    3.6676 H   0  0  0  0  0  0  0  0  0  0  0  0
   14.4327    9.8277    2.0314 H   0  0  0  0  0  0  0  0  0  0  0  0
   12.1640    7.9493    3.8821 H   0  0  0  0  0  0  0  0  0  0  0  0
   11.3801    6.3428    2.3599 H   0  0  0  0  0  0  0  0  0  0  0  0
   11.2451    7.5649    1.0530 H   0  0  0  0  0  0  0  0  0  0  0  0
    9.0496    7.2437    1.8072 H   0  0  0  0  0  0  0  0  0  0  0  0
    9.5314    7.2692    3.5344 H   0  0  0  0  0  0  0  0  0  0  0  0
    9.7141    9.5370    1.6017 H   0  0  0  0  0  0  0  0  0  0  0  0
    7.6639    9.4565    4.8309 H   0  0  0  0  0  0  0  0  0  0  0  0
    4.0799   10.9240    2.9290 H   0  0  0  0  0  0  0  0  0  0  0  0
    5.2455   10.2414    1.8195 H   0  0  0  0  0  0  0  0  0  0  0  0
    4.9597   12.7639    1.4083 H   0  0  0  0  0  0  0  0  0  0  0  0
   10.3125    9.8094    4.5026 H   0  0  0  0  0  0  0  0  0  0  0  0
   10.1939   11.1315    3.2903 H   0  0  0  0  0  0  0  0  0  0  0  0
   12.5408   10.2598    3.7565 H   0  0  0  0  0  0  0  0  0  0  0  0
   12.0572   10.2971    2.0308 H   0  0  0  0  0  0  0  0  0  0  0  0
  1  2  1  0
  2  3  1  0
  2  4  1  0
  4  5  1  0
  5  6  1  0
  6  7  1  0
  7  8  1  0
  8  9  2  0
  8 10  1  0
 10 11  1  0
 11 12  2  0
 11 13  1  0
 13 14  1  0
  7 15  1  0
 15 16  1  0
 16  4  1  0
  1 17  1  0
  1 18  1  0
  1 19  1  0
  2 20  1  0
  3 21  1  0
  3 22  1  0
  3 23  1  0
  4 24  1  0
  5 25  1  0
  5 26  1  0
  6 27  1  0
  6 28  1  0
  7 29  1  0
 10 30  1  0
 13 31  1  0
 13 32  1  0
 14 33  1  0
 15 34  1  0
 15 35  1  0
 16 36  1  0
 16 37  1  0
M  CHG  1   3   1
M  END
>  <EmbedRMS>  (157) 
0.2776559693615689

$$$$

     RDKit          3D

 42 42  0  0  0  0  0  0  0  0999 V2000
    8.6750    8.1658    7.0703 C   0  0  0  0  0  0  0  0  0  0  0  0
    8.3763    8.4580    5.8022 C   0  0  0  0  0  0  0  0  0  0  0  0
    7.3143    9.3915    5.3537 C   0  0  0  0  0  0  0  0  0  0  0  0
    6.4078    9.8578    6.2465 C   0  0  0  0  0  0  0  0  0  0  0  0
    5.2565   10.7471    5.8877 C   0  0  0  0  0  0  0  0  0  0  0  0
    7.1493    9.7152    3.9495 N   0  0  0  0  0  0  0  0  0  0  0  0
    7.9765    9.4983    2.7821 C   0  0  0  0  0  0  0  0  0  0  0  0
    7.4301    9.6608    1.6607 O   0  0  0  0  0  0  0  0  0  0  0  0
    9.4445    9.1811    2.6937 C   0  0  0  0  0  0  0  0  0  0  0  0
    9.7537    7.7156    2.4382 C   0  0  0  0  0  0  0  0  0  0  0  0
   11.2038    7.4507    2.0892 C   0  0  0  0  0  0  0  0  0  0  0  0
   12.2683    8.3270    2.7571 C   0  0  0  0  0  0  0  0  0  0  0  0
   13.6145    8.3244    1.9914 C   0  0  0  0  0  0  0  0  0  0  0  0
   14.0289    7.0506    1.2546 C   0  0  0  0  0  0  0  0  0  0  0  0
   14.7105    8.8911    2.7788 N   0  0  0  0  0  4  0  0  0  0  0  0
   11.8580    9.7797    3.1035 C   0  0  0  0  0  0  0  0  0  0  0  0
   10.4067   10.0105    3.5026 C   0  0  0  0  0  0  0  0  0  0  0  0
    9.4522    7.4407    7.2763 H   0  0  0  0  0  0  0  0  0  0  0  0
    8.2207    8.6429    7.9236 H   0  0  0  0  0  0  0  0  0  0  0  0
    8.9290    7.9270    5.0689 H   0  0  0  0  0  0  0  0  0  0  0  0
    6.4522    9.5905    7.2899 H   0  0  0  0  0  0  0  0  0  0  0  0
    5.6232   11.6730    5.3961 H   0  0  0  0  0  0  0  0  0  0  0  0
    4.7085   11.0385    6.8086 H   0  0  0  0  0  0  0  0  0  0  0  0
    4.5465   10.2109    5.2233 H   0  0  0  0  0  0  0  0  0  0  0  0
    6.2337   10.1339    3.6758 H   0  0  0  0  0  0  0  0  0  0  0  0
    9.6986    9.5966    1.6856 H   0  0  0  0  0  0  0  0  0  0  0  0
    9.1148    7.3426    1.6051 H   0  0  0  0  0  0  0  0  0  0  0  0
    9.4972    7.0769    3.2974 H   0  0  0  0  0  0  0  0  0  0  0  0
   11.2718    7.6249    0.9927 H   0  0  0  0  0  0  0  0  0  0  0  0
   11.4331    6.3748    2.2587 H   0  0  0  0  0  0  0  0  0  0  0  0
   12.4573    7.8339    3.7373 H   0  0  0  0  0  0  0  0  0  0  0  0
   13.4588    9.0294    1.1415 H   0  0  0  0  0  0  0  0  0  0  0  0
   14.1162    6.2135    1.9787 H   0  0  0  0  0  0  0  0  0  0  0  0
   13.3003    6.7723    0.4659 H   0  0  0  0  0  0  0  0  0  0  0  0
   15.0110    7.1880    0.7539 H   0  0  0  0  0  0  0  0  0  0  0  0
   14.5373    9.8979    2.9966 H   0  0  0  0  0  0  0  0  0  0  0  0
   15.6086    8.8475    2.2446 H   0  0  0  0  0  0  0  0  0  0  0  0
   14.8256    8.3542    3.6688 H   0  0  0  0  0  0  0  0  0  0  0  0
   12.4979   10.1655    3.9267 H   0  0  0  0  0  0  0  0  0  0  0  0
   12.0458   10.4293    2.2200 H   0  0  0  0  0  0  0  0  0  0  0  0
   10.1603   11.0919    3.4053 H   0  0  0  0  0  0  0  0  0  0  0  0
   10.3056    9.7529    4.5738 H   0  0  0  0  0  0  0  0  0  0  0  0
  1  2  2  3
  2  3  1  0
  3  4  2  3
  4  5  1  0
  3  6  1  0
  6  7  1  0
  7  8  2  0
  7  9  1  0
  9 10  1  0
 10 11  1  0
 11 12  1  0
 12 13  1  0
 13 14  1  0
 13 15  1  0
 12 16  1  0
 16 17  1  0
 17  9  1  0
  1 18  1  0
  1 19  1  0
  2 20  1  0
  4 21  1  0
  5 22  1  0
  5 23  1  0
  5 24  1  0
  6 25  1  0
  9 26  1  0
 10 27  1  0
 10 28  1  0
 11 29  1  0
 11 30  1  0
 12 31  1  0
 13 32  1  0
 14 33  1  0
 14 34  1  0
 14 35  1  0
 15 36  1  0
 15 37  1  0
 15 38  1  0
 16 39  1  0
 16 40  1  0
 17 41  1  0
 17 42  1  0
M  CHG  1  15   1
M  END
>  <EmbedRMS>  (158) 
0.29216731409503444

$$$$

     RDKit          3D

 43 44  0  0  0  0  0  0  0  0999 V2000
   14.0276    7.2301    1.0858 C   0  0  0  0  0  0  0  0  0  0  0  0
   13.6459    7.9626    2.3850 C   0  0  0  0  0  0  0  0  0  0  0  0
   14.6273    9.0243    2.6470 N   0  0  0  0  0  4  0  0  0  0  0  0
   12.1819    8.5085    2.2960 C   0  0  0  0  0  0  0  0  0  0  0  0
   11.1978    7.3499    2.5409 C   0  0  0  0  0  0  0  0  0  0  0  0
    9.7345    7.7437    2.3739 C   0  0  0  0  0  0  0  0  0  0  0  0
    9.4500    9.2139    2.6409 C   0  0  0  0  0  0  0  0  0  0  0  0
    7.9871    9.5385    2.7237 C   0  0  0  0  0  0  0  0  0  0  0  0
    7.4165    9.6879    1.6153 O   0  0  0  0  0  0  0  0  0  0  0  0
    7.2149    9.6895    3.9283 N   0  0  0  0  0  0  0  0  0  0  0  0
    5.8138   10.1222    3.8054 C   0  0  0  0  0  0  0  0  0  0  0  0
    5.1472   10.2607    5.1400 C   0  0  0  0  0  0  0  0  0  0  0  0
    4.4718    9.1754    5.7134 C   0  0  0  0  0  0  0  0  0  0  0  0
    3.8687    9.3139    6.9637 C   0  0  0  0  0  0  0  0  0  0  0  0
    3.9494   10.5386    7.6297 C   0  0  0  0  0  0  0  0  0  0  0  0
    4.6077   11.5829    7.0597 N   0  0  0  0  0  0  0  0  0  0  0  0
    5.2027   11.4727    5.8424 C   0  0  0  0  0  0  0  0  0  0  0  0
   10.4185   10.0737    3.4302 C   0  0  0  0  0  0  0  0  0  0  0  0
   11.8964    9.6377    3.3188 C   0  0  0  0  0  0  0  0  0  0  0  0
   13.3803    6.3499    0.9044 H   0  0  0  0  0  0  0  0  0  0  0  0
   13.9572    7.9169    0.2153 H   0  0  0  0  0  0  0  0  0  0  0  0
   15.0709    6.8548    1.1517 H   0  0  0  0  0  0  0  0  0  0  0  0
   13.7144    7.2277    3.2199 H   0  0  0  0  0  0  0  0  0  0  0  0
   15.5990    8.6418    2.5845 H   0  0  0  0  0  0  0  0  0  0  0  0
   14.5149    9.3994    3.6159 H   0  0  0  0  0  0  0  0  0  0  0  0
   14.5263    9.7976    1.9494 H   0  0  0  0  0  0  0  0  0  0  0  0
   12.0112    8.9222    1.2764 H   0  0  0  0  0  0  0  0  0  0  0  0
   11.3979    6.4997    1.8580 H   0  0  0  0  0  0  0  0  0  0  0  0
   11.3436    6.9702    3.5775 H   0  0  0  0  0  0  0  0  0  0  0  0
    9.3957    7.4730    1.3468 H   0  0  0  0  0  0  0  0  0  0  0  0
    9.1283    7.1284    3.0751 H   0  0  0  0  0  0  0  0  0  0  0  0
    9.7095    9.6218    1.6318 H   0  0  0  0  0  0  0  0  0  0  0  0
    7.6566    9.5244    4.8608 H   0  0  0  0  0  0  0  0  0  0  0  0
    5.2544    9.3860    3.1871 H   0  0  0  0  0  0  0  0  0  0  0  0
    5.7751   11.0969    3.2707 H   0  0  0  0  0  0  0  0  0  0  0  0
    4.4175    8.2247    5.1974 H   0  0  0  0  0  0  0  0  0  0  0  0
    3.3461    8.4800    7.4142 H   0  0  0  0  0  0  0  0  0  0  0  0
    3.4872   10.6595    8.6003 H   0  0  0  0  0  0  0  0  0  0  0  0
    5.7224   12.3263    5.4264 H   0  0  0  0  0  0  0  0  0  0  0  0
   10.1212   10.0281    4.5004 H   0  0  0  0  0  0  0  0  0  0  0  0
   10.3159   11.1407    3.1251 H   0  0  0  0  0  0  0  0  0  0  0  0
   12.2359    9.3018    4.3242 H   0  0  0  0  0  0  0  0  0  0  0  0
   12.4950   10.5353    3.0521 H   0  0  0  0  0  0  0  0  0  0  0  0
  1  2  1  0
  2  3  1  0
  2  4  1  0
  4  5  1  0
  5  6  1  0
  6  7  1  0
  7  8  1  0
  8  9  2  0
  8 10  1  0
 10 11  1  0
 11 12  1  0
 12 13  2  0
 13 14  1  0
 14 15  2  0
 15 16  1  0
 16 17  2  0
  7 18  1  0
 18 19  1  0
 19  4  1  0
 17 12  1  0
  1 20  1  0
  1 21  1  0
  1 22  1  0
  2 23  1  0
  3 24  1  0
  3 25  1  0
  3 26  1  0
  4 27  1  0
  5 28  1  0
  5 29  1  0
  6 30  1  0
  6 31  1  0
  7 32  1  0
 10 33  1  0
 11 34  1  0
 11 35  1  0
 13 36  1  0
 14 37  1  0
 15 38  1  0
 17 39  1  0
 18 40  1  0
 18 41  1  0
 19 42  1  0
 19 43  1  0
M  CHG  1   3   1
M  END
>  <EmbedRMS>  (159) 
0.17084101544492625

$$$$

     RDKit          3D

 44 44  0  0  0  0  0  0  0  0999 V2000
    6.6437   12.2790    2.6486 C   0  0  0  0  0  0  0  0  0  0  0  0
    5.6131   11.5301    3.0449 C   0  0  0  0  0  0  0  0  0  0  0  0
    4.2786   11.9209    2.6893 N   0  0  0  0  0  0  0  0  0  0  0  0
    5.8501   10.3502    3.9226 C   0  0  0  0  0  0  0  0  0  0  0  0
    4.8812    9.9484    4.7654 C   0  0  0  0  0  0  0  0  0  0  0  0
    5.0470    8.7995    5.7114 C   0  0  0  0  0  0  0  0  0  0  0  0
    7.1470    9.7278    3.9965 N   0  0  0  0  0  0  0  0  0  0  0  0
    8.0090    9.4745    2.8802 C   0  0  0  0  0  0  0  0  0  0  0  0
    7.6086    9.6631    1.6969 O   0  0  0  0  0  0  0  0  0  0  0  0
    9.4086    8.9874    3.1492 C   0  0  0  0  0  0  0  0  0  0  0  0
    9.7850    7.8278    2.2083 C   0  0  0  0  0  0  0  0  0  0  0  0
   11.2371    7.3785    2.4499 C   0  0  0  0  0  0  0  0  0  0  0  0
   12.1565    8.5902    2.2116 C   0  0  0  0  0  0  0  0  0  0  0  0
   13.6682    8.3360    1.9397 C   0  0  0  0  0  0  0  0  0  0  0  0
   14.0268    7.0391    1.2346 C   0  0  0  0  0  0  0  0  0  0  0  0
   14.6124    8.7684    2.9623 N   0  0  0  0  0  4  0  0  0  0  0  0
   11.8544    9.6809    3.2540 C   0  0  0  0  0  0  0  0  0  0  0  0
   10.4054   10.1605    3.0857 C   0  0  0  0  0  0  0  0  0  0  0  0
    6.5020   13.1585    2.0336 H   0  0  0  0  0  0  0  0  0  0  0  0
    6.5020   13.1585    2.0336 H   0  0  0  0  0  0  0  0  0  0  0  0
    3.4754   11.2614    2.7816 H   0  0  0  0  0  0  0  0  0  0  0  0
    4.0934   12.8307    2.2102 H   0  0  0  0  0  0  0  0  0  0  0  0
    3.9278   10.4583    4.7978 H   0  0  0  0  0  0  0  0  0  0  0  0
    4.0823    8.5941    6.2211 H   0  0  0  0  0  0  0  0  0  0  0  0
    5.3539    7.8870    5.1574 H   0  0  0  0  0  0  0  0  0  0  0  0
    5.8024    9.0447    6.4868 H   0  0  0  0  0  0  0  0  0  0  0  0
    7.4943    9.4390    4.9382 H   0  0  0  0  0  0  0  0  0  0  0  0
    9.4488    8.5797    4.1842 H   0  0  0  0  0  0  0  0  0  0  0  0
    9.1080    6.9662    2.3979 H   0  0  0  0  0  0  0  0  0  0  0  0
    9.6564    8.1282    1.1444 H   0  0  0  0  0  0  0  0  0  0  0  0
   11.3647    6.9871    3.4829 H   0  0  0  0  0  0  0  0  0  0  0  0
   11.4596    6.5584    1.7370 H   0  0  0  0  0  0  0  0  0  0  0  0
   11.8023    9.0102    1.2370 H   0  0  0  0  0  0  0  0  0  0  0  0
   13.8824    9.0574    1.1113 H   0  0  0  0  0  0  0  0  0  0  0  0
   13.9056    6.1862    1.9348 H   0  0  0  0  0  0  0  0  0  0  0  0
   15.0821    7.0592    0.8866 H   0  0  0  0  0  0  0  0  0  0  0  0
   13.3762    6.8820    0.3473 H   0  0  0  0  0  0  0  0  0  0  0  0
   15.5885    8.5012    2.6977 H   0  0  0  0  0  0  0  0  0  0  0  0
   14.3763    8.3026    3.8679 H   0  0  0  0  0  0  0  0  0  0  0  0
   14.5957    9.8058    3.0873 H   0  0  0  0  0  0  0  0  0  0  0  0
   12.0178    9.2942    4.2838 H   0  0  0  0  0  0  0  0  0  0  0  0
   12.5084   10.5637    3.0959 H   0  0  0  0  0  0  0  0  0  0  0  0
   10.3033   10.6893    2.1114 H   0  0  0  0  0  0  0  0  0  0  0  0
   10.1709   10.8905    3.8913 H   0  0  0  0  0  0  0  0  0  0  0  0
  1  2  2  3
  2  3  1  0
  2  4  1  0
  4  5  2  3
  5  6  1  0
  4  7  1  0
  7  8  1  0
  8  9  2  0
  8 10  1  0
 10 11  1  0
 11 12  1  0
 12 13  1  0
 13 14  1  0
 14 15  1  0
 14 16  1  0
 13 17  1  0
 17 18  1  0
 18 10  1  0
  1 19  1  0
  1 20  1  0
  3 21  1  0
  3 22  1  0
  5 23  1  0
  6 24  1  0
  6 25  1  0
  6 26  1  0
  7 27  1  0
 10 28  1  0
 11 29  1  0
 11 30  1  0
 12 31  1  0
 12 32  1  0
 13 33  1  0
 14 34  1  0
 15 35  1  0
 15 36  1  0
 15 37  1  0
 16 38  1  0
 16 39  1  0
 16 40  1  0
 17 41  1  0
 17 42  1  0
 18 43  1  0
 18 44  1  0
M  CHG  1  16   1
M  END
>  <EmbedRMS>  (160) 
0.18324839054966638

$$$$

     RDKit          3D

 40 41  0  0  0  0  0  0  0  0999 V2000
   13.9332    7.3332    1.0251 C   0  0  0  0  0  0  0  0  0  0  0  0
   13.7125    7.9146    2.4297 C   0  0  0  0  0  0  0  0  0  0  0  0
   14.6504    9.0165    2.6726 N   0  0  0  0  0  4  0  0  0  0  0  0
   12.2364    8.2979    2.7979 C   0  0  0  0  0  0  0  0  0  0  0  0
   11.1515    7.3120    2.3262 C   0  0  0  0  0  0  0  0  0  0  0  0
    9.7912    7.9324    2.0765 C   0  0  0  0  0  0  0  0  0  0  0  0
    9.4261    8.9806    3.1220 C   0  0  0  0  0  0  0  0  0  0  0  0
    8.0225    9.4639    2.8667 C   0  0  0  0  0  0  0  0  0  0  0  0
    7.6546    9.6768    1.6802 O   0  0  0  0  0  0  0  0  0  0  0  0
    7.1435    9.7011    3.9767 N   0  0  0  0  0  0  0  0  0  0  0  0
    5.7719   10.1423    3.9218 C   0  0  0  0  0  0  0  0  0  0  0  0
    5.0682   10.2866    5.1272 C   0  0  0  0  0  0  0  0  0  0  0  0
    3.7425   10.7162    5.1245 C   0  0  0  0  0  0  0  0  0  0  0  0
    3.1199   11.0021    3.9115 C   0  0  0  0  0  0  0  0  0  0  0  0
    3.8030   10.8612    2.7487 N   0  0  0  0  0  0  0  0  0  0  0  0
    5.0935   10.4449    2.7201 C   0  0  0  0  0  0  0  0  0  0  0  0
   10.3969   10.1658    3.0679 C   0  0  0  0  0  0  0  0  0  0  0  0
   11.8884    9.7884    2.9926 C   0  0  0  0  0  0  0  0  0  0  0  0
   13.4390    7.9746    0.2649 H   0  0  0  0  0  0  0  0  0  0  0  0
   13.5402    6.2972    0.9560 H   0  0  0  0  0  0  0  0  0  0  0  0
   15.0172    7.2785    0.7884 H   0  0  0  0  0  0  0  0  0  0  0  0
   14.0108    7.0845    3.1148 H   0  0  0  0  0  0  0  0  0  0  0  0
   14.5446    9.3791    3.6472 H   0  0  0  0  0  0  0  0  0  0  0  0
   14.5091    9.7874    1.9809 H   0  0  0  0  0  0  0  0  0  0  0  0
   15.6338    8.6709    2.5809 H   0  0  0  0  0  0  0  0  0  0  0  0
   12.2424    8.0318    3.8833 H   0  0  0  0  0  0  0  0  0  0  0  0
   11.4353    6.8245    1.3751 H   0  0  0  0  0  0  0  0  0  0  0  0
   11.0353    6.4818    3.0616 H   0  0  0  0  0  0  0  0  0  0  0  0
    9.8005    8.4008    1.0657 H   0  0  0  0  0  0  0  0  0  0  0  0
    9.0262    7.1237    2.0652 H   0  0  0  0  0  0  0  0  0  0  0  0
    9.4833    8.5087    4.1284 H   0  0  0  0  0  0  0  0  0  0  0  0
    7.5457    9.5319    4.9268 H   0  0  0  0  0  0  0  0  0  0  0  0
    5.5478   10.0665    6.0729 H   0  0  0  0  0  0  0  0  0  0  0  0
    3.2017   10.8271    6.0555 H   0  0  0  0  0  0  0  0  0  0  0  0
    2.0913   11.3366    3.8945 H   0  0  0  0  0  0  0  0  0  0  0  0
    5.5409   10.3704    1.7502 H   0  0  0  0  0  0  0  0  0  0  0  0
   10.1534   10.7936    2.1801 H   0  0  0  0  0  0  0  0  0  0  0  0
   10.2256   10.8070    3.9610 H   0  0  0  0  0  0  0  0  0  0  0  0
   12.3112   10.3420    2.1274 H   0  0  0  0  0  0  0  0  0  0  0  0
   12.4001   10.1967    3.8942 H   0  0  0  0  0  0  0  0  0  0  0  0
  1  2  1  0
  2  3  1  0
  2  4  1  0
  4  5  1  0
  5  6  1  0
  6  7  1  0
  7  8  1  0
  8  9  2  0
  8 10  1  0
 10 11  1  0
 11 12  2  0
 12 13  1  0
 13 14  2  0
 14 15  1  0
 15 16  2  0
  7 17  1  0
 17 18  1  0
 18  4  1  0
 16 11  1  0
  1 19  1  0
  1 20  1  0
  1 21  1  0
  2 22  1  0
  3 23  1  0
  3 24  1  0
  3 25  1  0
  4 26  1  0
  5 27  1  0
  5 28  1  0
  6 29  1  0
  6 30  1  0
  7 31  1  0
 10 32  1  0
 12 33  1  0
 13 34  1  0
 14 35  1  0
 16 36  1  0
 17 37  1  0
 17 38  1  0
 18 39  1  0
 18 40  1  0
M  CHG  1   3   1
M  END
>  <EmbedRMS>  (161) 
0.16496192233382964

$$$$

     RDKit          3D

 41 42  0  0  0  0  0  0  0  0999 V2000
   13.9848    7.0986    1.1851 C   0  0  0  0  0  0  0  0  0  0  0  0
   13.5818    8.3571    1.9535 C   0  0  0  0  0  0  0  0  0  0  0  0
   14.7125    8.8837    2.7300 N   0  0  0  0  0  4  0  0  0  0  0  0
   12.2774    8.3210    2.7736 C   0  0  0  0  0  0  0  0  0  0  0  0
   11.1608    7.3109    2.3965 C   0  0  0  0  0  0  0  0  0  0  0  0
    9.8027    7.9207    2.0828 C   0  0  0  0  0  0  0  0  0  0  0  0
    9.4191    8.9871    3.1060 C   0  0  0  0  0  0  0  0  0  0  0  0
    8.0160    9.4679    2.8600 C   0  0  0  0  0  0  0  0  0  0  0  0
    7.6248    9.6823    1.6801 O   0  0  0  0  0  0  0  0  0  0  0  0
    7.1498    9.7002    3.9783 N   0  0  0  0  0  0  0  0  0  0  0  0
    5.7892   10.1357    3.8873 C   0  0  0  0  0  0  0  0  0  0  0  0
    5.0500   10.4463    2.7574 C   0  0  0  0  0  0  0  0  0  0  0  0
    3.8154   10.8163    3.1459 N   0  0  0  0  0  0  0  0  0  0  0  0
    3.7653   10.7356    4.4672 N   0  0  0  0  0  0  0  0  0  0  0  0
    2.5952   11.0848    5.2570 C   0  0  0  0  0  0  0  0  0  0  0  0
    4.9506   10.3352    4.9580 C   0  0  0  0  0  0  0  0  0  0  0  0
   10.3996   10.1503    3.0069 C   0  0  0  0  0  0  0  0  0  0  0  0
   11.8338    9.7186    3.3047 C   0  0  0  0  0  0  0  0  0  0  0  0
   13.9881    6.2215    1.8662 H   0  0  0  0  0  0  0  0  0  0  0  0
   15.0011    7.2119    0.7512 H   0  0  0  0  0  0  0  0  0  0  0  0
   13.2935    6.9112    0.3369 H   0  0  0  0  0  0  0  0  0  0  0  0
   13.3814    9.1011    1.1484 H   0  0  0  0  0  0  0  0  0  0  0  0
   15.5300    9.0533    2.0994 H   0  0  0  0  0  0  0  0  0  0  0  0
   14.9961    8.1897    3.4594 H   0  0  0  0  0  0  0  0  0  0  0  0
   14.4937    9.7898    3.1972 H   0  0  0  0  0  0  0  0  0  0  0  0
   12.6603    7.8393    3.7045 H   0  0  0  0  0  0  0  0  0  0  0  0
   11.0055    6.5970    3.2390 H   0  0  0  0  0  0  0  0  0  0  0  0
   11.4449    6.6797    1.5345 H   0  0  0  0  0  0  0  0  0  0  0  0
    9.0392    7.1109    2.0771 H   0  0  0  0  0  0  0  0  0  0  0  0
    9.8350    8.3599    1.0601 H   0  0  0  0  0  0  0  0  0  0  0  0
    9.4783    8.5432    4.1255 H   0  0  0  0  0  0  0  0  0  0  0  0
    7.5318    9.5376    4.9374 H   0  0  0  0  0  0  0  0  0  0  0  0
    5.3608   10.4205    1.7246 H   0  0  0  0  0  0  0  0  0  0  0  0
    1.6866   11.0770    4.6182 H   0  0  0  0  0  0  0  0  0  0  0  0
    2.7274   12.0990    5.6885 H   0  0  0  0  0  0  0  0  0  0  0  0
    2.4588   10.3506    6.0792 H   0  0  0  0  0  0  0  0  0  0  0  0
    5.1820   10.2005    6.0071 H   0  0  0  0  0  0  0  0  0  0  0  0
   10.3586   10.5864    1.9829 H   0  0  0  0  0  0  0  0  0  0  0  0
   10.1064   10.9521    3.7209 H   0  0  0  0  0  0  0  0  0  0  0  0
   11.9668    9.7488    4.4106 H   0  0  0  0  0  0  0  0  0  0  0  0
   12.4789   10.5257    2.8991 H   0  0  0  0  0  0  0  0  0  0  0  0
  1  2  1  0
  2  3  1  0
  2  4  1  0
  4  5  1  0
  5  6  1  0
  6  7  1  0
  7  8  1  0
  8  9  2  0
  8 10  1  0
 10 11  1  0
 11 12  1  0
 12 13  2  0
 13 14  1  0
 14 15  1  0
 14 16  1  0
  7 17  1  0
 17 18  1  0
 18  4  1  0
 16 11  2  0
  1 19  1  0
  1 20  1  0
  1 21  1  0
  2 22  1  0
  3 23  1  0
  3 24  1  0
  3 25  1  0
  4 26  1  0
  5 27  1  0
  5 28  1  0
  6 29  1  0
  6 30  1  0
  7 31  1  0
 10 32  1  0
 12 33  1  0
 15 34  1  0
 15 35  1  0
 15 36  1  0
 16 37  1  0
 17 38  1  0
 17 39  1  0
 18 40  1  0
 18 41  1  0
M  CHG  1   3   1
M  END
>  <EmbedRMS>  (162) 
0.202216898800577

$$$$

     RDKit          3D

 44 45  0  0  0  0  0  0  0  0999 V2000
    1.6783   11.4599    3.9768 C   0  0  0  0  0  0  0  0  0  0  0  0
    3.1067   11.0103    3.9686 C   0  0  0  0  0  0  0  0  0  0  0  0
    3.7782   10.6925    5.1582 C   0  0  0  0  0  0  0  0  0  0  0  0
    5.1135   10.2616    5.1270 C   0  0  0  0  0  0  0  0  0  0  0  0
    5.8042   10.1399    3.9056 C   0  0  0  0  0  0  0  0  0  0  0  0
    7.1979    9.7071    3.9072 N   0  0  0  0  0  0  0  0  0  0  0  0
    8.0012    9.5324    2.7145 C   0  0  0  0  0  0  0  0  0  0  0  0
    7.4810    9.6204    1.5821 O   0  0  0  0  0  0  0  0  0  0  0  0
    9.4618    9.2100    2.6609 C   0  0  0  0  0  0  0  0  0  0  0  0
    9.7431    7.7417    2.3808 C   0  0  0  0  0  0  0  0  0  0  0  0
   11.2045    7.3482    2.5458 C   0  0  0  0  0  0  0  0  0  0  0  0
   12.1863    8.5082    2.2997 C   0  0  0  0  0  0  0  0  0  0  0  0
   13.6498    7.9626    2.3855 C   0  0  0  0  0  0  0  0  0  0  0  0
   14.0290    7.2306    1.0853 C   0  0  0  0  0  0  0  0  0  0  0  0
   14.6309    9.0249    2.6458 N   0  0  0  0  0  4  0  0  0  0  0  0
   11.9035    9.6383    3.3242 C   0  0  0  0  0  0  0  0  0  0  0  0
   10.4256   10.0704    3.4489 C   0  0  0  0  0  0  0  0  0  0  0  0
    5.0979   10.4733    2.7191 C   0  0  0  0  0  0  0  0  0  0  0  0
    3.7718   10.8812    2.7540 C   0  0  0  0  0  0  0  0  0  0  0  0
    1.0255   10.6245    3.6477 H   0  0  0  0  0  0  0  0  0  0  0  0
    1.3654   11.7796    4.9936 H   0  0  0  0  0  0  0  0  0  0  0  0
    1.5425   12.3209    3.2880 H   0  0  0  0  0  0  0  0  0  0  0  0
    3.2718   10.7757    6.1119 H   0  0  0  0  0  0  0  0  0  0  0  0
    5.6126   10.0233    6.0578 H   0  0  0  0  0  0  0  0  0  0  0  0
    7.6619    9.5267    4.8257 H   0  0  0  0  0  0  0  0  0  0  0  0
    9.7419    9.6211    1.6575 H   0  0  0  0  0  0  0  0  0  0  0  0
    9.1361    7.1210    3.0766 H   0  0  0  0  0  0  0  0  0  0  0  0
    9.4060    7.4794    1.3508 H   0  0  0  0  0  0  0  0  0  0  0  0
   11.4038    6.4981    1.8625 H   0  0  0  0  0  0  0  0  0  0  0  0
   11.3518    6.9689    3.5823 H   0  0  0  0  0  0  0  0  0  0  0  0
   12.0142    8.9220    1.2804 H   0  0  0  0  0  0  0  0  0  0  0  0
   13.7205    7.2276    3.2201 H   0  0  0  0  0  0  0  0  0  0  0  0
   13.9558    7.9172    0.2149 H   0  0  0  0  0  0  0  0  0  0  0  0
   13.3827    6.3493    0.9055 H   0  0  0  0  0  0  0  0  0  0  0  0
   15.0730    6.8566    1.1486 H   0  0  0  0  0  0  0  0  0  0  0  0
   14.5212    9.3991    3.6153 H   0  0  0  0  0  0  0  0  0  0  0  0
   15.6027    8.6431    2.5804 H   0  0  0  0  0  0  0  0  0  0  0  0
   14.5278    9.7986    1.9491 H   0  0  0  0  0  0  0  0  0  0  0  0
   12.2518    9.3046    4.3273 H   0  0  0  0  0  0  0  0  0  0  0  0
   12.4974   10.5374    3.0521 H   0  0  0  0  0  0  0  0  0  0  0  0
   10.3169   11.1393    3.1519 H   0  0  0  0  0  0  0  0  0  0  0  0
   10.1337   10.0154    4.5201 H   0  0  0  0  0  0  0  0  0  0  0  0
    5.5081   10.4857    1.7336 H   0  0  0  0  0  0  0  0  0  0  0  0
    3.2646   11.1249    1.8274 H   0  0  0  0  0  0  0  0  0  0  0  0
  1  2  1  0
  2  3  2  0
  3  4  1  0
  4  5  2  0
  5  6  1  0
  6  7  1  0
  7  8  2  0
  7  9  1  0
  9 10  1  0
 10 11  1  0
 11 12  1  0
 12 13  1  0
 13 14  1  0
 13 15  1  0
 12 16  1  0
 16 17  1  0
  5 18  1  0
 18 19  2  0
 19  2  1  0
 17  9  1  0
  1 20  1  0
  1 21  1  0
  1 22  1  0
  3 23  1  0
  4 24  1  0
  6 25  1  0
  9 26  1  0
 10 27  1  0
 10 28  1  0
 11 29  1  0
 11 30  1  0
 12 31  1  0
 13 32  1  0
 14 33  1  0
 14 34  1  0
 14 35  1  0
 15 36  1  0
 15 37  1  0
 15 38  1  0
 16 39  1  0
 16 40  1  0
 17 41  1  0
 17 42  1  0
 18 43  1  0
 19 44  1  0
M  CHG  1  15   1
M  END
>  <EmbedRMS>  (163) 
0.17010060312639905

$$$$

     RDKit          3D

 44 44  0  0  0  0  0  0  0  0999 V2000
    5.8775   11.4490    5.8599 C   0  0  0  0  0  0  0  0  0  0  0  0
    5.1220   10.7187    4.7918 C   0  0  0  0  0  0  0  0  0  0  0  0
    5.7170    9.9083    3.8974 C   0  0  0  0  0  0  0  0  0  0  0  0
    7.1334    9.6721    3.9932 N   0  0  0  0  0  0  0  0  0  0  0  0
    8.0086    9.4604    2.8799 C   0  0  0  0  0  0  0  0  0  0  0  0
    7.6262    9.7033    1.7007 O   0  0  0  0  0  0  0  0  0  0  0  0
    9.4096    8.9836    3.1496 C   0  0  0  0  0  0  0  0  0  0  0  0
    9.7865    7.8249    2.2087 C   0  0  0  0  0  0  0  0  0  0  0  0
   11.2388    7.3775    2.4503 C   0  0  0  0  0  0  0  0  0  0  0  0
   12.1566    8.5902    2.2114 C   0  0  0  0  0  0  0  0  0  0  0  0
   13.6684    8.3368    1.9397 C   0  0  0  0  0  0  0  0  0  0  0  0
   14.0276    7.0400    1.2347 C   0  0  0  0  0  0  0  0  0  0  0  0
   14.6122    8.7694    2.9626 N   0  0  0  0  0  4  0  0  0  0  0  0
   11.8534    9.6815    3.2532 C   0  0  0  0  0  0  0  0  0  0  0  0
   10.4035   10.1590    3.0855 C   0  0  0  0  0  0  0  0  0  0  0  0
    4.8812    9.1732    2.9075 C   0  0  0  0  0  0  0  0  0  0  0  0
    5.3293    7.8586    2.3348 C   0  0  0  0  0  0  0  0  0  0  0  0
    3.7156    9.6375    2.5770 N   0  0  0  0  0  0  0  0  0  0  0  0
    5.1882   12.1266    6.4059 H   0  0  0  0  0  0  0  0  0  0  0  0
    6.6877   12.0602    5.4085 H   0  0  0  0  0  0  0  0  0  0  0  0
    6.3055   10.7294    6.5889 H   0  0  0  0  0  0  0  0  0  0  0  0
    4.0500   10.8746    4.7592 H   0  0  0  0  0  0  0  0  0  0  0  0
    7.5679    9.6582    4.9430 H   0  0  0  0  0  0  0  0  0  0  0  0
    9.4484    8.5759    4.1851 H   0  0  0  0  0  0  0  0  0  0  0  0
    9.1103    6.9626    2.3983 H   0  0  0  0  0  0  0  0  0  0  0  0
    9.6566    8.1253    1.1449 H   0  0  0  0  0  0  0  0  0  0  0  0
   11.3670    6.9867    3.4834 H   0  0  0  0  0  0  0  0  0  0  0  0
   11.4619    6.5574    1.7376 H   0  0  0  0  0  0  0  0  0  0  0  0
   11.8021    9.0093    1.2366 H   0  0  0  0  0  0  0  0  0  0  0  0
   13.8825    9.0584    1.1115 H   0  0  0  0  0  0  0  0  0  0  0  0
   15.0830    7.0605    0.8868 H   0  0  0  0  0  0  0  0  0  0  0  0
   13.3772    6.8826    0.3473 H   0  0  0  0  0  0  0  0  0  0  0  0
   13.9068    6.1870    1.9349 H   0  0  0  0  0  0  0  0  0  0  0  0
   14.3767    8.3025    3.8678 H   0  0  0  0  0  0  0  0  0  0  0  0
   15.5886    8.5036    2.6977 H   0  0  0  0  0  0  0  0  0  0  0  0
   14.5942    9.8066    3.0886 H   0  0  0  0  0  0  0  0  0  0  0  0
   12.5063   10.5650    3.0941 H   0  0  0  0  0  0  0  0  0  0  0  0
   12.0179    9.2958    4.2832 H   0  0  0  0  0  0  0  0  0  0  0  0
   10.1680   10.8883    3.8913 H   0  0  0  0  0  0  0  0  0  0  0  0
   10.3005   10.6872    2.1110 H   0  0  0  0  0  0  0  0  0  0  0  0
    6.1429    7.4090    2.9413 H   0  0  0  0  0  0  0  0  0  0  0  0
    4.4828    7.1396    2.3312 H   0  0  0  0  0  0  0  0  0  0  0  0
    5.6763    8.0000    1.2905 H   0  0  0  0  0  0  0  0  0  0  0  0
    3.0902    9.1404    1.9035 H   0  0  0  0  0  0  0  0  0  0  0  0
  1  2  1  0
  2  3  2  3
  3  4  1  0
  4  5  1  0
  5  6  2  0
  5  7  1  0
  7  8  1  0
  8  9  1  0
  9 10  1  0
 10 11  1  0
 11 12  1  0
 11 13  1  0
 10 14  1  0
 14 15  1  0
  3 16  1  0
 16 17  1  0
 16 18  2  3
 15  7  1  0
  1 19  1  0
  1 20  1  0
  1 21  1  0
  2 22  1  0
  4 23  1  0
  7 24  1  0
  8 25  1  0
  8 26  1  0
  9 27  1  0
  9 28  1  0
 10 29  1  0
 11 30  1  0
 12 31  1  0
 12 32  1  0
 12 33  1  0
 13 34  1  0
 13 35  1  0
 13 36  1  0
 14 37  1  0
 14 38  1  0
 15 39  1  0
 15 40  1  0
 17 41  1  0
 17 42  1  0
 17 43  1  0
 18 44  1  0
M  CHG  1  13   1
M  END
>  <EmbedRMS>  (164) 
0.18298173008130458

$$$$

     RDKit          3D

 40 40  0  0  0  0  0  0  0  0999 V2000
    5.5407   11.6180    3.6554 C   0  0  0  0  0  0  0  0  0  0  0  0
    5.8058   10.1638    3.3935 C   0  0  0  0  0  0  0  0  0  0  0  0
    4.7538    9.0949    3.4999 C   0  0  0  0  0  0  0  0  0  0  0  0
    7.1646    9.7213    3.7622 N   0  0  0  0  0  0  0  0  0  0  0  0
    8.0477    9.5200    2.6445 C   0  0  0  0  0  0  0  0  0  0  0  0
    7.5830    9.6174    1.4822 O   0  0  0  0  0  0  0  0  0  0  0  0
    9.4927    9.1844    2.6542 C   0  0  0  0  0  0  0  0  0  0  0  0
    9.7616    7.7064    2.5582 C   0  0  0  0  0  0  0  0  0  0  0  0
   11.1938    7.4035    2.1625 C   0  0  0  0  0  0  0  0  0  0  0  0
   12.2467    8.2884    2.8294 C   0  0  0  0  0  0  0  0  0  0  0  0
   13.7211    7.9200    2.4417 C   0  0  0  0  0  0  0  0  0  0  0  0
   13.9297    7.3296    1.0369 C   0  0  0  0  0  0  0  0  0  0  0  0
   14.6532    9.0282    2.6670 N   0  0  0  0  0  4  0  0  0  0  0  0
   11.8971    9.7807    3.0224 C   0  0  0  0  0  0  0  0  0  0  0  0
   10.4425   10.0439    3.4437 C   0  0  0  0  0  0  0  0  0  0  0  0
    5.5188   11.7897    4.7518 H   0  0  0  0  0  0  0  0  0  0  0  0
    4.5582   11.9308    3.2364 H   0  0  0  0  0  0  0  0  0  0  0  0
    6.3437   12.2510    3.2170 H   0  0  0  0  0  0  0  0  0  0  0  0
    5.7140   10.2669    2.2952 H   0  0  0  0  0  0  0  0  0  0  0  0
    5.0730    8.1743    2.9631 H   0  0  0  0  0  0  0  0  0  0  0  0
    4.6011    8.8424    4.5699 H   0  0  0  0  0  0  0  0  0  0  0  0
    3.7828    9.4433    3.0829 H   0  0  0  0  0  0  0  0  0  0  0  0
    7.4775    9.6222    4.7533 H   0  0  0  0  0  0  0  0  0  0  0  0
    9.8037    9.5074    1.6267 H   0  0  0  0  0  0  0  0  0  0  0  0
    9.0743    7.2236    1.8269 H   0  0  0  0  0  0  0  0  0  0  0  0
    9.5619    7.2532    3.5538 H   0  0  0  0  0  0  0  0  0  0  0  0
   11.2595    7.5502    1.0627 H   0  0  0  0  0  0  0  0  0  0  0  0
   11.4058    6.3313    2.3716 H   0  0  0  0  0  0  0  0  0  0  0  0
   12.1870    7.9396    3.8879 H   0  0  0  0  0  0  0  0  0  0  0  0
   14.0315    7.0958    3.1273 H   0  0  0  0  0  0  0  0  0  0  0  0
   13.5712    8.0448    0.2667 H   0  0  0  0  0  0  0  0  0  0  0  0
   15.0067    7.1259    0.8564 H   0  0  0  0  0  0  0  0  0  0  0  0
   13.3906    6.3656    0.9259 H   0  0  0  0  0  0  0  0  0  0  0  0
   15.6338    8.7137    2.4825 H   0  0  0  0  0  0  0  0  0  0  0  0
   14.6153    9.3357    3.6654 H   0  0  0  0  0  0  0  0  0  0  0  0
   14.4385    9.8295    2.0304 H   0  0  0  0  0  0  0  0  0  0  0  0
   12.5558   10.2477    3.7848 H   0  0  0  0  0  0  0  0  0  0  0  0
   12.0785   10.3039    2.0584 H   0  0  0  0  0  0  0  0  0  0  0  0
   10.2028   11.1216    3.3039 H   0  0  0  0  0  0  0  0  0  0  0  0
   10.3242    9.8024    4.5222 H   0  0  0  0  0  0  0  0  0  0  0  0
  1  2  1  0
  2  3  1  0
  2  4  1  0
  4  5  1  0
  5  6  2  0
  5  7  1  0
  7  8  1  0
  8  9  1  0
  9 10  1  0
 10 11  1  0
 11 12  1  0
 11 13  1  0
 10 14  1  0
 14 15  1  0
 15  7  1  0
  1 16  1  0
  1 17  1  0
  1 18  1  0
  2 19  1  0
  3 20  1  0
  3 21  1  0
  3 22  1  0
  4 23  1  0
  7 24  1  0
  8 25  1  0
  8 26  1  0
  9 27  1  0
  9 28  1  0
 10 29  1  0
 11 30  1  0
 12 31  1  0
 12 32  1  0
 12 33  1  0
 13 34  1  0
 13 35  1  0
 13 36  1  0
 14 37  1  0
 14 38  1  0
 15 39  1  0
 15 40  1  0
M  CHG  1  13   1
M  END
>  <EmbedRMS>  (165) 
0.35838126622633487

$$$$

     RDKit          3D

 39 41  0  0  0  0  0  0  0  0999 V2000
   14.0276    7.0399    1.2343 C   0  0  0  0  0  0  0  0  0  0  0  0
   13.6687    8.3366    1.9397 C   0  0  0  0  0  0  0  0  0  0  0  0
   14.6131    8.7689    2.9622 N   0  0  0  0  0  4  0  0  0  0  0  0
   12.1573    8.5898    2.2126 C   0  0  0  0  0  0  0  0  0  0  0  0
   11.2406    7.3770    2.4538 C   0  0  0  0  0  0  0  0  0  0  0  0
    9.7882    7.8236    2.2151 C   0  0  0  0  0  0  0  0  0  0  0  0
    9.4106    8.9834    3.1562 C   0  0  0  0  0  0  0  0  0  0  0  0
    8.0136    9.4643    2.8775 C   0  0  0  0  0  0  0  0  0  0  0  0
    7.6372    9.6744    1.6910 O   0  0  0  0  0  0  0  0  0  0  0  0
    7.1331    9.7031    3.9806 N   0  0  0  0  0  0  0  0  0  0  0  0
    5.7791   10.1383    3.8528 C   0  0  0  0  0  0  0  0  0  0  0  0
    4.9688   10.4703    2.6846 C   0  0  0  0  0  0  0  0  0  0  0  0
    3.6046   10.8885    3.0079 C   0  0  0  0  0  0  0  0  0  0  0  0
    3.6788   10.7825    4.3494 C   0  0  0  0  0  0  0  0  0  0  0  0
    3.8735   10.6372    5.6986 C   0  0  0  0  0  0  0  0  0  0  0  0
    4.8896   10.3649    4.8196 C   0  0  0  0  0  0  0  0  0  0  0  0
   10.4056   10.1582    3.0890 C   0  0  0  0  0  0  0  0  0  0  0  0
   11.8554    9.6809    3.2548 C   0  0  0  0  0  0  0  0  0  0  0  0
   13.9078    6.1869    1.9346 H   0  0  0  0  0  0  0  0  0  0  0  0
   15.0825    7.0608    0.8852 H   0  0  0  0  0  0  0  0  0  0  0  0
   13.3762    6.8823    0.3476 H   0  0  0  0  0  0  0  0  0  0  0  0
   13.8821    9.0584    1.1115 H   0  0  0  0  0  0  0  0  0  0  0  0
   14.5956    9.8062    3.0881 H   0  0  0  0  0  0  0  0  0  0  0  0
   15.5893    8.5029    2.6968 H   0  0  0  0  0  0  0  0  0  0  0  0
   14.3780    8.3021    3.8675 H   0  0  0  0  0  0  0  0  0  0  0  0
   11.8014    9.0084    1.2380 H   0  0  0  0  0  0  0  0  0  0  0  0
   11.3708    6.9868    3.4869 H   0  0  0  0  0  0  0  0  0  0  0  0
   11.4628    6.5566    1.7411 H   0  0  0  0  0  0  0  0  0  0  0  0
    9.6579    8.1218    1.1507 H   0  0  0  0  0  0  0  0  0  0  0  0
    9.1134    6.9606    2.4063 H   0  0  0  0  0  0  0  0  0  0  0  0
    9.4448    8.5792    4.1930 H   0  0  0  0  0  0  0  0  0  0  0  0
    7.4922    9.5494    4.9498 H   0  0  0  0  0  0  0  0  0  0  0  0
    5.3206   10.4219    1.6649 H   0  0  0  0  0  0  0  0  0  0  0  0
    2.7874   11.1909    2.3675 H   0  0  0  0  0  0  0  0  0  0  0  0
    3.5003   10.6952    6.7116 H   0  0  0  0  0  0  0  0  0  0  0  0
   10.3017   10.6858    2.1143 H   0  0  0  0  0  0  0  0  0  0  0  0
   10.1719   10.8887    3.8944 H   0  0  0  0  0  0  0  0  0  0  0  0
   12.0213    9.2953    4.2846 H   0  0  0  0  0  0  0  0  0  0  0  0
   12.5079   10.5645    3.0947 H   0  0  0  0  0  0  0  0  0  0  0  0
  1  2  1  0
  2  3  1  0
  2  4  1  0
  4  5  1  0
  5  6  1  0
  6  7  1  0
  7  8  1  0
  8  9  2  0
  8 10  1  0
 10 11  1  0
 11 12  2  0
 12 13  1  0
 13 14  2  0
 14 15  1  0
 15 16  2  0
  7 17  1  0
 17 18  1  0
 18  4  1  0
 16 11  1  0
 16 14  1  0
  1 19  1  0
  1 20  1  0
  1 21  1  0
  2 22  1  0
  3 23  1  0
  3 24  1  0
  3 25  1  0
  4 26  1  0
  5 27  1  0
  5 28  1  0
  6 29  1  0
  6 30  1  0
  7 31  1  0
 10 32  1  0
 12 33  1  0
 13 34  1  0
 15 35  1  0
 17 36  1  0
 17 37  1  0
 18 38  1  0
 18 39  1  0
M  CHG  1   3   1
M  END
>  <EmbedRMS>  (166) 
0.18242760821357734

$$$$

     RDKit          3D

 36 36  0  0  0  0  0  0  0  0999 V2000
    5.1746   10.2320    5.1091 C   0  0  0  0  0  0  0  0  0  0  0  0
    5.8481   10.1807    3.9614 C   0  0  0  0  0  0  0  0  0  0  0  0
    5.0091   10.7913    2.4843 S   0  0  0  0  0  0  0  0  0  0  0  0
    7.2161    9.6891    3.9376 N   0  0  0  0  0  0  0  0  0  0  0  0
    7.9832    9.5311    2.7244 C   0  0  0  0  0  0  0  0  0  0  0  0
    7.4258    9.6640    1.6104 O   0  0  0  0  0  0  0  0  0  0  0  0
    9.4470    9.2041    2.6430 C   0  0  0  0  0  0  0  0  0  0  0  0
    9.7423    7.7280    2.5462 C   0  0  0  0  0  0  0  0  0  0  0  0
   11.1773    7.4413    2.1352 C   0  0  0  0  0  0  0  0  0  0  0  0
   12.2600    8.3276    2.7678 C   0  0  0  0  0  0  0  0  0  0  0  0
   13.5994    8.3245    1.9900 C   0  0  0  0  0  0  0  0  0  0  0  0
   14.0099    7.0507    1.2530 C   0  0  0  0  0  0  0  0  0  0  0  0
   14.7016    8.8917    2.7696 N   0  0  0  0  0  4  0  0  0  0  0  0
   11.8484    9.7811    3.1228 C   0  0  0  0  0  0  0  0  0  0  0  0
   10.3846   10.0209    3.4873 C   0  0  0  0  0  0  0  0  0  0  0  0
    4.1605   10.6099    5.1417 H   0  0  0  0  0  0  0  0  0  0  0  0
    5.6281    9.8942    6.0322 H   0  0  0  0  0  0  0  0  0  0  0  0
    4.4941    9.5163    2.1837 H   0  0  0  0  0  0  0  0  0  0  0  0
    7.6854    9.4493    4.8400 H   0  0  0  0  0  0  0  0  0  0  0  0
    9.7227    9.5639    1.6203 H   0  0  0  0  0  0  0  0  0  0  0  0
    9.5594    7.2703    3.5429 H   0  0  0  0  0  0  0  0  0  0  0  0
    9.0514    7.2398    1.8225 H   0  0  0  0  0  0  0  0  0  0  0  0
   11.2105    7.5945    1.0343 H   0  0  0  0  0  0  0  0  0  0  0  0
   11.4035    6.3683    2.3228 H   0  0  0  0  0  0  0  0  0  0  0  0
   12.4673    7.8404    3.7473 H   0  0  0  0  0  0  0  0  0  0  0  0
   13.4351    9.0287    1.1413 H   0  0  0  0  0  0  0  0  0  0  0  0
   14.1172    6.2182    1.9798 H   0  0  0  0  0  0  0  0  0  0  0  0
   14.9807    7.1935    0.7321 H   0  0  0  0  0  0  0  0  0  0  0  0
   13.2649    6.7639    0.4828 H   0  0  0  0  0  0  0  0  0  0  0  0
   14.5199    9.8926    3.0069 H   0  0  0  0  0  0  0  0  0  0  0  0
   15.5911    8.8663    2.2198 H   0  0  0  0  0  0  0  0  0  0  0  0
   14.8367    8.3421    3.6489 H   0  0  0  0  0  0  0  0  0  0  0  0
   12.0628   10.4409    2.2532 H   0  0  0  0  0  0  0  0  0  0  0  0
   12.4710   10.1526    3.9657 H   0  0  0  0  0  0  0  0  0  0  0  0
   10.1476   11.1042    3.3921 H   0  0  0  0  0  0  0  0  0  0  0  0
   10.2327    9.7359    4.5511 H   0  0  0  0  0  0  0  0  0  0  0  0
  1  2  2  3
  2  3  1  0
  2  4  1  0
  4  5  1  0
  5  6  2  0
  5  7  1  0
  7  8  1  0
  8  9  1  0
  9 10  1  0
 10 11  1  0
 11 12  1  0
 11 13  1  0
 10 14  1  0
 14 15  1  0
 15  7  1  0
  1 16  1  0
  1 17  1  0
  3 18  1  0
  4 19  1  0
  7 20  1  0
  8 21  1  0
  8 22  1  0
  9 23  1  0
  9 24  1  0
 10 25  1  0
 11 26  1  0
 12 27  1  0
 12 28  1  0
 12 29  1  0
 13 30  1  0
 13 31  1  0
 13 32  1  0
 14 33  1  0
 14 34  1  0
 15 35  1  0
 15 36  1  0
M  CHG  1  13   1
M  END
>  <EmbedRMS>  (167) 
0.32055312693297616

$$$$

     RDKit          3D

 45 46  0  0  0  0  0  0  0  0999 V2000
    6.1882   12.4431    1.0050 C   0  0  0  0  0  0  0  0  0  0  0  0
    6.6165   12.3688    2.4669 C   0  0  0  0  0  0  0  0  0  0  0  0
    5.6748   11.5517    3.2356 N   0  0  0  0  0  0  0  0  0  0  0  0
    4.4211   11.9377    3.5476 C   0  0  0  0  0  0  0  0  0  0  0  0
    3.8518   11.0437    4.4318 C   0  0  0  0  0  0  0  0  0  0  0  0
    4.7978   10.0711    4.6798 C   0  0  0  0  0  0  0  0  0  0  0  0
    5.8970   10.4024    3.9151 C   0  0  0  0  0  0  0  0  0  0  0  0
    7.1445    9.7064    3.9907 N   0  0  0  0  0  0  0  0  0  0  0  0
    8.0123    9.4738    2.8768 C   0  0  0  0  0  0  0  0  0  0  0  0
    7.6057    9.6528    1.6947 O   0  0  0  0  0  0  0  0  0  0  0  0
    9.4098    8.9904    3.1342 C   0  0  0  0  0  0  0  0  0  0  0  0
    9.7727    7.8697    2.1556 C   0  0  0  0  0  0  0  0  0  0  0  0
   11.1812    7.3649    2.4348 C   0  0  0  0  0  0  0  0  0  0  0  0
   12.2003    8.5118    2.2733 C   0  0  0  0  0  0  0  0  0  0  0  0
   13.6497    7.9557    2.3991 C   0  0  0  0  0  0  0  0  0  0  0  0
   14.0492    7.2193    1.1051 C   0  0  0  0  0  0  0  0  0  0  0  0
   14.6287    9.0159    2.6714 N   0  0  0  0  0  4  0  0  0  0  0  0
   11.8578    9.6380    3.2805 C   0  0  0  0  0  0  0  0  0  0  0  0
   10.4219   10.1471    3.0652 C   0  0  0  0  0  0  0  0  0  0  0  0
    6.9483   13.0046    0.4223 H   0  0  0  0  0  0  0  0  0  0  0  0
    6.0862   11.4253    0.5753 H   0  0  0  0  0  0  0  0  0  0  0  0
    5.2140   12.9688    0.9163 H   0  0  0  0  0  0  0  0  0  0  0  0
    7.6554   11.9991    2.5521 H   0  0  0  0  0  0  0  0  0  0  0  0
    6.6252   13.3989    2.8851 H   0  0  0  0  0  0  0  0  0  0  0  0
    3.9544   12.8473    3.1912 H   0  0  0  0  0  0  0  0  0  0  0  0
    2.8667   11.1123    4.8733 H   0  0  0  0  0  0  0  0  0  0  0  0
    4.7025    9.2318    5.3559 H   0  0  0  0  0  0  0  0  0  0  0  0
    7.3787    9.2501    4.9012 H   0  0  0  0  0  0  0  0  0  0  0  0
    9.4511    8.5644    4.1622 H   0  0  0  0  0  0  0  0  0  0  0  0
    9.0580    7.0254    2.2741 H   0  0  0  0  0  0  0  0  0  0  0  0
    9.7109    8.2295    1.1039 H   0  0  0  0  0  0  0  0  0  0  0  0
   11.3834    6.5443    1.7183 H   0  0  0  0  0  0  0  0  0  0  0  0
   11.2354    6.9384    3.4614 H   0  0  0  0  0  0  0  0  0  0  0  0
   12.0882    8.9467    1.2532 H   0  0  0  0  0  0  0  0  0  0  0  0
   13.6913    7.2251    3.2393 H   0  0  0  0  0  0  0  0  0  0  0  0
   13.9785    7.8970    0.2276 H   0  0  0  0  0  0  0  0  0  0  0  0
   13.4188    6.3262    0.9277 H   0  0  0  0  0  0  0  0  0  0  0  0
   15.0968    6.8582    1.1812 H   0  0  0  0  0  0  0  0  0  0  0  0
   14.5436    9.7862    1.9684 H   0  0  0  0  0  0  0  0  0  0  0  0
   14.4954    9.3940    3.6368 H   0  0  0  0  0  0  0  0  0  0  0  0
   15.6003    8.6301    2.6314 H   0  0  0  0  0  0  0  0  0  0  0  0
   11.9737    9.2667    4.3227 H   0  0  0  0  0  0  0  0  0  0  0  0
   12.5361   10.5056    3.1399 H   0  0  0  0  0  0  0  0  0  0  0  0
   10.1821   10.8993    3.8484 H   0  0  0  0  0  0  0  0  0  0  0  0
   10.3544   10.6501    2.0747 H   0  0  0  0  0  0  0  0  0  0  0  0
  1  2  1  0
  2  3  1  0
  3  4  1  0
  4  5  2  0
  5  6  1  0
  6  7  2  0
  7  8  1  0
  8  9  1  0
  9 10  2  0
  9 11  1  0
 11 12  1  0
 12 13  1  0
 13 14  1  0
 14 15  1  0
 15 16  1  0
 15 17  1  0
 14 18  1  0
 18 19  1  0
  7  3  1  0
 19 11  1  0
  1 20  1  0
  1 21  1  0
  1 22  1  0
  2 23  1  0
  2 24  1  0
  4 25  1  0
  5 26  1  0
  6 27  1  0
  8 28  1  0
 11 29  1  0
 12 30  1  0
 12 31  1  0
 13 32  1  0
 13 33  1  0
 14 34  1  0
 15 35  1  0
 16 36  1  0
 16 37  1  0
 16 38  1  0
 17 39  1  0
 17 40  1  0
 17 41  1  0
 18 42  1  0
 18 43  1  0
 19 44  1  0
 19 45  1  0
M  CHG  1  17   1
M  END
>  <EmbedRMS>  (168) 
0.03324769706297822

$$$$

     RDKit          3D

 39 40  0  0  0  0  0  0  0  0999 V2000
   14.0110    7.0511    1.2526 C   0  0  0  0  0  0  0  0  0  0  0  0
   13.6007    8.3248    1.9901 C   0  0  0  0  0  0  0  0  0  0  0  0
   14.7033    8.8921    2.7690 N   0  0  0  0  0  4  0  0  0  0  0  0
   12.2625    8.3270    2.7691 C   0  0  0  0  0  0  0  0  0  0  0  0
   11.1802    7.4398    2.1370 C   0  0  0  0  0  0  0  0  0  0  0  0
    9.7464    7.7250    2.5506 C   0  0  0  0  0  0  0  0  0  0  0  0
    9.4528    9.2006    2.6508 C   0  0  0  0  0  0  0  0  0  0  0  0
    7.9907    9.5272    2.7197 C   0  0  0  0  0  0  0  0  0  0  0  0
    7.4511    9.6605    1.5982 O   0  0  0  0  0  0  0  0  0  0  0  0
    7.2032    9.6917    3.9188 N   0  0  0  0  0  0  0  0  0  0  0  0
    5.8190   10.1244    3.8864 C   0  0  0  0  0  0  0  0  0  0  0  0
    5.0492   10.4501    2.7707 C   0  0  0  0  0  0  0  0  0  0  0  0
    3.8118   10.8137    3.2504 C   0  0  0  0  0  0  0  0  0  0  0  0
    3.7917   10.7296    4.5924 N   0  0  0  0  0  0  0  0  0  0  0  0
    5.0092   10.3116    4.9903 C   0  0  0  0  0  0  0  0  0  0  0  0
   10.3879   10.0193    3.4937 C   0  0  0  0  0  0  0  0  0  0  0  0
   11.8511    9.7804    3.1265 C   0  0  0  0  0  0  0  0  0  0  0  0
   13.2659    6.7648    0.4822 H   0  0  0  0  0  0  0  0  0  0  0  0
   14.9817    7.1940    0.7316 H   0  0  0  0  0  0  0  0  0  0  0  0
   14.1182    6.2183    1.9789 H   0  0  0  0  0  0  0  0  0  0  0  0
   13.4353    9.0292    1.1418 H   0  0  0  0  0  0  0  0  0  0  0  0
   14.5218    9.8930    3.0061 H   0  0  0  0  0  0  0  0  0  0  0  0
   15.5925    8.8665    2.2188 H   0  0  0  0  0  0  0  0  0  0  0  0
   14.8389    8.3426    3.6484 H   0  0  0  0  0  0  0  0  0  0  0  0
   12.4711    7.8390    3.7480 H   0  0  0  0  0  0  0  0  0  0  0  0
   11.2117    7.5939    1.0361 H   0  0  0  0  0  0  0  0  0  0  0  0
   11.4077    6.3669    2.3236 H   0  0  0  0  0  0  0  0  0  0  0  0
    9.0547    7.2379    1.8268 H   0  0  0  0  0  0  0  0  0  0  0  0
    9.5649    7.2656    3.5467 H   0  0  0  0  0  0  0  0  0  0  0  0
    9.7356    9.5600    1.6294 H   0  0  0  0  0  0  0  0  0  0  0  0
    7.6552    9.5149    4.8435 H   0  0  0  0  0  0  0  0  0  0  0  0
    5.3065   10.4537    1.7245 H   0  0  0  0  0  0  0  0  0  0  0  0
    2.9693   11.1301    2.6494 H   0  0  0  0  0  0  0  0  0  0  0  0
    2.9817   10.9503    5.2127 H   0  0  0  0  0  0  0  0  0  0  0  0
    5.2923   10.1545    6.0229 H   0  0  0  0  0  0  0  0  0  0  0  0
   10.1492   11.1022    3.3982 H   0  0  0  0  0  0  0  0  0  0  0  0
   10.2369    9.7340    4.5575 H   0  0  0  0  0  0  0  0  0  0  0  0
   12.4748   10.1510    3.9689 H   0  0  0  0  0  0  0  0  0  0  0  0
   12.0642   10.4412    2.2573 H   0  0  0  0  0  0  0  0  0  0  0  0
  1  2  1  0
  2  3  1  0
  2  4  1  0
  4  5  1  0
  5  6  1  0
  6  7  1  0
  7  8  1  0
  8  9  2  0
  8 10  1  0
 10 11  1  0
 11 12  1  0
 12 13  2  0
 13 14  1  0
 14 15  1  0
  7 16  1  0
 16 17  1  0
 17  4  1  0
 15 11  2  0
  1 18  1  0
  1 19  1  0
  1 20  1  0
  2 21  1  0
  3 22  1  0
  3 23  1  0
  3 24  1  0
  4 25  1  0
  5 26  1  0
  5 27  1  0
  6 28  1  0
  6 29  1  0
  7 30  1  0
 10 31  1  0
 12 32  1  0
 13 33  1  0
 14 34  1  0
 15 35  1  0
 16 36  1  0
 16 37  1  0
 17 38  1  0
 17 39  1  0
M  CHG  1   3   1
M  END
>  <EmbedRMS>  (169) 
0.3005329260886256

$$$$

     RDKit          3D

 41 41  0  0  0  0  0  0  0  0999 V2000
   14.0479    7.2195    1.1054 C   0  0  0  0  0  0  0  0  0  0  0  0
   13.6487    7.9559    2.3994 C   0  0  0  0  0  0  0  0  0  0  0  0
   14.6282    9.0159    2.6715 N   0  0  0  0  0  4  0  0  0  0  0  0
   12.1991    8.5125    2.2741 C   0  0  0  0  0  0  0  0  0  0  0  0
   11.1792    7.3664    2.4360 C   0  0  0  0  0  0  0  0  0  0  0  0
    9.7701    7.8723    2.1585 C   0  0  0  0  0  0  0  0  0  0  0  0
    9.4070    8.9945    3.1370 C   0  0  0  0  0  0  0  0  0  0  0  0
    8.0093    9.4798    2.8762 C   0  0  0  0  0  0  0  0  0  0  0  0
    7.6175    9.6932    1.6942 O   0  0  0  0  0  0  0  0  0  0  0  0
    7.1238    9.6899    3.9822 N   0  0  0  0  0  0  0  0  0  0  0  0
    5.7645   10.1853    3.8143 C   0  0  0  0  0  0  0  0  0  0  0  0
    5.7965   11.6683    3.5588 C   0  0  0  0  0  0  0  0  0  0  0  0
    5.6702   12.1220    2.3591 N   0  0  0  0  0  4  0  0  0  0  0  0
    6.0623   12.5758    4.6419 N   0  0  0  0  0  4  0  0  0  0  0  0
   10.4217   10.1489    3.0677 C   0  0  0  0  0  0  0  0  0  0  0  0
   11.8573    9.6383    3.2818 C   0  0  0  0  0  0  0  0  0  0  0  0
   13.4165    6.3272    0.9276 H   0  0  0  0  0  0  0  0  0  0  0  0
   15.0951    6.8573    1.1817 H   0  0  0  0  0  0  0  0  0  0  0  0
   13.9780    7.8976    0.2280 H   0  0  0  0  0  0  0  0  0  0  0  0
   13.6902    7.2253    3.2395 H   0  0  0  0  0  0  0  0  0  0  0  0
   15.5996    8.6298    2.6310 H   0  0  0  0  0  0  0  0  0  0  0  0
   14.4953    9.3938    3.6370 H   0  0  0  0  0  0  0  0  0  0  0  0
   14.5429    9.7864    1.9687 H   0  0  0  0  0  0  0  0  0  0  0  0
   12.0868    8.9476    1.2541 H   0  0  0  0  0  0  0  0  0  0  0  0
   11.2339    6.9397    3.4625 H   0  0  0  0  0  0  0  0  0  0  0  0
   11.3804    6.5458    1.7191 H   0  0  0  0  0  0  0  0  0  0  0  0
    9.7072    8.2316    1.1067 H   0  0  0  0  0  0  0  0  0  0  0  0
    9.0551    7.0285    2.2777 H   0  0  0  0  0  0  0  0  0  0  0  0
    9.4441    8.5686    4.1652 H   0  0  0  0  0  0  0  0  0  0  0  0
    7.4569    9.4886    4.9521 H   0  0  0  0  0  0  0  0  0  0  0  0
    5.2561    9.6368    2.9915 H   0  0  0  0  0  0  0  0  0  0  0  0
    5.1839    9.9920    4.7419 H   0  0  0  0  0  0  0  0  0  0  0  0
    5.7249   13.1346    2.1747 H   0  0  0  0  0  0  0  0  0  0  0  0
    5.5077   11.4885    1.5625 H   0  0  0  0  0  0  0  0  0  0  0  0
    6.9398   13.1067    4.4390 H   0  0  0  0  0  0  0  0  0  0  0  0
    6.1816   12.0565    5.5414 H   0  0  0  0  0  0  0  0  0  0  0  0
    5.2616   13.2410    4.7362 H   0  0  0  0  0  0  0  0  0  0  0  0
   10.3550   10.6521    2.0772 H   0  0  0  0  0  0  0  0  0  0  0  0
   10.1835   10.9014    3.8511 H   0  0  0  0  0  0  0  0  0  0  0  0
   11.9732    9.2664    4.3238 H   0  0  0  0  0  0  0  0  0  0  0  0
   12.5362   10.5055    3.1417 H   0  0  0  0  0  0  0  0  0  0  0  0
  1  2  1  0
  2  3  1  0
  2  4  1  0
  4  5  1  0
  5  6  1  0
  6  7  1  0
  7  8  1  0
  8  9  2  0
  8 10  1  0
 10 11  1  0
 11 12  1  0
 12 13  2  3
 12 14  1  0
  7 15  1  0
 15 16  1  0
 16  4  1  0
  1 17  1  0
  1 18  1  0
  1 19  1  0
  2 20  1  0
  3 21  1  0
  3 22  1  0
  3 23  1  0
  4 24  1  0
  5 25  1  0
  5 26  1  0
  6 27  1  0
  6 28  1  0
  7 29  1  0
 10 30  1  0
 11 31  1  0
 11 32  1  0
 13 33  1  0
 13 34  1  0
 14 35  1  0
 14 36  1  0
 14 37  1  0
 15 38  1  0
 15 39  1  0
 16 40  1  0
 16 41  1  0
M  CHG  3   3   1  13   1  14   1
M  END
>  <EmbedRMS>  (170) 
0.03078882717110932

$$$$

     RDKit          3D

 41 42  0  0  0  0  0  0  0  0999 V2000
   14.0155    7.0452    1.2243 C   0  0  0  0  0  0  0  0  0  0  0  0
   13.6577    8.3402    1.9340 C   0  0  0  0  0  0  0  0  0  0  0  0
   14.6213    8.7734    2.9399 N   0  0  0  0  0  4  0  0  0  0  0  0
   12.1479    8.5868    2.2358 C   0  0  0  0  0  0  0  0  0  0  0  0
   11.2708    7.3634    2.5450 C   0  0  0  0  0  0  0  0  0  0  0  0
    9.7738    7.7130    2.4384 C   0  0  0  0  0  0  0  0  0  0  0  0
    9.4545    9.1902    2.6817 C   0  0  0  0  0  0  0  0  0  0  0  0
    7.9930    9.5119    2.7236 C   0  0  0  0  0  0  0  0  0  0  0  0
    7.4746    9.6077    1.5899 O   0  0  0  0  0  0  0  0  0  0  0  0
    7.1920    9.7025    3.9130 N   0  0  0  0  0  0  0  0  0  0  0  0
    5.8002   10.1396    3.9098 C   0  0  0  0  0  0  0  0  0  0  0  0
    5.1136   10.2622    5.1332 C   0  0  0  0  0  0  0  0  0  0  0  0
    3.7791   10.6918    5.1678 C   0  0  0  0  0  0  0  0  0  0  0  0
    3.1050   10.9965    3.9846 C   0  0  0  0  0  0  0  0  0  0  0  0
    3.7620   10.8848    2.7663 C   0  0  0  0  0  0  0  0  0  0  0  0
    5.0915   10.4774    2.7238 C   0  0  0  0  0  0  0  0  0  0  0  0
   10.4123   10.0785    3.4530 C   0  0  0  0  0  0  0  0  0  0  0  0
   11.8967    9.6862    3.2904 C   0  0  0  0  0  0  0  0  0  0  0  0
   13.3412    6.8748    0.3575 H   0  0  0  0  0  0  0  0  0  0  0  0
   15.0600    7.0795    0.8460 H   0  0  0  0  0  0  0  0  0  0  0  0
   13.9272    6.1936    1.9310 H   0  0  0  0  0  0  0  0  0  0  0  0
   13.8472    9.0661    1.1041 H   0  0  0  0  0  0  0  0  0  0  0  0
   14.4394    8.2635    3.8342 H   0  0  0  0  0  0  0  0  0  0  0  0
   14.5690    9.8041    3.1044 H   0  0  0  0  0  0  0  0  0  0  0  0
   15.5964    8.5564    2.6293 H   0  0  0  0  0  0  0  0  0  0  0  0
   11.7549    8.9789    1.2687 H   0  0  0  0  0  0  0  0  0  0  0  0
   11.4801    6.5302    1.8427 H   0  0  0  0  0  0  0  0  0  0  0  0
   11.5022    7.0014    3.5710 H   0  0  0  0  0  0  0  0  0  0  0  0
    9.3960    7.4069    1.4357 H   0  0  0  0  0  0  0  0  0  0  0  0
    9.2216    7.1022    3.1855 H   0  0  0  0  0  0  0  0  0  0  0  0
    9.7131    9.5882    1.6698 H   0  0  0  0  0  0  0  0  0  0  0  0
    7.6559    9.5263    4.8324 H   0  0  0  0  0  0  0  0  0  0  0  0
    5.6153   10.0259    6.0630 H   0  0  0  0  0  0  0  0  0  0  0  0
    3.2672   10.7820    6.1172 H   0  0  0  0  0  0  0  0  0  0  0  0
    2.0739   11.3242    4.0170 H   0  0  0  0  0  0  0  0  0  0  0  0
    3.2415   11.1383    1.8510 H   0  0  0  0  0  0  0  0  0  0  0  0
    5.5040   10.4952    1.7386 H   0  0  0  0  0  0  0  0  0  0  0  0
   10.1475   10.0136    4.5305 H   0  0  0  0  0  0  0  0  0  0  0  0
   10.2671   11.1433    3.1573 H   0  0  0  0  0  0  0  0  0  0  0  0
   12.4562   10.6027    3.0029 H   0  0  0  0  0  0  0  0  0  0  0  0
   12.2889    9.3466    4.2742 H   0  0  0  0  0  0  0  0  0  0  0  0
  1  2  1  0
  2  3  1  0
  2  4  1  0
  4  5  1  0
  5  6  1  0
  6  7  1  0
  7  8  1  0
  8  9  2  0
  8 10  1  0
 10 11  1  0
 11 12  2  0
 12 13  1  0
 13 14  2  0
 14 15  1  0
 15 16  2  0
  7 17  1  0
 17 18  1  0
 18  4  1  0
 16 11  1  0
  1 19  1  0
  1 20  1  0
  1 21  1  0
  2 22  1  0
  3 23  1  0
  3 24  1  0
  3 25  1  0
  4 26  1  0
  5 27  1  0
  5 28  1  0
  6 29  1  0
  6 30  1  0
  7 31  1  0
 10 32  1  0
 12 33  1  0
 13 34  1  0
 14 35  1  0
 15 36  1  0
 16 37  1  0
 17 38  1  0
 17 39  1  0
 18 40  1  0
 18 41  1  0
M  CHG  1   3   1
M  END
>  <EmbedRMS>  (171) 
0.24964892458419108

$$$$

     RDKit          3D

 42 42  0  0  0  0  0  0  0  0999 V2000
    6.6746   12.3418    2.6353 C   0  0  0  0  0  0  0  0  0  0  0  0
    5.6893   11.5726    3.0926 C   0  0  0  0  0  0  0  0  0  0  0  0
    5.9240   10.3627    3.9333 C   0  0  0  0  0  0  0  0  0  0  0  0
    4.9321    9.8637    4.6966 C   0  0  0  0  0  0  0  0  0  0  0  0
    3.5456   10.4507    4.7871 C   0  0  0  0  0  0  0  0  0  0  0  0
    2.5932   10.0607    3.3282 Cl  0  0  0  0  0  0  0  0  0  0  0  0
    7.2235    9.7114    3.9465 N   0  0  0  0  0  0  0  0  0  0  0  0
    7.9798    9.5289    2.7314 C   0  0  0  0  0  0  0  0  0  0  0  0
    7.3975    9.6569    1.6268 O   0  0  0  0  0  0  0  0  0  0  0  0
    9.4439    9.2001    2.6325 C   0  0  0  0  0  0  0  0  0  0  0  0
    9.7338    7.7213    2.5374 C   0  0  0  0  0  0  0  0  0  0  0  0
   11.1726    7.4164    2.1489 C   0  0  0  0  0  0  0  0  0  0  0  0
   12.2274    8.2936    2.8211 C   0  0  0  0  0  0  0  0  0  0  0  0
   13.7060    7.9214    2.4415 C   0  0  0  0  0  0  0  0  0  0  0  0
   13.9222    7.3285    1.0388 C   0  0  0  0  0  0  0  0  0  0  0  0
   14.6407    9.0273    2.6704 N   0  0  0  0  0  4  0  0  0  0  0  0
   11.8754    9.7839    2.9965 C   0  0  0  0  0  0  0  0  0  0  0  0
   10.4201   10.0498    3.4166 C   0  0  0  0  0  0  0  0  0  0  0  0
    6.4441   13.2039    2.0227 H   0  0  0  0  0  0  0  0  0  0  0  0
    7.7089   12.1634    2.8952 H   0  0  0  0  0  0  0  0  0  0  0  0
    4.6817   11.8634    2.8297 H   0  0  0  0  0  0  0  0  0  0  0  0
    5.1410    8.9976    5.3135 H   0  0  0  0  0  0  0  0  0  0  0  0
    3.0232   10.0068    5.6602 H   0  0  0  0  0  0  0  0  0  0  0  0
    3.5886   11.5494    4.9424 H   0  0  0  0  0  0  0  0  0  0  0  0
    7.5863    9.2912    4.8317 H   0  0  0  0  0  0  0  0  0  0  0  0
    9.6902    9.5350    1.5942 H   0  0  0  0  0  0  0  0  0  0  0  0
    9.0492    7.2371    1.8050 H   0  0  0  0  0  0  0  0  0  0  0  0
    9.5319    7.2664    3.5318 H   0  0  0  0  0  0  0  0  0  0  0  0
   11.3806    6.3429    2.3550 H   0  0  0  0  0  0  0  0  0  0  0  0
   11.2443    7.5671    1.0501 H   0  0  0  0  0  0  0  0  0  0  0  0
   12.1604    7.9501    3.8807 H   0  0  0  0  0  0  0  0  0  0  0  0
   14.0096    7.0974    3.1303 H   0  0  0  0  0  0  0  0  0  0  0  0
   13.3776    6.3679    0.9249 H   0  0  0  0  0  0  0  0  0  0  0  0
   13.5729    8.0450    0.2654 H   0  0  0  0  0  0  0  0  0  0  0  0
   14.9993    7.1184    0.8665 H   0  0  0  0  0  0  0  0  0  0  0  0
   15.6216    8.7097    2.4931 H   0  0  0  0  0  0  0  0  0  0  0  0
   14.4314    9.8279    2.0312 H   0  0  0  0  0  0  0  0  0  0  0  0
   14.5960    9.3373    3.6678 H   0  0  0  0  0  0  0  0  0  0  0  0
   12.0525   10.2946    2.0252 H   0  0  0  0  0  0  0  0  0  0  0  0
   12.5349   10.2615    3.7515 H   0  0  0  0  0  0  0  0  0  0  0  0
   10.1873   11.1291    3.2805 H   0  0  0  0  0  0  0  0  0  0  0  0
   10.3059    9.8108    4.4961 H   0  0  0  0  0  0  0  0  0  0  0  0
  1  2  2  3
  2  3  1  0
  3  4  2  3
  4  5  1  0
  5  6  1  0
  3  7  1  0
  7  8  1  0
  8  9  2  0
  8 10  1  0
 10 11  1  0
 11 12  1  0
 12 13  1  0
 13 14  1  0
 14 15  1  0
 14 16  1  0
 13 17  1  0
 17 18  1  0
 18 10  1  0
  1 19  1  0
  1 20  1  0
  2 21  1  0
  4 22  1  0
  5 23  1  0
  5 24  1  0
  7 25  1  0
 10 26  1  0
 11 27  1  0
 11 28  1  0
 12 29  1  0
 12 30  1  0
 13 31  1  0
 14 32  1  0
 15 33  1  0
 15 34  1  0
 15 35  1  0
 16 36  1  0
 16 37  1  0
 16 38  1  0
 17 39  1  0
 17 40  1  0
 18 41  1  0
 18 42  1  0
M  CHG  1  16   1
M  END
>  <EmbedRMS>  (172) 
0.26173100746407224

$$$$

     RDKit          3D

 43 43  0  0  0  0  0  0  0  0999 V2000
    5.0050   11.5098    7.1986 C   0  0  0  0  0  0  0  0  0  0  0  0
    5.6534   11.4114    5.8925 N   0  0  0  0  0  4  0  0  0  0  0  0
    5.0764   10.2943    5.1324 C   0  0  0  0  0  0  0  0  0  0  0  0
    5.7721   10.1344    3.7825 C   0  0  0  0  0  0  0  0  0  0  0  0
    7.1449    9.6763    3.9645 N   0  0  0  0  0  0  0  0  0  0  0  0
    8.0156    9.4656    2.8537 C   0  0  0  0  0  0  0  0  0  0  0  0
    7.6126    9.6911    1.6783 O   0  0  0  0  0  0  0  0  0  0  0  0
    9.4195    8.9872    3.0996 C   0  0  0  0  0  0  0  0  0  0  0  0
    9.8040    7.9211    2.0779 C   0  0  0  0  0  0  0  0  0  0  0  0
   11.1610    7.3109    2.3955 C   0  0  0  0  0  0  0  0  0  0  0  0
   12.2775    8.3210    2.7732 C   0  0  0  0  0  0  0  0  0  0  0  0
   13.5820    8.3572    1.9533 C   0  0  0  0  0  0  0  0  0  0  0  0
   13.9851    7.0989    1.1848 C   0  0  0  0  0  0  0  0  0  0  0  0
   14.7126    8.8837    2.7301 N   0  0  0  0  0  4  0  0  0  0  0  0
   11.8333    9.7186    3.3042 C   0  0  0  0  0  0  0  0  0  0  0  0
   10.3996   10.1507    3.0037 C   0  0  0  0  0  0  0  0  0  0  0  0
    5.4336   12.3647    7.7650 H   0  0  0  0  0  0  0  0  0  0  0  0
    3.9123   11.6848    7.0844 H   0  0  0  0  0  0  0  0  0  0  0  0
    5.1724   10.5840    7.7923 H   0  0  0  0  0  0  0  0  0  0  0  0
    6.6785   11.2701    6.0448 H   0  0  0  0  0  0  0  0  0  0  0  0
    5.5017   12.3081    5.3736 H   0  0  0  0  0  0  0  0  0  0  0  0
    3.9953   10.4845    4.9454 H   0  0  0  0  0  0  0  0  0  0  0  0
    5.1645    9.3419    5.7036 H   0  0  0  0  0  0  0  0  0  0  0  0
    5.7677   11.1042    3.2388 H   0  0  0  0  0  0  0  0  0  0  0  0
    5.2166    9.3875    3.1751 H   0  0  0  0  0  0  0  0  0  0  0  0
    7.4993    9.4473    4.9211 H   0  0  0  0  0  0  0  0  0  0  0  0
    9.4791    8.5430    4.1189 H   0  0  0  0  0  0  0  0  0  0  0  0
    9.0401    7.1115    2.0710 H   0  0  0  0  0  0  0  0  0  0  0  0
    9.8381    8.3604    1.0554 H   0  0  0  0  0  0  0  0  0  0  0  0
   11.0035    6.5987    3.2390 H   0  0  0  0  0  0  0  0  0  0  0  0
   11.4463    6.6777    1.5353 H   0  0  0  0  0  0  0  0  0  0  0  0
   12.6602    7.8393    3.7041 H   0  0  0  0  0  0  0  0  0  0  0  0
   13.3818    9.1014    1.1484 H   0  0  0  0  0  0  0  0  0  0  0  0
   15.0014    7.2122    0.7511 H   0  0  0  0  0  0  0  0  0  0  0  0
   13.9884    6.2217    1.8658 H   0  0  0  0  0  0  0  0  0  0  0  0
   13.2939    6.9116    0.3364 H   0  0  0  0  0  0  0  0  0  0  0  0
   14.9962    8.1893    3.4593 H   0  0  0  0  0  0  0  0  0  0  0  0
   14.4937    9.7895    3.1978 H   0  0  0  0  0  0  0  0  0  0  0  0
   15.5301    9.0536    2.0996 H   0  0  0  0  0  0  0  0  0  0  0  0
   12.4794   10.5257    2.9005 H   0  0  0  0  0  0  0  0  0  0  0  0
   11.9640    9.7479    4.4104 H   0  0  0  0  0  0  0  0  0  0  0  0
   10.1046   10.9516    3.7180 H   0  0  0  0  0  0  0  0  0  0  0  0
   10.3605   10.5876    1.9801 H   0  0  0  0  0  0  0  0  0  0  0  0
  1  2  1  0
  2  3  1  0
  3  4  1  0
  4  5  1  0
  5  6  1  0
  6  7  2  0
  6  8  1  0
  8  9  1  0
  9 10  1  0
 10 11  1  0
 11 12  1  0
 12 13  1  0
 12 14  1  0
 11 15  1  0
 15 16  1  0
 16  8  1  0
  1 17  1  0
  1 18  1  0
  1 19  1  0
  2 20  1  0
  2 21  1  0
  3 22  1  0
  3 23  1  0
  4 24  1  0
  4 25  1  0
  5 26  1  0
  8 27  1  0
  9 28  1  0
  9 29  1  0
 10 30  1  0
 10 31  1  0
 11 32  1  0
 12 33  1  0
 13 34  1  0
 13 35  1  0
 13 36  1  0
 14 37  1  0
 14 38  1  0
 14 39  1  0
 15 40  1  0
 15 41  1  0
 16 42  1  0
 16 43  1  0
M  CHG  2   2   1  14   1
M  END
>  <EmbedRMS>  (173) 
0.2153162907233524

$$$$

     RDKit          3D

 37 37  0  0  0  0  0  0  0  0999 V2000
    4.9010    8.9493    3.3214 C   0  0  0  0  0  0  0  0  0  0  0  0
    5.7477   10.1185    3.8091 C   0  0  0  0  0  0  0  0  0  0  0  0
    7.1378    9.7075    3.9757 N   0  0  0  0  0  0  0  0  0  0  0  0
    8.0091    9.4709    2.8632 C   0  0  0  0  0  0  0  0  0  0  0  0
    7.6090    9.6877    1.6849 O   0  0  0  0  0  0  0  0  0  0  0  0
    9.4140    8.9898    3.1084 C   0  0  0  0  0  0  0  0  0  0  0  0
    9.7981    7.9225    2.0853 C   0  0  0  0  0  0  0  0  0  0  0  0
   11.1578    7.3127    2.3960 C   0  0  0  0  0  0  0  0  0  0  0  0
   12.2752    8.3218    2.7734 C   0  0  0  0  0  0  0  0  0  0  0  0
   13.5805    8.3571    1.9538 C   0  0  0  0  0  0  0  0  0  0  0  0
   13.9836    7.0985    1.1857 C   0  0  0  0  0  0  0  0  0  0  0  0
   14.7111    8.8839    2.7305 N   0  0  0  0  0  4  0  0  0  0  0  0
   11.8317    9.7194    3.3044 C   0  0  0  0  0  0  0  0  0  0  0  0
   10.3968   10.1516    3.0079 C   0  0  0  0  0  0  0  0  0  0  0  0
    4.9738    8.1023    4.0363 H   0  0  0  0  0  0  0  0  0  0  0  0
    5.2401    8.6114    2.3200 H   0  0  0  0  0  0  0  0  0  0  0  0
    3.8390    9.2647    3.2475 H   0  0  0  0  0  0  0  0  0  0  0  0
    5.6836   10.9644    3.0910 H   0  0  0  0  0  0  0  0  0  0  0  0
    5.3476   10.4660    4.7862 H   0  0  0  0  0  0  0  0  0  0  0  0
    7.5181    9.6307    4.9461 H   0  0  0  0  0  0  0  0  0  0  0  0
    9.4709    8.5475    4.1287 H   0  0  0  0  0  0  0  0  0  0  0  0
    9.8276    8.3613    1.0624 H   0  0  0  0  0  0  0  0  0  0  0  0
    9.0349    7.1124    2.0811 H   0  0  0  0  0  0  0  0  0  0  0  0
   11.0040    6.5968    3.2371 H   0  0  0  0  0  0  0  0  0  0  0  0
   11.4410    6.6836    1.5321 H   0  0  0  0  0  0  0  0  0  0  0  0
   12.6575    7.8399    3.7045 H   0  0  0  0  0  0  0  0  0  0  0  0
   13.3805    9.1010    1.1485 H   0  0  0  0  0  0  0  0  0  0  0  0
   15.0000    7.2116    0.7521 H   0  0  0  0  0  0  0  0  0  0  0  0
   13.2924    6.9108    0.3375 H   0  0  0  0  0  0  0  0  0  0  0  0
   13.9867    6.2216    1.8670 H   0  0  0  0  0  0  0  0  0  0  0  0
   14.9942    8.1900    3.4603 H   0  0  0  0  0  0  0  0  0  0  0  0
   14.4920    9.7901    3.1973 H   0  0  0  0  0  0  0  0  0  0  0  0
   15.5287    9.0531    2.1001 H   0  0  0  0  0  0  0  0  0  0  0  0
   12.4766   10.5261    2.8979 H   0  0  0  0  0  0  0  0  0  0  0  0
   11.9658    9.7500    4.4102 H   0  0  0  0  0  0  0  0  0  0  0  0
   10.3549   10.5873    1.9838 H   0  0  0  0  0  0  0  0  0  0  0  0
   10.1049   10.9541    3.7216 H   0  0  0  0  0  0  0  0  0  0  0  0
  1  2  1  0
  2  3  1  0
  3  4  1  0
  4  5  2  0
  4  6  1  0
  6  7  1  0
  7  8  1  0
  8  9  1  0
  9 10  1  0
 10 11  1  0
 10 12  1  0
  9 13  1  0
 13 14  1  0
 14  6  1  0
  1 15  1  0
  1 16  1  0
  1 17  1  0
  2 18  1  0
  2 19  1  0
  3 20  1  0
  6 21  1  0
  7 22  1  0
  7 23  1  0
  8 24  1  0
  8 25  1  0
  9 26  1  0
 10 27  1  0
 11 28  1  0
 11 29  1  0
 11 30  1  0
 12 31  1  0
 12 32  1  0
 12 33  1  0
 13 34  1  0
 13 35  1  0
 14 36  1  0
 14 37  1  0
M  CHG  1  12   1
M  END
>  <EmbedRMS>  (174) 
0.22880006867790334

$$$$

     RDKit          3D

 40 40  0  0  0  0  0  0  0  0999 V2000
   13.9234    7.3283    1.0386 C   0  0  0  0  0  0  0  0  0  0  0  0
   13.7078    7.9210    2.4414 C   0  0  0  0  0  0  0  0  0  0  0  0
   14.6425    9.0269    2.6702 N   0  0  0  0  0  4  0  0  0  0  0  0
   12.2296    8.2933    2.8211 C   0  0  0  0  0  0  0  0  0  0  0  0
   11.1747    7.4150    2.1500 C   0  0  0  0  0  0  0  0  0  0  0  0
    9.7360    7.7235    2.5349 C   0  0  0  0  0  0  0  0  0  0  0  0
    9.4515    9.2035    2.6227 C   0  0  0  0  0  0  0  0  0  0  0  0
    7.9910    9.5360    2.7195 C   0  0  0  0  0  0  0  0  0  0  0  0
    7.4106    9.6887    1.6176 O   0  0  0  0  0  0  0  0  0  0  0  0
    7.2349    9.6889    3.9322 N   0  0  0  0  0  0  0  0  0  0  0  0
    5.8465   10.1694    3.8795 C   0  0  0  0  0  0  0  0  0  0  0  0
    5.8198   11.6505    3.5908 C   0  0  0  0  0  0  0  0  0  0  0  0
    5.6690   12.0670    2.3820 N   0  0  0  0  0  0  0  0  0  0  0  0
    6.0635   12.5916    4.6481 N   0  0  0  0  0  4  0  0  0  0  0  0
   10.4237   10.0507    3.4130 C   0  0  0  0  0  0  0  0  0  0  0  0
   11.8789    9.7841    2.9962 C   0  0  0  0  0  0  0  0  0  0  0  0
   13.3793    6.3674    0.9250 H   0  0  0  0  0  0  0  0  0  0  0  0
   13.5735    8.0446    0.2654 H   0  0  0  0  0  0  0  0  0  0  0  0
   15.0005    7.1188    0.8658 H   0  0  0  0  0  0  0  0  0  0  0  0
   14.0114    7.0970    3.1301 H   0  0  0  0  0  0  0  0  0  0  0  0
   14.5978    9.3371    3.6676 H   0  0  0  0  0  0  0  0  0  0  0  0
   14.4336    9.8274    2.0307 H   0  0  0  0  0  0  0  0  0  0  0  0
   15.6234    8.7090    2.4931 H   0  0  0  0  0  0  0  0  0  0  0  0
   12.1628    7.9505    3.8810 H   0  0  0  0  0  0  0  0  0  0  0  0
   11.3809    6.3419    2.3599 H   0  0  0  0  0  0  0  0  0  0  0  0
   11.2480    7.5618    1.0508 H   0  0  0  0  0  0  0  0  0  0  0  0
    9.0516    7.2385    1.8030 H   0  0  0  0  0  0  0  0  0  0  0  0
    9.5314    7.2732    3.5309 H   0  0  0  0  0  0  0  0  0  0  0  0
    9.7023    9.5354    1.5845 H   0  0  0  0  0  0  0  0  0  0  0  0
    7.6848    9.4920    4.8540 H   0  0  0  0  0  0  0  0  0  0  0  0
    5.3567    9.9807    4.8586 H   0  0  0  0  0  0  0  0  0  0  0  0
    5.2709    9.6049    3.1135 H   0  0  0  0  0  0  0  0  0  0  0  0
    5.6831   13.0727    2.1569 H   0  0  0  0  0  0  0  0  0  0  0  0
    6.9145   13.1541    4.4193 H   0  0  0  0  0  0  0  0  0  0  0  0
    6.2192   12.0987    5.5568 H   0  0  0  0  0  0  0  0  0  0  0  0
    5.2370   13.2248    4.7404 H   0  0  0  0  0  0  0  0  0  0  0  0
   10.3068    9.8089    4.4916 H   0  0  0  0  0  0  0  0  0  0  0  0
   10.1919   11.1305    3.2785 H   0  0  0  0  0  0  0  0  0  0  0  0
   12.5372   10.2608    3.7530 H   0  0  0  0  0  0  0  0  0  0  0  0
   12.0586   10.2951    2.0255 H   0  0  0  0  0  0  0  0  0  0  0  0
  1  2  1  0
  2  3  1  0
  2  4  1  0
  4  5  1  0
  5  6  1  0
  6  7  1  0
  7  8  1  0
  8  9  2  0
  8 10  1  0
 10 11  1  0
 11 12  1  0
 12 13  2  3
 12 14  1  0
  7 15  1  0
 15 16  1  0
 16  4  1  0
  1 17  1  0
  1 18  1  0
  1 19  1  0
  2 20  1  0
  3 21  1  0
  3 22  1  0
  3 23  1  0
  4 24  1  0
  5 25  1  0
  5 26  1  0
  6 27  1  0
  6 28  1  0
  7 29  1  0
 10 30  1  0
 11 31  1  0
 11 32  1  0
 13 33  1  0
 14 34  1  0
 14 35  1  0
 14 36  1  0
 15 37  1  0
 15 38  1  0
 16 39  1  0
 16 40  1  0
M  CHG  2   3   1  14   1
M  END
>  <EmbedRMS>  (175) 
0.2785311156398337

$$$$

     RDKit          3D

 45 45  0  0  0  0  0  0  0  0999 V2000
    6.6426   12.2821    2.6516 C   0  0  0  0  0  0  0  0  0  0  0  0
    5.6157   11.5113    3.0196 C   0  0  0  0  0  0  0  0  0  0  0  0
    4.2139   11.9100    2.6324 C   0  0  0  0  0  0  0  0  0  0  0  0
    5.8597   10.3523    3.9284 C   0  0  0  0  0  0  0  0  0  0  0  0
    4.8899    9.9517    4.7721 C   0  0  0  0  0  0  0  0  0  0  0  0
    5.0638    8.8198    5.7367 C   0  0  0  0  0  0  0  0  0  0  0  0
    7.1587    9.7297    4.0017 N   0  0  0  0  0  0  0  0  0  0  0  0
    8.0094    9.4770    2.8770 C   0  0  0  0  0  0  0  0  0  0  0  0
    7.5925    9.6699    1.6995 O   0  0  0  0  0  0  0  0  0  0  0  0
    9.4190    8.9882    3.1140 C   0  0  0  0  0  0  0  0  0  0  0  0
    9.7814    7.9392    2.0698 C   0  0  0  0  0  0  0  0  0  0  0  0
   11.1442    7.3173    2.3173 C   0  0  0  0  0  0  0  0  0  0  0  0
   12.2312    8.2990    2.7947 C   0  0  0  0  0  0  0  0  0  0  0  0
   13.7088    7.9146    2.4295 C   0  0  0  0  0  0  0  0  0  0  0  0
   13.9319    7.3320    1.0257 C   0  0  0  0  0  0  0  0  0  0  0  0
   14.6475    9.0159    2.6730 N   0  0  0  0  0  4  0  0  0  0  0  0
   11.8850    9.7892    2.9963 C   0  0  0  0  0  0  0  0  0  0  0  0
   10.3931   10.1701    3.0593 C   0  0  0  0  0  0  0  0  0  0  0  0
    6.5060   13.1634    2.0375 H   0  0  0  0  0  0  0  0  0  0  0  0
    6.5060   13.1634    2.0375 H   0  0  0  0  0  0  0  0  0  0  0  0
    4.2031   12.4754    1.6757 H   0  0  0  0  0  0  0  0  0  0  0  0
    3.5836   11.0078    2.4847 H   0  0  0  0  0  0  0  0  0  0  0  0
    3.7720   12.5450    3.4286 H   0  0  0  0  0  0  0  0  0  0  0  0
    3.9254   10.4428    4.7786 H   0  0  0  0  0  0  0  0  0  0  0  0
    5.3803    7.9015    5.1981 H   0  0  0  0  0  0  0  0  0  0  0  0
    5.8159    9.0848    6.5090 H   0  0  0  0  0  0  0  0  0  0  0  0
    4.0999    8.6139    6.2477 H   0  0  0  0  0  0  0  0  0  0  0  0
    7.5134    9.4348    4.9389 H   0  0  0  0  0  0  0  0  0  0  0  0
    9.4838    8.5152    4.1195 H   0  0  0  0  0  0  0  0  0  0  0  0
    9.7856    8.4081    1.0593 H   0  0  0  0  0  0  0  0  0  0  0  0
    9.0155    7.1315    2.0616 H   0  0  0  0  0  0  0  0  0  0  0  0
   11.4284    6.8358    1.3632 H   0  0  0  0  0  0  0  0  0  0  0  0
   11.0277    6.4824    3.0472 H   0  0  0  0  0  0  0  0  0  0  0  0
   12.2338    8.0276    3.8788 H   0  0  0  0  0  0  0  0  0  0  0  0
   14.0054    7.0847    3.1155 H   0  0  0  0  0  0  0  0  0  0  0  0
   13.5346    6.2977    0.9557 H   0  0  0  0  0  0  0  0  0  0  0  0
   13.4427    7.9752    0.2638 H   0  0  0  0  0  0  0  0  0  0  0  0
   15.0164    7.2729    0.7928 H   0  0  0  0  0  0  0  0  0  0  0  0
   14.5093    9.7854    1.9790 H   0  0  0  0  0  0  0  0  0  0  0  0
   14.5387    9.3811    3.6464 H   0  0  0  0  0  0  0  0  0  0  0  0
   15.6306    8.6688    2.5853 H   0  0  0  0  0  0  0  0  0  0  0  0
   12.3172   10.3488    2.1397 H   0  0  0  0  0  0  0  0  0  0  0  0
   12.3886   10.1897    3.9059 H   0  0  0  0  0  0  0  0  0  0  0  0
   10.1546   10.7911    2.1654 H   0  0  0  0  0  0  0  0  0  0  0  0
   10.2174   10.8183    3.9465 H   0  0  0  0  0  0  0  0  0  0  0  0
  1  2  2  3
  2  3  1  0
  2  4  1  0
  4  5  2  3
  5  6  1  0
  4  7  1  0
  7  8  1  0
  8  9  2  0
  8 10  1  0
 10 11  1  0
 11 12  1  0
 12 13  1  0
 13 14  1  0
 14 15  1  0
 14 16  1  0
 13 17  1  0
 17 18  1  0
 18 10  1  0
  1 19  1  0
  1 20  1  0
  3 21  1  0
  3 22  1  0
  3 23  1  0
  5 24  1  0
  6 25  1  0
  6 26  1  0
  6 27  1  0
  7 28  1  0
 10 29  1  0
 11 30  1  0
 11 31  1  0
 12 32  1  0
 12 33  1  0
 13 34  1  0
 14 35  1  0
 15 36  1  0
 15 37  1  0
 15 38  1  0
 16 39  1  0
 16 40  1  0
 16 41  1  0
 17 42  1  0
 17 43  1  0
 18 44  1  0
 18 45  1  0
M  CHG  1  16   1
M  END
>  <EmbedRMS>  (176) 
0.16480955270904202

$$$$

     RDKit          3D

 41 42  0  0  0  0  0  0  0  0999 V2000
   13.9847    7.0988    1.1849 C   0  0  0  0  0  0  0  0  0  0  0  0
   13.5816    8.3572    1.9535 C   0  0  0  0  0  0  0  0  0  0  0  0
   14.7124    8.8838    2.7300 N   0  0  0  0  0  4  0  0  0  0  0  0
   12.2773    8.3209    2.7737 C   0  0  0  0  0  0  0  0  0  0  0  0
   11.1607    7.3107    2.3967 C   0  0  0  0  0  0  0  0  0  0  0  0
    9.8034    7.9207    2.0803 C   0  0  0  0  0  0  0  0  0  0  0  0
    9.4183    8.9872    3.1024 C   0  0  0  0  0  0  0  0  0  0  0  0
    8.0148    9.4682    2.8544 C   0  0  0  0  0  0  0  0  0  0  0  0
    7.6247    9.6822    1.6746 O   0  0  0  0  0  0  0  0  0  0  0  0
    7.1491    9.7011    3.9721 N   0  0  0  0  0  0  0  0  0  0  0  0
    5.7839   10.1362    3.8888 C   0  0  0  0  0  0  0  0  0  0  0  0
    5.0471   10.4441    2.7548 C   0  0  0  0  0  0  0  0  0  0  0  0
    3.8048   10.8205    3.1167 N   0  0  0  0  0  0  0  0  0  0  0  0
    3.7319   10.7593    4.4601 C   0  0  0  0  0  0  0  0  0  0  0  0
    4.9425   10.3388    4.9630 C   0  0  0  0  0  0  0  0  0  0  0  0
    5.2501   10.1517    6.3450 N   0  0  0  0  0  0  0  0  0  0  0  0
   10.3993   10.1503    3.0056 C   0  0  0  0  0  0  0  0  0  0  0  0
   11.8332    9.7183    3.3050 C   0  0  0  0  0  0  0  0  0  0  0  0
   13.9884    6.2217    1.8660 H   0  0  0  0  0  0  0  0  0  0  0  0
   13.2931    6.9113    0.3370 H   0  0  0  0  0  0  0  0  0  0  0  0
   15.0007    7.2123    0.7507 H   0  0  0  0  0  0  0  0  0  0  0  0
   13.3811    9.1013    1.1486 H   0  0  0  0  0  0  0  0  0  0  0  0
   14.9961    8.1896    3.4592 H   0  0  0  0  0  0  0  0  0  0  0  0
   14.4935    9.7897    3.1975 H   0  0  0  0  0  0  0  0  0  0  0  0
   15.5297    9.0536    2.0993 H   0  0  0  0  0  0  0  0  0  0  0  0
   12.6604    7.8392    3.7044 H   0  0  0  0  0  0  0  0  0  0  0  0
   11.0039    6.5984    3.2403 H   0  0  0  0  0  0  0  0  0  0  0  0
   11.4456    6.6777    1.5363 H   0  0  0  0  0  0  0  0  0  0  0  0
    9.0397    7.1111    2.0734 H   0  0  0  0  0  0  0  0  0  0  0  0
    9.8376    8.3598    1.0576 H   0  0  0  0  0  0  0  0  0  0  0  0
    9.4769    8.5424    4.1216 H   0  0  0  0  0  0  0  0  0  0  0  0
    7.5505    9.5419    4.9216 H   0  0  0  0  0  0  0  0  0  0  0  0
    5.3694   10.4077    1.7257 H   0  0  0  0  0  0  0  0  0  0  0  0
    3.0363   11.1086    2.4715 H   0  0  0  0  0  0  0  0  0  0  0  0
    2.8497   11.0064    5.0363 H   0  0  0  0  0  0  0  0  0  0  0  0
    6.1878    9.8233    6.6606 H   0  0  0  0  0  0  0  0  0  0  0  0
    4.5231   10.3419    7.0698 H   0  0  0  0  0  0  0  0  0  0  0  0
   10.3596   10.5871    1.9819 H   0  0  0  0  0  0  0  0  0  0  0  0
   10.1052   10.9516    3.7198 H   0  0  0  0  0  0  0  0  0  0  0  0
   11.9647    9.7478    4.4111 H   0  0  0  0  0  0  0  0  0  0  0  0
   12.4788   10.5255    2.9007 H   0  0  0  0  0  0  0  0  0  0  0  0
  1  2  1  0
  2  3  1  0
  2  4  1  0
  4  5  1  0
  5  6  1  0
  6  7  1  0
  7  8  1  0
  8  9  2  0
  8 10  1  0
 10 11  1  0
 11 12  2  0
 12 13  1  0
 13 14  1  0
 14 15  2  0
 15 16  1  0
  7 17  1  0
 17 18  1  0
 18  4  1  0
 15 11  1  0
  1 19  1  0
  1 20  1  0
  1 21  1  0
  2 22  1  0
  3 23  1  0
  3 24  1  0
  3 25  1  0
  4 26  1  0
  5 27  1  0
  5 28  1  0
  6 29  1  0
  6 30  1  0
  7 31  1  0
 10 32  1  0
 12 33  1  0
 13 34  1  0
 14 35  1  0
 16 36  1  0
 16 37  1  0
 17 38  1  0
 17 39  1  0
 18 40  1  0
 18 41  1  0
M  CHG  1   3   1
M  END
>  <EmbedRMS>  (177) 
0.20222811455084339

$$$$

     RDKit          3D

 43 43  0  0  0  0  0  0  0  0999 V2000
   14.0146    7.0445    1.2242 C   0  0  0  0  0  0  0  0  0  0  0  0
   13.6556    8.3395    1.9330 C   0  0  0  0  0  0  0  0  0  0  0  0
   14.6184    8.7734    2.9398 N   0  0  0  0  0  4  0  0  0  0  0  0
   12.1448    8.5863    2.2322 C   0  0  0  0  0  0  0  0  0  0  0  0
   11.2656    7.3637    2.5388 C   0  0  0  0  0  0  0  0  0  0  0  0
    9.7674    7.7141    2.4306 C   0  0  0  0  0  0  0  0  0  0  0  0
    9.4460    9.1937    2.6555 C   0  0  0  0  0  0  0  0  0  0  0  0
    7.9824    9.5124    2.7303 C   0  0  0  0  0  0  0  0  0  0  0  0
    7.4094    9.6586    1.6225 O   0  0  0  0  0  0  0  0  0  0  0  0
    7.2288    9.7003    3.9392 N   0  0  0  0  0  0  0  0  0  0  0  0
    5.8269   10.1416    3.8902 C   0  0  0  0  0  0  0  0  0  0  0  0
    5.6901   11.6481    4.1506 C   0  0  0  0  0  0  0  0  0  0  0  0
    6.2706   12.5267    3.0282 C   0  0  0  0  0  0  0  0  0  0  0  0
    7.7254   12.7003    3.1457 N   0  0  0  0  0  4  0  0  0  0  0  0
   10.4081   10.0817    3.4304 C   0  0  0  0  0  0  0  0  0  0  0  0
   11.8916    9.6821    3.2871 C   0  0  0  0  0  0  0  0  0  0  0  0
   13.3416    6.8740    0.3563 H   0  0  0  0  0  0  0  0  0  0  0  0
   15.0597    7.0786    0.8476 H   0  0  0  0  0  0  0  0  0  0  0  0
   13.9249    6.1931    1.9310 H   0  0  0  0  0  0  0  0  0  0  0  0
   13.8457    9.0650    1.1030 H   0  0  0  0  0  0  0  0  0  0  0  0
   15.5936    8.5532    2.6321 H   0  0  0  0  0  0  0  0  0  0  0  0
   14.5683    9.8046    3.1013 H   0  0  0  0  0  0  0  0  0  0  0  0
   14.4333    8.2666    3.8352 H   0  0  0  0  0  0  0  0  0  0  0  0
   11.7517    8.9811    1.2660 H   0  0  0  0  0  0  0  0  0  0  0  0
   11.4955    6.9994    3.5643 H   0  0  0  0  0  0  0  0  0  0  0  0
   11.4755    6.5316    1.8354 H   0  0  0  0  0  0  0  0  0  0  0  0
    9.3870    7.3965    1.4326 H   0  0  0  0  0  0  0  0  0  0  0  0
    9.2166    7.1122    3.1859 H   0  0  0  0  0  0  0  0  0  0  0  0
    9.6828    9.5863    1.6370 H   0  0  0  0  0  0  0  0  0  0  0  0
    7.7104    9.6295    4.8632 H   0  0  0  0  0  0  0  0  0  0  0  0
    5.3469    9.8723    2.9247 H   0  0  0  0  0  0  0  0  0  0  0  0
    5.2653    9.5996    4.6810 H   0  0  0  0  0  0  0  0  0  0  0  0
    6.1402   11.9102    5.1328 H   0  0  0  0  0  0  0  0  0  0  0  0
    4.6039   11.8721    4.2304 H   0  0  0  0  0  0  0  0  0  0  0  0
    5.7781   13.5236    3.0893 H   0  0  0  0  0  0  0  0  0  0  0  0
    6.0066   12.1048    2.0325 H   0  0  0  0  0  0  0  0  0  0  0  0
    8.2041   12.2189    2.3518 H   0  0  0  0  0  0  0  0  0  0  0  0
    7.9628   13.7170    3.0841 H   0  0  0  0  0  0  0  0  0  0  0  0
    8.1062   12.3346    4.0481 H   0  0  0  0  0  0  0  0  0  0  0  0
   10.1346   10.0323    4.5063 H   0  0  0  0  0  0  0  0  0  0  0  0
   10.2782   11.1433    3.1214 H   0  0  0  0  0  0  0  0  0  0  0  0
   12.4598   10.5963    3.0099 H   0  0  0  0  0  0  0  0  0  0  0  0
   12.2700    9.3360    4.2741 H   0  0  0  0  0  0  0  0  0  0  0  0
  1  2  1  0
  2  3  1  0
  2  4  1  0
  4  5  1  0
  5  6  1  0
  6  7  1  0
  7  8  1  0
  8  9  2  0
  8 10  1  0
 10 11  1  0
 11 12  1  0
 12 13  1  0
 13 14  1  0
  7 15  1  0
 15 16  1  0
 16  4  1  0
  1 17  1  0
  1 18  1  0
  1 19  1  0
  2 20  1  0
  3 21  1  0
  3 22  1  0
  3 23  1  0
  4 24  1  0
  5 25  1  0
  5 26  1  0
  6 27  1  0
  6 28  1  0
  7 29  1  0
 10 30  1  0
 11 31  1  0
 11 32  1  0
 12 33  1  0
 12 34  1  0
 13 35  1  0
 13 36  1  0
 14 37  1  0
 14 38  1  0
 14 39  1  0
 15 40  1  0
 15 41  1  0
 16 42  1  0
 16 43  1  0
M  CHG  2   3   1  14   1
M  END
>  <EmbedRMS>  (178) 
0.26685653268904913

$$$$

     RDKit          3D

 41 42  0  0  0  0  0  0  0  0999 V2000
   13.9848    7.0986    1.1851 C   0  0  0  0  0  0  0  0  0  0  0  0
   13.5818    8.3571    1.9535 C   0  0  0  0  0  0  0  0  0  0  0  0
   14.7125    8.8837    2.7300 N   0  0  0  0  0  4  0  0  0  0  0  0
   12.2774    8.3210    2.7736 C   0  0  0  0  0  0  0  0  0  0  0  0
   11.1608    7.3109    2.3965 C   0  0  0  0  0  0  0  0  0  0  0  0
    9.8027    7.9207    2.0828 C   0  0  0  0  0  0  0  0  0  0  0  0
    9.4191    8.9871    3.1060 C   0  0  0  0  0  0  0  0  0  0  0  0
    8.0160    9.4679    2.8600 C   0  0  0  0  0  0  0  0  0  0  0  0
    7.6248    9.6823    1.6801 O   0  0  0  0  0  0  0  0  0  0  0  0
    7.1498    9.7002    3.9783 N   0  0  0  0  0  0  0  0  0  0  0  0
    5.7892   10.1357    3.8873 C   0  0  0  0  0  0  0  0  0  0  0  0
    5.0500   10.4463    2.7574 C   0  0  0  0  0  0  0  0  0  0  0  0
    3.8154   10.8163    3.1459 N   0  0  0  0  0  0  0  0  0  0  0  0
    3.7653   10.7356    4.4672 N   0  0  0  0  0  0  0  0  0  0  0  0
    2.5952   11.0848    5.2570 C   0  0  0  0  0  0  0  0  0  0  0  0
    4.9506   10.3352    4.9580 C   0  0  0  0  0  0  0  0  0  0  0  0
   10.3996   10.1503    3.0069 C   0  0  0  0  0  0  0  0  0  0  0  0
   11.8338    9.7186    3.3047 C   0  0  0  0  0  0  0  0  0  0  0  0
   13.9881    6.2215    1.8662 H   0  0  0  0  0  0  0  0  0  0  0  0
   15.0011    7.2119    0.7512 H   0  0  0  0  0  0  0  0  0  0  0  0
   13.2935    6.9112    0.3369 H   0  0  0  0  0  0  0  0  0  0  0  0
   13.3814    9.1011    1.1484 H   0  0  0  0  0  0  0  0  0  0  0  0
   15.5300    9.0533    2.0994 H   0  0  0  0  0  0  0  0  0  0  0  0
   14.9961    8.1897    3.4594 H   0  0  0  0  0  0  0  0  0  0  0  0
   14.4937    9.7898    3.1972 H   0  0  0  0  0  0  0  0  0  0  0  0
   12.6603    7.8393    3.7045 H   0  0  0  0  0  0  0  0  0  0  0  0
   11.0055    6.5970    3.2390 H   0  0  0  0  0  0  0  0  0  0  0  0
   11.4449    6.6797    1.5345 H   0  0  0  0  0  0  0  0  0  0  0  0
    9.0392    7.1109    2.0771 H   0  0  0  0  0  0  0  0  0  0  0  0
    9.8350    8.3599    1.0601 H   0  0  0  0  0  0  0  0  0  0  0  0
    9.4783    8.5432    4.1255 H   0  0  0  0  0  0  0  0  0  0  0  0
    7.5318    9.5376    4.9374 H   0  0  0  0  0  0  0  0  0  0  0  0
    5.3608   10.4205    1.7246 H   0  0  0  0  0  0  0  0  0  0  0  0
    1.6866   11.0770    4.6182 H   0  0  0  0  0  0  0  0  0  0  0  0
    2.7274   12.0990    5.6885 H   0  0  0  0  0  0  0  0  0  0  0  0
    2.4588   10.3506    6.0792 H   0  0  0  0  0  0  0  0  0  0  0  0
    5.1820   10.2005    6.0071 H   0  0  0  0  0  0  0  0  0  0  0  0
   10.3586   10.5864    1.9829 H   0  0  0  0  0  0  0  0  0  0  0  0
   10.1064   10.9521    3.7209 H   0  0  0  0  0  0  0  0  0  0  0  0
   11.9668    9.7488    4.4106 H   0  0  0  0  0  0  0  0  0  0  0  0
   12.4789   10.5257    2.8991 H   0  0  0  0  0  0  0  0  0  0  0  0
  1  2  1  0
  2  3  1  0
  2  4  1  0
  4  5  1  0
  5  6  1  0
  6  7  1  0
  7  8  1  0
  8  9  2  0
  8 10  1  0
 10 11  1  0
 11 12  1  0
 12 13  2  0
 13 14  1  0
 14 15  1  0
 14 16  1  0
  7 17  1  0
 17 18  1  0
 18  4  1  0
 16 11  2  0
  1 19  1  0
  1 20  1  0
  1 21  1  0
  2 22  1  0
  3 23  1  0
  3 24  1  0
  3 25  1  0
  4 26  1  0
  5 27  1  0
  5 28  1  0
  6 29  1  0
  6 30  1  0
  7 31  1  0
 10 32  1  0
 12 33  1  0
 15 34  1  0
 15 35  1  0
 15 36  1  0
 16 37  1  0
 17 38  1  0
 17 39  1  0
 18 40  1  0
 18 41  1  0
M  CHG  1   3   1
M  END
>  <EmbedRMS>  (179) 
0.202216898800577

$$$$

     RDKit          3D

 41 42  0  0  0  0  0  0  0  0999 V2000
   14.0155    7.0452    1.2243 C   0  0  0  0  0  0  0  0  0  0  0  0
   13.6577    8.3402    1.9340 C   0  0  0  0  0  0  0  0  0  0  0  0
   14.6213    8.7734    2.9399 N   0  0  0  0  0  4  0  0  0  0  0  0
   12.1479    8.5868    2.2358 C   0  0  0  0  0  0  0  0  0  0  0  0
   11.2708    7.3634    2.5450 C   0  0  0  0  0  0  0  0  0  0  0  0
    9.7738    7.7130    2.4384 C   0  0  0  0  0  0  0  0  0  0  0  0
    9.4545    9.1902    2.6817 C   0  0  0  0  0  0  0  0  0  0  0  0
    7.9930    9.5119    2.7236 C   0  0  0  0  0  0  0  0  0  0  0  0
    7.4746    9.6077    1.5899 O   0  0  0  0  0  0  0  0  0  0  0  0
    7.1920    9.7025    3.9130 N   0  0  0  0  0  0  0  0  0  0  0  0
    5.8002   10.1396    3.9098 C   0  0  0  0  0  0  0  0  0  0  0  0
    5.1136   10.2622    5.1332 C   0  0  0  0  0  0  0  0  0  0  0  0
    3.7791   10.6918    5.1678 C   0  0  0  0  0  0  0  0  0  0  0  0
    3.1050   10.9965    3.9846 C   0  0  0  0  0  0  0  0  0  0  0  0
    3.7620   10.8848    2.7663 C   0  0  0  0  0  0  0  0  0  0  0  0
    5.0915   10.4774    2.7238 C   0  0  0  0  0  0  0  0  0  0  0  0
   10.4123   10.0785    3.4530 C   0  0  0  0  0  0  0  0  0  0  0  0
   11.8967    9.6862    3.2904 C   0  0  0  0  0  0  0  0  0  0  0  0
   13.3412    6.8748    0.3575 H   0  0  0  0  0  0  0  0  0  0  0  0
   15.0600    7.0795    0.8460 H   0  0  0  0  0  0  0  0  0  0  0  0
   13.9272    6.1936    1.9310 H   0  0  0  0  0  0  0  0  0  0  0  0
   13.8472    9.0661    1.1041 H   0  0  0  0  0  0  0  0  0  0  0  0
   14.4394    8.2635    3.8342 H   0  0  0  0  0  0  0  0  0  0  0  0
   14.5690    9.8041    3.1044 H   0  0  0  0  0  0  0  0  0  0  0  0
   15.5964    8.5564    2.6293 H   0  0  0  0  0  0  0  0  0  0  0  0
   11.7549    8.9789    1.2687 H   0  0  0  0  0  0  0  0  0  0  0  0
   11.4801    6.5302    1.8427 H   0  0  0  0  0  0  0  0  0  0  0  0
   11.5022    7.0014    3.5710 H   0  0  0  0  0  0  0  0  0  0  0  0
    9.3960    7.4069    1.4357 H   0  0  0  0  0  0  0  0  0  0  0  0
    9.2216    7.1022    3.1855 H   0  0  0  0  0  0  0  0  0  0  0  0
    9.7131    9.5882    1.6698 H   0  0  0  0  0  0  0  0  0  0  0  0
    7.6559    9.5263    4.8324 H   0  0  0  0  0  0  0  0  0  0  0  0
    5.6153   10.0259    6.0630 H   0  0  0  0  0  0  0  0  0  0  0  0
    3.2672   10.7820    6.1172 H   0  0  0  0  0  0  0  0  0  0  0  0
    2.0739   11.3242    4.0170 H   0  0  0  0  0  0  0  0  0  0  0  0
    3.2415   11.1383    1.8510 H   0  0  0  0  0  0  0  0  0  0  0  0
    5.5040   10.4952    1.7386 H   0  0  0  0  0  0  0  0  0  0  0  0
   10.1475   10.0136    4.5305 H   0  0  0  0  0  0  0  0  0  0  0  0
   10.2671   11.1433    3.1573 H   0  0  0  0  0  0  0  0  0  0  0  0
   12.4562   10.6027    3.0029 H   0  0  0  0  0  0  0  0  0  0  0  0
   12.2889    9.3466    4.2742 H   0  0  0  0  0  0  0  0  0  0  0  0
  1  2  1  0
  2  3  1  0
  2  4  1  0
  4  5  1  0
  5  6  1  0
  6  7  1  0
  7  8  1  0
  8  9  2  0
  8 10  1  0
 10 11  1  0
 11 12  2  0
 12 13  1  0
 13 14  2  0
 14 15  1  0
 15 16  2  0
  7 17  1  0
 17 18  1  0
 18  4  1  0
 16 11  1  0
  1 19  1  0
  1 20  1  0
  1 21  1  0
  2 22  1  0
  3 23  1  0
  3 24  1  0
  3 25  1  0
  4 26  1  0
  5 27  1  0
  5 28  1  0
  6 29  1  0
  6 30  1  0
  7 31  1  0
 10 32  1  0
 12 33  1  0
 13 34  1  0
 14 35  1  0
 15 36  1  0
 16 37  1  0
 17 38  1  0
 17 39  1  0
 18 40  1  0
 18 41  1  0
M  CHG  1   3   1
M  END
>  <EmbedRMS>  (180) 
0.24964892458419108

$$$$

     RDKit          3D

 39 40  0  0  0  0  0  0  0  0999 V2000
   14.0110    7.0511    1.2526 C   0  0  0  0  0  0  0  0  0  0  0  0
   13.6007    8.3248    1.9901 C   0  0  0  0  0  0  0  0  0  0  0  0
   14.7033    8.8921    2.7690 N   0  0  0  0  0  4  0  0  0  0  0  0
   12.2625    8.3270    2.7691 C   0  0  0  0  0  0  0  0  0  0  0  0
   11.1802    7.4398    2.1370 C   0  0  0  0  0  0  0  0  0  0  0  0
    9.7464    7.7250    2.5506 C   0  0  0  0  0  0  0  0  0  0  0  0
    9.4528    9.2006    2.6508 C   0  0  0  0  0  0  0  0  0  0  0  0
    7.9907    9.5272    2.7197 C   0  0  0  0  0  0  0  0  0  0  0  0
    7.4511    9.6605    1.5982 O   0  0  0  0  0  0  0  0  0  0  0  0
    7.2032    9.6917    3.9188 N   0  0  0  0  0  0  0  0  0  0  0  0
    5.8190   10.1244    3.8864 C   0  0  0  0  0  0  0  0  0  0  0  0
    5.0492   10.4501    2.7707 C   0  0  0  0  0  0  0  0  0  0  0  0
    3.8118   10.8137    3.2504 C   0  0  0  0  0  0  0  0  0  0  0  0
    3.7917   10.7296    4.5924 N   0  0  0  0  0  0  0  0  0  0  0  0
    5.0092   10.3116    4.9903 C   0  0  0  0  0  0  0  0  0  0  0  0
   10.3879   10.0193    3.4937 C   0  0  0  0  0  0  0  0  0  0  0  0
   11.8511    9.7804    3.1265 C   0  0  0  0  0  0  0  0  0  0  0  0
   13.2659    6.7648    0.4822 H   0  0  0  0  0  0  0  0  0  0  0  0
   14.9817    7.1940    0.7316 H   0  0  0  0  0  0  0  0  0  0  0  0
   14.1182    6.2183    1.9789 H   0  0  0  0  0  0  0  0  0  0  0  0
   13.4353    9.0292    1.1418 H   0  0  0  0  0  0  0  0  0  0  0  0
   14.5218    9.8930    3.0061 H   0  0  0  0  0  0  0  0  0  0  0  0
   15.5925    8.8665    2.2188 H   0  0  0  0  0  0  0  0  0  0  0  0
   14.8389    8.3426    3.6484 H   0  0  0  0  0  0  0  0  0  0  0  0
   12.4711    7.8390    3.7480 H   0  0  0  0  0  0  0  0  0  0  0  0
   11.2117    7.5939    1.0361 H   0  0  0  0  0  0  0  0  0  0  0  0
   11.4077    6.3669    2.3236 H   0  0  0  0  0  0  0  0  0  0  0  0
    9.0547    7.2379    1.8268 H   0  0  0  0  0  0  0  0  0  0  0  0
    9.5649    7.2656    3.5467 H   0  0  0  0  0  0  0  0  0  0  0  0
    9.7356    9.5600    1.6294 H   0  0  0  0  0  0  0  0  0  0  0  0
    7.6552    9.5149    4.8435 H   0  0  0  0  0  0  0  0  0  0  0  0
    5.3065   10.4537    1.7245 H   0  0  0  0  0  0  0  0  0  0  0  0
    2.9693   11.1301    2.6494 H   0  0  0  0  0  0  0  0  0  0  0  0
    2.9817   10.9503    5.2127 H   0  0  0  0  0  0  0  0  0  0  0  0
    5.2923   10.1545    6.0229 H   0  0  0  0  0  0  0  0  0  0  0  0
   10.1492   11.1022    3.3982 H   0  0  0  0  0  0  0  0  0  0  0  0
   10.2369    9.7340    4.5575 H   0  0  0  0  0  0  0  0  0  0  0  0
   12.4748   10.1510    3.9689 H   0  0  0  0  0  0  0  0  0  0  0  0
   12.0642   10.4412    2.2573 H   0  0  0  0  0  0  0  0  0  0  0  0
  1  2  1  0
  2  3  1  0
  2  4  1  0
  4  5  1  0
  5  6  1  0
  6  7  1  0
  7  8  1  0
  8  9  2  0
  8 10  1  0
 10 11  1  0
 11 12  1  0
 12 13  2  0
 13 14  1  0
 14 15  1  0
  7 16  1  0
 16 17  1  0
 17  4  1  0
 15 11  2  0
  1 18  1  0
  1 19  1  0
  1 20  1  0
  2 21  1  0
  3 22  1  0
  3 23  1  0
  3 24  1  0
  4 25  1  0
  5 26  1  0
  5 27  1  0
  6 28  1  0
  6 29  1  0
  7 30  1  0
 10 31  1  0
 12 32  1  0
 13 33  1  0
 14 34  1  0
 15 35  1  0
 16 36  1  0
 16 37  1  0
 17 38  1  0
 17 39  1  0
M  CHG  1   3   1
M  END
>  <EmbedRMS>  (181) 
0.3005329260886256

$$$$

     RDKit          3D

 43 44  0  0  0  0  0  0  0  0999 V2000
    3.0218   10.8638    6.4249 C   0  0  0  0  0  0  0  0  0  0  0  0
    3.7635   10.6902    5.1363 C   0  0  0  0  0  0  0  0  0  0  0  0
    3.1284   10.9924    3.9306 C   0  0  0  0  0  0  0  0  0  0  0  0
    3.8001   10.8736    2.7651 N   0  0  0  0  0  0  0  0  0  0  0  0
    5.0904   10.4711    2.7169 C   0  0  0  0  0  0  0  0  0  0  0  0
    5.8018   10.1410    3.9021 C   0  0  0  0  0  0  0  0  0  0  0  0
    7.1978    9.7095    3.9071 N   0  0  0  0  0  0  0  0  0  0  0  0
    8.0013    9.5304    2.7148 C   0  0  0  0  0  0  0  0  0  0  0  0
    7.4807    9.6247    1.5834 O   0  0  0  0  0  0  0  0  0  0  0  0
    9.4618    9.1994    2.6521 C   0  0  0  0  0  0  0  0  0  0  0  0
    9.7436    7.7198    2.5477 C   0  0  0  0  0  0  0  0  0  0  0  0
   11.1793    7.4149    2.1541 C   0  0  0  0  0  0  0  0  0  0  0  0
   12.2346    8.2928    2.8247 C   0  0  0  0  0  0  0  0  0  0  0  0
   13.7114    7.9211    2.4415 C   0  0  0  0  0  0  0  0  0  0  0  0
   13.9241    7.3290    1.0381 C   0  0  0  0  0  0  0  0  0  0  0  0
   14.6458    9.0274    2.6689 N   0  0  0  0  0  4  0  0  0  0  0  0
   11.8847    9.7839    3.0075 C   0  0  0  0  0  0  0  0  0  0  0  0
   10.4319   10.0494    3.4351 C   0  0  0  0  0  0  0  0  0  0  0  0
    5.1067   10.2712    5.1189 C   0  0  0  0  0  0  0  0  0  0  0  0
    1.9628   10.5486    6.3092 H   0  0  0  0  0  0  0  0  0  0  0  0
    3.4773   10.2481    7.2295 H   0  0  0  0  0  0  0  0  0  0  0  0
    3.0523   11.9314    6.7277 H   0  0  0  0  0  0  0  0  0  0  0  0
    2.0990   11.3275    3.9179 H   0  0  0  0  0  0  0  0  0  0  0  0
    5.5029   10.4733    1.7340 H   0  0  0  0  0  0  0  0  0  0  0  0
    7.6634    9.5362    4.8262 H   0  0  0  0  0  0  0  0  0  0  0  0
    9.7339    9.5334    1.6184 H   0  0  0  0  0  0  0  0  0  0  0  0
    9.5425    7.2605    3.5402 H   0  0  0  0  0  0  0  0  0  0  0  0
    9.0568    7.2408    1.8139 H   0  0  0  0  0  0  0  0  0  0  0  0
   11.3881    6.3413    2.3590 H   0  0  0  0  0  0  0  0  0  0  0  0
   11.2478    7.5663    1.0551 H   0  0  0  0  0  0  0  0  0  0  0  0
   12.1704    7.9466    3.8836 H   0  0  0  0  0  0  0  0  0  0  0  0
   14.0173    7.0969    3.1291 H   0  0  0  0  0  0  0  0  0  0  0  0
   13.5724    8.0456    0.2659 H   0  0  0  0  0  0  0  0  0  0  0  0
   13.3802    6.3680    0.9251 H   0  0  0  0  0  0  0  0  0  0  0  0
   15.0009    7.1199    0.8628 H   0  0  0  0  0  0  0  0  0  0  0  0
   14.4339    9.8289    2.0316 H   0  0  0  0  0  0  0  0  0  0  0  0
   14.6051    9.3355    3.6671 H   0  0  0  0  0  0  0  0  0  0  0  0
   15.6263    8.7108    2.4874 H   0  0  0  0  0  0  0  0  0  0  0  0
   12.5472   10.2577    3.7623 H   0  0  0  0  0  0  0  0  0  0  0  0
   12.0595   10.2991    2.0380 H   0  0  0  0  0  0  0  0  0  0  0  0
   10.1968   11.1287    3.3016 H   0  0  0  0  0  0  0  0  0  0  0  0
   10.3215    9.8068    4.5142 H   0  0  0  0  0  0  0  0  0  0  0  0
    5.6129   10.0477    6.0501 H   0  0  0  0  0  0  0  0  0  0  0  0
  1  2  1  0
  2  3  2  0
  3  4  1  0
  4  5  2  0
  5  6  1  0
  6  7  1  0
  7  8  1  0
  8  9  2  0
  8 10  1  0
 10 11  1  0
 11 12  1  0
 12 13  1  0
 13 14  1  0
 14 15  1  0
 14 16  1  0
 13 17  1  0
 17 18  1  0
  6 19  2  0
 19  2  1  0
 18 10  1  0
  1 20  1  0
  1 21  1  0
  1 22  1  0
  3 23  1  0
  5 24  1  0
  7 25  1  0
 10 26  1  0
 11 27  1  0
 11 28  1  0
 12 29  1  0
 12 30  1  0
 13 31  1  0
 14 32  1  0
 15 33  1  0
 15 34  1  0
 15 35  1  0
 16 36  1  0
 16 37  1  0
 16 38  1  0
 17 39  1  0
 17 40  1  0
 18 41  1  0
 18 42  1  0
 19 43  1  0
M  CHG  1  16   1
M  END
>  <EmbedRMS>  (182) 
0.25305704271175244

$$$$

     RDKit          3D

 41 42  0  0  0  0  0  0  0  0999 V2000
   14.0155    7.0452    1.2243 C   0  0  0  0  0  0  0  0  0  0  0  0
   13.6577    8.3402    1.9340 C   0  0  0  0  0  0  0  0  0  0  0  0
   14.6213    8.7734    2.9399 N   0  0  0  0  0  4  0  0  0  0  0  0
   12.1479    8.5868    2.2358 C   0  0  0  0  0  0  0  0  0  0  0  0
   11.2708    7.3634    2.5450 C   0  0  0  0  0  0  0  0  0  0  0  0
    9.7738    7.7130    2.4384 C   0  0  0  0  0  0  0  0  0  0  0  0
    9.4545    9.1902    2.6817 C   0  0  0  0  0  0  0  0  0  0  0  0
    7.9930    9.5119    2.7236 C   0  0  0  0  0  0  0  0  0  0  0  0
    7.4746    9.6077    1.5899 O   0  0  0  0  0  0  0  0  0  0  0  0
    7.1920    9.7025    3.9130 N   0  0  0  0  0  0  0  0  0  0  0  0
    5.8002   10.1396    3.9098 C   0  0  0  0  0  0  0  0  0  0  0  0
    5.1136   10.2622    5.1332 C   0  0  0  0  0  0  0  0  0  0  0  0
    3.7791   10.6918    5.1678 C   0  0  0  0  0  0  0  0  0  0  0  0
    3.1050   10.9965    3.9846 C   0  0  0  0  0  0  0  0  0  0  0  0
    3.7620   10.8848    2.7663 C   0  0  0  0  0  0  0  0  0  0  0  0
    5.0915   10.4774    2.7238 C   0  0  0  0  0  0  0  0  0  0  0  0
   10.4123   10.0785    3.4530 C   0  0  0  0  0  0  0  0  0  0  0  0
   11.8967    9.6862    3.2904 C   0  0  0  0  0  0  0  0  0  0  0  0
   13.3412    6.8748    0.3575 H   0  0  0  0  0  0  0  0  0  0  0  0
   15.0600    7.0795    0.8460 H   0  0  0  0  0  0  0  0  0  0  0  0
   13.9272    6.1936    1.9310 H   0  0  0  0  0  0  0  0  0  0  0  0
   13.8472    9.0661    1.1041 H   0  0  0  0  0  0  0  0  0  0  0  0
   14.4394    8.2635    3.8342 H   0  0  0  0  0  0  0  0  0  0  0  0
   14.5690    9.8041    3.1044 H   0  0  0  0  0  0  0  0  0  0  0  0
   15.5964    8.5564    2.6293 H   0  0  0  0  0  0  0  0  0  0  0  0
   11.7549    8.9789    1.2687 H   0  0  0  0  0  0  0  0  0  0  0  0
   11.4801    6.5302    1.8427 H   0  0  0  0  0  0  0  0  0  0  0  0
   11.5022    7.0014    3.5710 H   0  0  0  0  0  0  0  0  0  0  0  0
    9.3960    7.4069    1.4357 H   0  0  0  0  0  0  0  0  0  0  0  0
    9.2216    7.1022    3.1855 H   0  0  0  0  0  0  0  0  0  0  0  0
    9.7131    9.5882    1.6698 H   0  0  0  0  0  0  0  0  0  0  0  0
    7.6559    9.5263    4.8324 H   0  0  0  0  0  0  0  0  0  0  0  0
    5.6153   10.0259    6.0630 H   0  0  0  0  0  0  0  0  0  0  0  0
    3.2672   10.7820    6.1172 H   0  0  0  0  0  0  0  0  0  0  0  0
    2.0739   11.3242    4.0170 H   0  0  0  0  0  0  0  0  0  0  0  0
    3.2415   11.1383    1.8510 H   0  0  0  0  0  0  0  0  0  0  0  0
    5.5040   10.4952    1.7386 H   0  0  0  0  0  0  0  0  0  0  0  0
   10.1475   10.0136    4.5305 H   0  0  0  0  0  0  0  0  0  0  0  0
   10.2671   11.1433    3.1573 H   0  0  0  0  0  0  0  0  0  0  0  0
   12.4562   10.6027    3.0029 H   0  0  0  0  0  0  0  0  0  0  0  0
   12.2889    9.3466    4.2742 H   0  0  0  0  0  0  0  0  0  0  0  0
  1  2  1  0
  2  3  1  0
  2  4  1  0
  4  5  1  0
  5  6  1  0
  6  7  1  0
  7  8  1  0
  8  9  2  0
  8 10  1  0
 10 11  1  0
 11 12  2  0
 12 13  1  0
 13 14  2  0
 14 15  1  0
 15 16  2  0
  7 17  1  0
 17 18  1  0
 18  4  1  0
 16 11  1  0
  1 19  1  0
  1 20  1  0
  1 21  1  0
  2 22  1  0
  3 23  1  0
  3 24  1  0
  3 25  1  0
  4 26  1  0
  5 27  1  0
  5 28  1  0
  6 29  1  0
  6 30  1  0
  7 31  1  0
 10 32  1  0
 12 33  1  0
 13 34  1  0
 14 35  1  0
 15 36  1  0
 16 37  1  0
 17 38  1  0
 17 39  1  0
 18 40  1  0
 18 41  1  0
M  CHG  1   3   1
M  END
>  <EmbedRMS>  (183) 
0.24964892458419108

$$$$

     RDKit          3D

 42 42  0  0  0  0  0  0  0  0999 V2000
    8.6750    8.1658    7.0703 C   0  0  0  0  0  0  0  0  0  0  0  0
    8.3763    8.4580    5.8022 C   0  0  0  0  0  0  0  0  0  0  0  0
    7.3143    9.3915    5.3537 C   0  0  0  0  0  0  0  0  0  0  0  0
    6.4078    9.8578    6.2465 C   0  0  0  0  0  0  0  0  0  0  0  0
    5.2565   10.7471    5.8877 C   0  0  0  0  0  0  0  0  0  0  0  0
    7.1493    9.7152    3.9495 N   0  0  0  0  0  0  0  0  0  0  0  0
    7.9765    9.4983    2.7821 C   0  0  0  0  0  0  0  0  0  0  0  0
    7.4301    9.6608    1.6607 O   0  0  0  0  0  0  0  0  0  0  0  0
    9.4445    9.1811    2.6937 C   0  0  0  0  0  0  0  0  0  0  0  0
    9.7537    7.7156    2.4382 C   0  0  0  0  0  0  0  0  0  0  0  0
   11.2038    7.4507    2.0892 C   0  0  0  0  0  0  0  0  0  0  0  0
   12.2683    8.3270    2.7571 C   0  0  0  0  0  0  0  0  0  0  0  0
   13.6145    8.3244    1.9914 C   0  0  0  0  0  0  0  0  0  0  0  0
   14.0289    7.0506    1.2546 C   0  0  0  0  0  0  0  0  0  0  0  0
   14.7105    8.8911    2.7788 N   0  0  0  0  0  4  0  0  0  0  0  0
   11.8580    9.7797    3.1035 C   0  0  0  0  0  0  0  0  0  0  0  0
   10.4067   10.0105    3.5026 C   0  0  0  0  0  0  0  0  0  0  0  0
    9.4522    7.4407    7.2763 H   0  0  0  0  0  0  0  0  0  0  0  0
    8.2207    8.6429    7.9236 H   0  0  0  0  0  0  0  0  0  0  0  0
    8.9290    7.9270    5.0689 H   0  0  0  0  0  0  0  0  0  0  0  0
    6.4522    9.5905    7.2899 H   0  0  0  0  0  0  0  0  0  0  0  0
    5.6232   11.6730    5.3961 H   0  0  0  0  0  0  0  0  0  0  0  0
    4.7085   11.0385    6.8086 H   0  0  0  0  0  0  0  0  0  0  0  0
    4.5465   10.2109    5.2233 H   0  0  0  0  0  0  0  0  0  0  0  0
    6.2337   10.1339    3.6758 H   0  0  0  0  0  0  0  0  0  0  0  0
    9.6986    9.5966    1.6856 H   0  0  0  0  0  0  0  0  0  0  0  0
    9.1148    7.3426    1.6051 H   0  0  0  0  0  0  0  0  0  0  0  0
    9.4972    7.0769    3.2974 H   0  0  0  0  0  0  0  0  0  0  0  0
   11.2718    7.6249    0.9927 H   0  0  0  0  0  0  0  0  0  0  0  0
   11.4331    6.3748    2.2587 H   0  0  0  0  0  0  0  0  0  0  0  0
   12.4573    7.8339    3.7373 H   0  0  0  0  0  0  0  0  0  0  0  0
   13.4588    9.0294    1.1415 H   0  0  0  0  0  0  0  0  0  0  0  0
   14.1162    6.2135    1.9787 H   0  0  0  0  0  0  0  0  0  0  0  0
   13.3003    6.7723    0.4659 H   0  0  0  0  0  0  0  0  0  0  0  0
   15.0110    7.1880    0.7539 H   0  0  0  0  0  0  0  0  0  0  0  0
   14.5373    9.8979    2.9966 H   0  0  0  0  0  0  0  0  0  0  0  0
   15.6086    8.8475    2.2446 H   0  0  0  0  0  0  0  0  0  0  0  0
   14.8256    8.3542    3.6688 H   0  0  0  0  0  0  0  0  0  0  0  0
   12.4979   10.1655    3.9267 H   0  0  0  0  0  0  0  0  0  0  0  0
   12.0458   10.4293    2.2200 H   0  0  0  0  0  0  0  0  0  0  0  0
   10.1603   11.0919    3.4053 H   0  0  0  0  0  0  0  0  0  0  0  0
   10.3056    9.7529    4.5738 H   0  0  0  0  0  0  0  0  0  0  0  0
  1  2  2  3
  2  3  1  0
  3  4  2  3
  4  5  1  0
  3  6  1  0
  6  7  1  0
  7  8  2  0
  7  9  1  0
  9 10  1  0
 10 11  1  0
 11 12  1  0
 12 13  1  0
 13 14  1  0
 13 15  1  0
 12 16  1  0
 16 17  1  0
 17  9  1  0
  1 18  1  0
  1 19  1  0
  2 20  1  0
  4 21  1  0
  5 22  1  0
  5 23  1  0
  5 24  1  0
  6 25  1  0
  9 26  1  0
 10 27  1  0
 10 28  1  0
 11 29  1  0
 11 30  1  0
 12 31  1  0
 13 32  1  0
 14 33  1  0
 14 34  1  0
 14 35  1  0
 15 36  1  0
 15 37  1  0
 15 38  1  0
 16 39  1  0
 16 40  1  0
 17 41  1  0
 17 42  1  0
M  CHG  1  15   1
M  END
>  <EmbedRMS>  (184) 
0.29216731409503444

$$$$

     RDKit          3D

 43 43  0  0  0  0  0  0  0  0999 V2000
    6.6518   12.3152    2.6403 C   0  0  0  0  0  0  0  0  0  0  0  0
    5.6400   11.5559    3.0694 C   0  0  0  0  0  0  0  0  0  0  0  0
    4.3314   11.9224    2.7469 O   0  0  0  0  0  0  0  0  0  0  0  0
    5.8681   10.3591    3.9238 C   0  0  0  0  0  0  0  0  0  0  0  0
    4.8694    9.9263    4.7126 C   0  0  0  0  0  0  0  0  0  0  0  0
    5.0102    8.7560    5.6369 C   0  0  0  0  0  0  0  0  0  0  0  0
    7.1587    9.7220    3.9945 N   0  0  0  0  0  0  0  0  0  0  0  0
    8.0076    9.4697    2.8663 C   0  0  0  0  0  0  0  0  0  0  0  0
    7.5907    9.6646    1.6900 O   0  0  0  0  0  0  0  0  0  0  0  0
    9.4147    8.9876    3.1025 C   0  0  0  0  0  0  0  0  0  0  0  0
    9.7988    7.9231    2.0785 C   0  0  0  0  0  0  0  0  0  0  0  0
   11.1576    7.3126    2.3925 C   0  0  0  0  0  0  0  0  0  0  0  0
   12.2748    8.3214    2.7721 C   0  0  0  0  0  0  0  0  0  0  0  0
   13.5806    8.3569    1.9535 C   0  0  0  0  0  0  0  0  0  0  0  0
   13.9841    7.0983    1.1854 C   0  0  0  0  0  0  0  0  0  0  0  0
   14.7107    8.8835    2.7309 N   0  0  0  0  0  4  0  0  0  0  0  0
   11.8311    9.7191    3.3027 C   0  0  0  0  0  0  0  0  0  0  0  0
   10.3960   10.1509    3.0058 C   0  0  0  0  0  0  0  0  0  0  0  0
    6.4615   13.1861    2.0266 H   0  0  0  0  0  0  0  0  0  0  0  0
    7.6766   12.1182    2.9238 H   0  0  0  0  0  0  0  0  0  0  0  0
    4.1229   12.7374    2.1809 H   0  0  0  0  0  0  0  0  0  0  0  0
    3.9051   10.4204    4.6917 H   0  0  0  0  0  0  0  0  0  0  0  0
    5.7413    8.9867    6.4398 H   0  0  0  0  0  0  0  0  0  0  0  0
    4.0307    8.5356    6.1108 H   0  0  0  0  0  0  0  0  0  0  0  0
    5.3392    7.8582    5.0720 H   0  0  0  0  0  0  0  0  0  0  0  0
    7.5009    9.4081    4.9302 H   0  0  0  0  0  0  0  0  0  0  0  0
    9.4792    8.5412    4.1205 H   0  0  0  0  0  0  0  0  0  0  0  0
    9.0351    7.1134    2.0718 H   0  0  0  0  0  0  0  0  0  0  0  0
    9.8304    8.3642    1.0568 H   0  0  0  0  0  0  0  0  0  0  0  0
   11.4420    6.6830    1.5294 H   0  0  0  0  0  0  0  0  0  0  0  0
   11.0017    6.5969    3.2334 H   0  0  0  0  0  0  0  0  0  0  0  0
   12.6559    7.8390    3.7034 H   0  0  0  0  0  0  0  0  0  0  0  0
   13.3813    9.1008    1.1481 H   0  0  0  0  0  0  0  0  0  0  0  0
   13.2939    6.9113    0.3363 H   0  0  0  0  0  0  0  0  0  0  0  0
   15.0010    7.2112    0.7530 H   0  0  0  0  0  0  0  0  0  0  0  0
   13.9860    6.2211    1.8664 H   0  0  0  0  0  0  0  0  0  0  0  0
   15.5288    9.0527    2.1012 H   0  0  0  0  0  0  0  0  0  0  0  0
   14.4913    9.7898    3.1976 H   0  0  0  0  0  0  0  0  0  0  0  0
   14.9932    8.1896    3.4610 H   0  0  0  0  0  0  0  0  0  0  0  0
   11.9652    9.7501    4.4085 H   0  0  0  0  0  0  0  0  0  0  0  0
   12.4759   10.5259    2.8960 H   0  0  0  0  0  0  0  0  0  0  0  0
   10.1027   10.9512    3.7214 H   0  0  0  0  0  0  0  0  0  0  0  0
   10.3535   10.5894    1.9829 H   0  0  0  0  0  0  0  0  0  0  0  0
  1  2  2  3
  2  3  1  0
  2  4  1  0
  4  5  2  3
  5  6  1  0
  4  7  1  0
  7  8  1  0
  8  9  2  0
  8 10  1  0
 10 11  1  0
 11 12  1  0
 12 13  1  0
 13 14  1  0
 14 15  1  0
 14 16  1  0
 13 17  1  0
 17 18  1  0
 18 10  1  0
  1 19  1  0
  1 20  1  0
  3 21  1  0
  5 22  1  0
  6 23  1  0
  6 24  1  0
  6 25  1  0
  7 26  1  0
 10 27  1  0
 11 28  1  0
 11 29  1  0
 12 30  1  0
 12 31  1  0
 13 32  1  0
 14 33  1  0
 15 34  1  0
 15 35  1  0
 15 36  1  0
 16 37  1  0
 16 38  1  0
 16 39  1  0
 17 40  1  0
 17 41  1  0
 18 42  1  0
 18 43  1  0
M  CHG  1  16   1
M  END
>  <EmbedRMS>  (185) 
0.20265595005683737

$$$$

     RDKit          3D

 39 40  0  0  0  0  0  0  0  0999 V2000
   14.0494    7.2192    1.1050 C   0  0  0  0  0  0  0  0  0  0  0  0
   13.6505    7.9554    2.3992 C   0  0  0  0  0  0  0  0  0  0  0  0
   14.6296    9.0156    2.6713 N   0  0  0  0  0  4  0  0  0  0  0  0
   12.2012    8.5116    2.2739 C   0  0  0  0  0  0  0  0  0  0  0  0
   11.1818    7.3650    2.4357 C   0  0  0  0  0  0  0  0  0  0  0  0
    9.7737    7.8706    2.1562 C   0  0  0  0  0  0  0  0  0  0  0  0
    9.4113    8.9931    3.1338 C   0  0  0  0  0  0  0  0  0  0  0  0
    8.0164    9.4805    2.8700 C   0  0  0  0  0  0  0  0  0  0  0  0
    7.6346    9.6877    1.6856 O   0  0  0  0  0  0  0  0  0  0  0  0
    7.1418    9.7077    3.9825 N   0  0  0  0  0  0  0  0  0  0  0  0
    5.7792   10.1394    3.8998 C   0  0  0  0  0  0  0  0  0  0  0  0
    5.0647   10.4417    2.7517 C   0  0  0  0  0  0  0  0  0  0  0  0
    3.8097   10.8171    3.1813 C   0  0  0  0  0  0  0  0  0  0  0  0
    3.8131   10.7275    4.5588 C   0  0  0  0  0  0  0  0  0  0  0  0
    5.0153   10.3140    4.9921 N   0  0  0  0  0  0  0  0  0  0  0  0
   10.4251   10.1479    3.0666 C   0  0  0  0  0  0  0  0  0  0  0  0
   11.8597    9.6372    3.2818 C   0  0  0  0  0  0  0  0  0  0  0  0
   13.4188    6.3264    0.9275 H   0  0  0  0  0  0  0  0  0  0  0  0
   15.0969    6.8578    1.1808 H   0  0  0  0  0  0  0  0  0  0  0  0
   13.9787    7.8972    0.2276 H   0  0  0  0  0  0  0  0  0  0  0  0
   13.6922    7.2247    3.2393 H   0  0  0  0  0  0  0  0  0  0  0  0
   14.4972    9.3930    3.6371 H   0  0  0  0  0  0  0  0  0  0  0  0
   15.6011    8.6298    2.6302 H   0  0  0  0  0  0  0  0  0  0  0  0
   14.5439    9.7863    1.9688 H   0  0  0  0  0  0  0  0  0  0  0  0
   12.0890    8.9469    1.2540 H   0  0  0  0  0  0  0  0  0  0  0  0
   11.2356    6.9389    3.4625 H   0  0  0  0  0  0  0  0  0  0  0  0
   11.3838    6.5440    1.7195 H   0  0  0  0  0  0  0  0  0  0  0  0
    9.0583    7.0271    2.2753 H   0  0  0  0  0  0  0  0  0  0  0  0
    9.7126    8.2290    1.1040 H   0  0  0  0  0  0  0  0  0  0  0  0
    9.4479    8.5654    4.1613 H   0  0  0  0  0  0  0  0  0  0  0  0
    7.5215    9.5475    4.9428 H   0  0  0  0  0  0  0  0  0  0  0  0
    5.3814   10.4091    1.7210 H   0  0  0  0  0  0  0  0  0  0  0  0
    2.9806   11.1242    2.5580 H   0  0  0  0  0  0  0  0  0  0  0  0
    2.9783   10.9546    5.2088 H   0  0  0  0  0  0  0  0  0  0  0  0
    5.2972   10.1622    5.9861 H   0  0  0  0  0  0  0  0  0  0  0  0
   10.1864   10.8995    3.8506 H   0  0  0  0  0  0  0  0  0  0  0  0
   10.3598   10.6519    2.0764 H   0  0  0  0  0  0  0  0  0  0  0  0
   12.5389   10.5044    3.1423 H   0  0  0  0  0  0  0  0  0  0  0  0
   11.9749    9.2649    4.3238 H   0  0  0  0  0  0  0  0  0  0  0  0
  1  2  1  0
  2  3  1  0
  2  4  1  0
  4  5  1  0
  5  6  1  0
  6  7  1  0
  7  8  1  0
  8  9  2  0
  8 10  1  0
 10 11  1  0
 11 12  2  0
 12 13  1  0
 13 14  2  0
 14 15  1  0
  7 16  1  0
 16 17  1  0
 17  4  1  0
 15 11  1  0
  1 18  1  0
  1 19  1  0
  1 20  1  0
  2 21  1  0
  3 22  1  0
  3 23  1  0
  3 24  1  0
  4 25  1  0
  5 26  1  0
  5 27  1  0
  6 28  1  0
  6 29  1  0
  7 30  1  0
 10 31  1  0
 12 32  1  0
 13 33  1  0
 14 34  1  0
 15 35  1  0
 16 36  1  0
 16 37  1  0
 17 38  1  0
 17 39  1  0
M  CHG  1   3   1
M  END
>  <EmbedRMS>  (186) 
0.03061905892919758

$$$$

     RDKit          3D

 43 43  0  0  0  0  0  0  0  0999 V2000
    5.7455   11.3191    6.0203 C   0  0  0  0  0  0  0  0  0  0  0  0
    5.0047   10.7821    4.8077 C   0  0  0  0  0  0  0  0  0  0  0  0
    3.5728   10.3507    5.0822 C   0  0  0  0  0  0  0  0  0  0  0  0
    5.7224    9.8551    3.8187 C   0  0  0  0  0  0  0  0  0  0  0  0
    7.1673    9.7742    3.9858 N   0  0  0  0  0  0  0  0  0  0  0  0
    8.0197    9.4860    2.8700 C   0  0  0  0  0  0  0  0  0  0  0  0
    7.6120    9.6782    1.6893 O   0  0  0  0  0  0  0  0  0  0  0  0
    9.4200    8.9947    3.1117 C   0  0  0  0  0  0  0  0  0  0  0  0
    9.7988    7.9256    2.0876 C   0  0  0  0  0  0  0  0  0  0  0  0
   11.1582    7.3137    2.3954 C   0  0  0  0  0  0  0  0  0  0  0  0
   12.2771    8.3213    2.7736 C   0  0  0  0  0  0  0  0  0  0  0  0
   13.5816    8.3566    1.9535 C   0  0  0  0  0  0  0  0  0  0  0  0
   13.9838    7.0979    1.1851 C   0  0  0  0  0  0  0  0  0  0  0  0
   14.7128    8.8826    2.7299 N   0  0  0  0  0  4  0  0  0  0  0  0
   11.8363    9.7189    3.3063 C   0  0  0  0  0  0  0  0  0  0  0  0
   10.4036   10.1539    3.0090 C   0  0  0  0  0  0  0  0  0  0  0  0
    6.6922   11.8134    5.7137 H   0  0  0  0  0  0  0  0  0  0  0  0
    5.9786   10.4860    6.7163 H   0  0  0  0  0  0  0  0  0  0  0  0
    5.1250   12.0678    6.5586 H   0  0  0  0  0  0  0  0  0  0  0  0
    4.8657   11.7152    4.2129 H   0  0  0  0  0  0  0  0  0  0  0  0
    3.0203   11.1491    5.6229 H   0  0  0  0  0  0  0  0  0  0  0  0
    3.0383   10.1417    4.1302 H   0  0  0  0  0  0  0  0  0  0  0  0
    3.5694    9.4316    5.7057 H   0  0  0  0  0  0  0  0  0  0  0  0
    5.4637   10.1654    2.7814 H   0  0  0  0  0  0  0  0  0  0  0  0
    5.3247    8.8235    3.9382 H   0  0  0  0  0  0  0  0  0  0  0  0
    7.5474    9.6168    4.9461 H   0  0  0  0  0  0  0  0  0  0  0  0
    9.4774    8.5519    4.1318 H   0  0  0  0  0  0  0  0  0  0  0  0
    9.0337    7.1173    2.0860 H   0  0  0  0  0  0  0  0  0  0  0  0
    9.8270    8.3640    1.0645 H   0  0  0  0  0  0  0  0  0  0  0  0
   11.4397    6.6861    1.5299 H   0  0  0  0  0  0  0  0  0  0  0  0
   11.0047    6.5964    3.2353 H   0  0  0  0  0  0  0  0  0  0  0  0
   12.6593    7.8378    3.7038 H   0  0  0  0  0  0  0  0  0  0  0  0
   13.3817    9.1007    1.1484 H   0  0  0  0  0  0  0  0  0  0  0  0
   15.0002    7.2104    0.7513 H   0  0  0  0  0  0  0  0  0  0  0  0
   13.9864    6.2209    1.8663 H   0  0  0  0  0  0  0  0  0  0  0  0
   13.2924    6.9108    0.3370 H   0  0  0  0  0  0  0  0  0  0  0  0
   14.4954    9.7894    3.1965 H   0  0  0  0  0  0  0  0  0  0  0  0
   15.5306    9.0506    2.0995 H   0  0  0  0  0  0  0  0  0  0  0  0
   14.9953    8.1887    3.4600 H   0  0  0  0  0  0  0  0  0  0  0  0
   12.4825   10.5253    2.9014 H   0  0  0  0  0  0  0  0  0  0  0  0
   11.9695    9.7477    4.4122 H   0  0  0  0  0  0  0  0  0  0  0  0
   10.1142   10.9583    3.7217 H   0  0  0  0  0  0  0  0  0  0  0  0
   10.3629   10.5881    1.9841 H   0  0  0  0  0  0  0  0  0  0  0  0
  1  2  1  0
  2  3  1  0
  2  4  1  0
  4  5  1  0
  5  6  1  0
  6  7  2  0
  6  8  1  0
  8  9  1  0
  9 10  1  0
 10 11  1  0
 11 12  1  0
 12 13  1  0
 12 14  1  0
 11 15  1  0
 15 16  1  0
 16  8  1  0
  1 17  1  0
  1 18  1  0
  1 19  1  0
  2 20  1  0
  3 21  1  0
  3 22  1  0
  3 23  1  0
  4 24  1  0
  4 25  1  0
  5 26  1  0
  8 27  1  0
  9 28  1  0
  9 29  1  0
 10 30  1  0
 10 31  1  0
 11 32  1  0
 12 33  1  0
 13 34  1  0
 13 35  1  0
 13 36  1  0
 14 37  1  0
 14 38  1  0
 14 39  1  0
 15 40  1  0
 15 41  1  0
 16 42  1  0
 16 43  1  0
M  CHG  1  14   1
M  END
>  <EmbedRMS>  (187) 
0.28373172213554615

$$$$

     RDKit          3D

 43 44  0  0  0  0  0  0  0  0999 V2000
   14.0276    7.2301    1.0858 C   0  0  0  0  0  0  0  0  0  0  0  0
   13.6459    7.9626    2.3850 C   0  0  0  0  0  0  0  0  0  0  0  0
   14.6273    9.0243    2.6470 N   0  0  0  0  0  4  0  0  0  0  0  0
   12.1819    8.5085    2.2960 C   0  0  0  0  0  0  0  0  0  0  0  0
   11.1978    7.3499    2.5409 C   0  0  0  0  0  0  0  0  0  0  0  0
    9.7345    7.7437    2.3739 C   0  0  0  0  0  0  0  0  0  0  0  0
    9.4500    9.2139    2.6409 C   0  0  0  0  0  0  0  0  0  0  0  0
    7.9871    9.5385    2.7237 C   0  0  0  0  0  0  0  0  0  0  0  0
    7.4165    9.6879    1.6153 O   0  0  0  0  0  0  0  0  0  0  0  0
    7.2149    9.6895    3.9283 N   0  0  0  0  0  0  0  0  0  0  0  0
    5.8138   10.1222    3.8054 C   0  0  0  0  0  0  0  0  0  0  0  0
    5.1472   10.2607    5.1400 C   0  0  0  0  0  0  0  0  0  0  0  0
    4.4718    9.1754    5.7134 C   0  0  0  0  0  0  0  0  0  0  0  0
    3.8687    9.3139    6.9637 C   0  0  0  0  0  0  0  0  0  0  0  0
    3.9494   10.5386    7.6297 C   0  0  0  0  0  0  0  0  0  0  0  0
    4.6077   11.5829    7.0597 N   0  0  0  0  0  0  0  0  0  0  0  0
    5.2027   11.4727    5.8424 C   0  0  0  0  0  0  0  0  0  0  0  0
   10.4185   10.0737    3.4302 C   0  0  0  0  0  0  0  0  0  0  0  0
   11.8964    9.6377    3.3188 C   0  0  0  0  0  0  0  0  0  0  0  0
   13.3803    6.3499    0.9044 H   0  0  0  0  0  0  0  0  0  0  0  0
   13.9572    7.9169    0.2153 H   0  0  0  0  0  0  0  0  0  0  0  0
   15.0709    6.8548    1.1517 H   0  0  0  0  0  0  0  0  0  0  0  0
   13.7144    7.2277    3.2199 H   0  0  0  0  0  0  0  0  0  0  0  0
   15.5990    8.6418    2.5845 H   0  0  0  0  0  0  0  0  0  0  0  0
   14.5149    9.3994    3.6159 H   0  0  0  0  0  0  0  0  0  0  0  0
   14.5263    9.7976    1.9494 H   0  0  0  0  0  0  0  0  0  0  0  0
   12.0112    8.9222    1.2764 H   0  0  0  0  0  0  0  0  0  0  0  0
   11.3979    6.4997    1.8580 H   0  0  0  0  0  0  0  0  0  0  0  0
   11.3436    6.9702    3.5775 H   0  0  0  0  0  0  0  0  0  0  0  0
    9.3957    7.4730    1.3468 H   0  0  0  0  0  0  0  0  0  0  0  0
    9.1283    7.1284    3.0751 H   0  0  0  0  0  0  0  0  0  0  0  0
    9.7095    9.6218    1.6318 H   0  0  0  0  0  0  0  0  0  0  0  0
    7.6566    9.5244    4.8608 H   0  0  0  0  0  0  0  0  0  0  0  0
    5.2544    9.3860    3.1871 H   0  0  0  0  0  0  0  0  0  0  0  0
    5.7751   11.0969    3.2707 H   0  0  0  0  0  0  0  0  0  0  0  0
    4.4175    8.2247    5.1974 H   0  0  0  0  0  0  0  0  0  0  0  0
    3.3461    8.4800    7.4142 H   0  0  0  0  0  0  0  0  0  0  0  0
    3.4872   10.6595    8.6003 H   0  0  0  0  0  0  0  0  0  0  0  0
    5.7224   12.3263    5.4264 H   0  0  0  0  0  0  0  0  0  0  0  0
   10.1212   10.0281    4.5004 H   0  0  0  0  0  0  0  0  0  0  0  0
   10.3159   11.1407    3.1251 H   0  0  0  0  0  0  0  0  0  0  0  0
   12.2359    9.3018    4.3242 H   0  0  0  0  0  0  0  0  0  0  0  0
   12.4950   10.5353    3.0521 H   0  0  0  0  0  0  0  0  0  0  0  0
  1  2  1  0
  2  3  1  0
  2  4  1  0
  4  5  1  0
  5  6  1  0
  6  7  1  0
  7  8  1  0
  8  9  2  0
  8 10  1  0
 10 11  1  0
 11 12  1  0
 12 13  2  0
 13 14  1  0
 14 15  2  0
 15 16  1  0
 16 17  2  0
  7 18  1  0
 18 19  1  0
 19  4  1  0
 17 12  1  0
  1 20  1  0
  1 21  1  0
  1 22  1  0
  2 23  1  0
  3 24  1  0
  3 25  1  0
  3 26  1  0
  4 27  1  0
  5 28  1  0
  5 29  1  0
  6 30  1  0
  6 31  1  0
  7 32  1  0
 10 33  1  0
 11 34  1  0
 11 35  1  0
 13 36  1  0
 14 37  1  0
 15 38  1  0
 17 39  1  0
 18 40  1  0
 18 41  1  0
 19 42  1  0
 19 43  1  0
M  CHG  1   3   1
M  END
>  <EmbedRMS>  (188) 
0.17084101544492625

$$$$

     RDKit          3D

 42 42  0  0  0  0  0  0  0  0999 V2000
    8.6750    8.1658    7.0703 C   0  0  0  0  0  0  0  0  0  0  0  0
    8.3763    8.4580    5.8022 C   0  0  0  0  0  0  0  0  0  0  0  0
    7.3143    9.3915    5.3537 C   0  0  0  0  0  0  0  0  0  0  0  0
    6.4078    9.8578    6.2465 C   0  0  0  0  0  0  0  0  0  0  0  0
    5.2565   10.7471    5.8877 C   0  0  0  0  0  0  0  0  0  0  0  0
    7.1493    9.7152    3.9495 N   0  0  0  0  0  0  0  0  0  0  0  0
    7.9765    9.4983    2.7821 C   0  0  0  0  0  0  0  0  0  0  0  0
    7.4301    9.6608    1.6607 O   0  0  0  0  0  0  0  0  0  0  0  0
    9.4445    9.1811    2.6937 C   0  0  0  0  0  0  0  0  0  0  0  0
    9.7537    7.7156    2.4382 C   0  0  0  0  0  0  0  0  0  0  0  0
   11.2038    7.4507    2.0892 C   0  0  0  0  0  0  0  0  0  0  0  0
   12.2683    8.3270    2.7571 C   0  0  0  0  0  0  0  0  0  0  0  0
   13.6145    8.3244    1.9914 C   0  0  0  0  0  0  0  0  0  0  0  0
   14.0289    7.0506    1.2546 C   0  0  0  0  0  0  0  0  0  0  0  0
   14.7105    8.8911    2.7788 N   0  0  0  0  0  4  0  0  0  0  0  0
   11.8580    9.7797    3.1035 C   0  0  0  0  0  0  0  0  0  0  0  0
   10.4067   10.0105    3.5026 C   0  0  0  0  0  0  0  0  0  0  0  0
    9.4522    7.4407    7.2763 H   0  0  0  0  0  0  0  0  0  0  0  0
    8.2207    8.6429    7.9236 H   0  0  0  0  0  0  0  0  0  0  0  0
    8.9290    7.9270    5.0689 H   0  0  0  0  0  0  0  0  0  0  0  0
    6.4522    9.5905    7.2899 H   0  0  0  0  0  0  0  0  0  0  0  0
    5.6232   11.6730    5.3961 H   0  0  0  0  0  0  0  0  0  0  0  0
    4.7085   11.0385    6.8086 H   0  0  0  0  0  0  0  0  0  0  0  0
    4.5465   10.2109    5.2233 H   0  0  0  0  0  0  0  0  0  0  0  0
    6.2337   10.1339    3.6758 H   0  0  0  0  0  0  0  0  0  0  0  0
    9.6986    9.5966    1.6856 H   0  0  0  0  0  0  0  0  0  0  0  0
    9.1148    7.3426    1.6051 H   0  0  0  0  0  0  0  0  0  0  0  0
    9.4972    7.0769    3.2974 H   0  0  0  0  0  0  0  0  0  0  0  0
   11.2718    7.6249    0.9927 H   0  0  0  0  0  0  0  0  0  0  0  0
   11.4331    6.3748    2.2587 H   0  0  0  0  0  0  0  0  0  0  0  0
   12.4573    7.8339    3.7373 H   0  0  0  0  0  0  0  0  0  0  0  0
   13.4588    9.0294    1.1415 H   0  0  0  0  0  0  0  0  0  0  0  0
   14.1162    6.2135    1.9787 H   0  0  0  0  0  0  0  0  0  0  0  0
   13.3003    6.7723    0.4659 H   0  0  0  0  0  0  0  0  0  0  0  0
   15.0110    7.1880    0.7539 H   0  0  0  0  0  0  0  0  0  0  0  0
   14.5373    9.8979    2.9966 H   0  0  0  0  0  0  0  0  0  0  0  0
   15.6086    8.8475    2.2446 H   0  0  0  0  0  0  0  0  0  0  0  0
   14.8256    8.3542    3.6688 H   0  0  0  0  0  0  0  0  0  0  0  0
   12.4979   10.1655    3.9267 H   0  0  0  0  0  0  0  0  0  0  0  0
   12.0458   10.4293    2.2200 H   0  0  0  0  0  0  0  0  0  0  0  0
   10.1603   11.0919    3.4053 H   0  0  0  0  0  0  0  0  0  0  0  0
   10.3056    9.7529    4.5738 H   0  0  0  0  0  0  0  0  0  0  0  0
  1  2  2  3
  2  3  1  0
  3  4  2  3
  4  5  1  0
  3  6  1  0
  6  7  1  0
  7  8  2  0
  7  9  1  0
  9 10  1  0
 10 11  1  0
 11 12  1  0
 12 13  1  0
 13 14  1  0
 13 15  1  0
 12 16  1  0
 16 17  1  0
 17  9  1  0
  1 18  1  0
  1 19  1  0
  2 20  1  0
  4 21  1  0
  5 22  1  0
  5 23  1  0
  5 24  1  0
  6 25  1  0
  9 26  1  0
 10 27  1  0
 10 28  1  0
 11 29  1  0
 11 30  1  0
 12 31  1  0
 13 32  1  0
 14 33  1  0
 14 34  1  0
 14 35  1  0
 15 36  1  0
 15 37  1  0
 15 38  1  0
 16 39  1  0
 16 40  1  0
 17 41  1  0
 17 42  1  0
M  CHG  1  15   1
M  END
>  <EmbedRMS>  (189) 
0.29216731409503444

$$$$

     RDKit          3D

 40 41  0  0  0  0  0  0  0  0999 V2000
   14.0092    7.0506    1.2533 C   0  0  0  0  0  0  0  0  0  0  0  0
   13.5986    8.3245    1.9900 C   0  0  0  0  0  0  0  0  0  0  0  0
   14.7008    8.8919    2.7696 N   0  0  0  0  0  4  0  0  0  0  0  0
   12.2587    8.3280    2.7675 C   0  0  0  0  0  0  0  0  0  0  0  0
   11.1754    7.4414    2.1356 C   0  0  0  0  0  0  0  0  0  0  0  0
    9.7394    7.7279    2.5470 C   0  0  0  0  0  0  0  0  0  0  0  0
    9.4434    9.2038    2.6465 C   0  0  0  0  0  0  0  0  0  0  0  0
    7.9789    9.5345    2.7319 C   0  0  0  0  0  0  0  0  0  0  0  0
    7.4306    9.7485    1.6249 O   0  0  0  0  0  0  0  0  0  0  0  0
    7.1983    9.6523    3.9397 N   0  0  0  0  0  0  0  0  0  0  0  0
    5.7594    9.8221    3.9027 C   0  0  0  0  0  0  0  0  0  0  0  0
    5.0867   10.6481    4.7314 N   0  0  0  0  0  0  0  0  0  0  0  0
    3.8003   10.4497    4.3579 C   0  0  0  0  0  0  0  0  0  0  0  0
    3.6839    9.5415    3.3695 N   0  0  0  0  0  0  0  0  0  0  0  0
    4.9135    9.1464    3.0926 N   0  0  0  0  0  0  0  0  0  0  0  0
    5.2083    8.0709    2.1518 C   0  0  0  0  0  0  0  0  0  0  0  0
   10.3839   10.0206    3.4879 C   0  0  0  0  0  0  0  0  0  0  0  0
   11.8469    9.7816    3.1206 C   0  0  0  0  0  0  0  0  0  0  0  0
   13.2638    6.7634    0.4836 H   0  0  0  0  0  0  0  0  0  0  0  0
   14.9797    7.1934    0.7320 H   0  0  0  0  0  0  0  0  0  0  0  0
   14.1169    6.2183    1.9803 H   0  0  0  0  0  0  0  0  0  0  0  0
   13.4346    9.0284    1.1411 H   0  0  0  0  0  0  0  0  0  0  0  0
   14.5195    9.8931    3.0058 H   0  0  0  0  0  0  0  0  0  0  0  0
   15.5906    8.8656    2.2202 H   0  0  0  0  0  0  0  0  0  0  0  0
   14.8353    8.3431    3.6495 H   0  0  0  0  0  0  0  0  0  0  0  0
   12.4657    7.8417    3.7475 H   0  0  0  0  0  0  0  0  0  0  0  0
   11.4018    6.3685    2.3233 H   0  0  0  0  0  0  0  0  0  0  0  0
   11.2083    7.5943    1.0347 H   0  0  0  0  0  0  0  0  0  0  0  0
    9.0478    7.2416    1.8227 H   0  0  0  0  0  0  0  0  0  0  0  0
    9.5561    7.2685    3.5428 H   0  0  0  0  0  0  0  0  0  0  0  0
    9.7180    9.5615    1.6228 H   0  0  0  0  0  0  0  0  0  0  0  0
    7.6954    9.7719    4.8498 H   0  0  0  0  0  0  0  0  0  0  0  0
    2.9587   10.9571    4.8095 H   0  0  0  0  0  0  0  0  0  0  0  0
    6.1335    7.5316    2.4442 H   0  0  0  0  0  0  0  0  0  0  0  0
    4.3765    7.3351    2.1552 H   0  0  0  0  0  0  0  0  0  0  0  0
    5.3026    8.4810    1.1253 H   0  0  0  0  0  0  0  0  0  0  0  0
   10.2349    9.7353    4.5520 H   0  0  0  0  0  0  0  0  0  0  0  0
   10.1464   11.1039    3.3936 H   0  0  0  0  0  0  0  0  0  0  0  0
   12.0589   10.4399    2.2493 H   0  0  0  0  0  0  0  0  0  0  0  0
   12.4709   10.1551    3.9616 H   0  0  0  0  0  0  0  0  0  0  0  0
  1  2  1  0
  2  3  1  0
  2  4  1  0
  4  5  1  0
  5  6  1  0
  6  7  1  0
  7  8  1  0
  8  9  2  0
  8 10  1  0
 10 11  1  0
 11 12  2  0
 12 13  1  0
 13 14  2  0
 14 15  1  0
 15 16  1  0
  7 17  1  0
 17 18  1  0
 18  4  1  0
 15 11  1  0
  1 19  1  0
  1 20  1  0
  1 21  1  0
  2 22  1  0
  3 23  1  0
  3 24  1  0
  3 25  1  0
  4 26  1  0
  5 27  1  0
  5 28  1  0
  6 29  1  0
  6 30  1  0
  7 31  1  0
 10 32  1  0
 13 33  1  0
 16 34  1  0
 16 35  1  0
 16 36  1  0
 17 37  1  0
 17 38  1  0
 18 39  1  0
 18 40  1  0
M  CHG  1   3   1
M  END
>  <EmbedRMS>  (190) 
0.293000697254303

$$$$

     RDKit          3D

 41 42  0  0  0  0  0  0  0  0999 V2000
   13.9844    7.0987    1.1852 C   0  0  0  0  0  0  0  0  0  0  0  0
   13.5813    8.3571    1.9536 C   0  0  0  0  0  0  0  0  0  0  0  0
   14.7121    8.8839    2.7300 N   0  0  0  0  0  4  0  0  0  0  0  0
   12.2768    8.3212    2.7738 C   0  0  0  0  0  0  0  0  0  0  0  0
   11.1601    7.3112    2.3969 C   0  0  0  0  0  0  0  0  0  0  0  0
    9.8018    7.9209    2.0835 C   0  0  0  0  0  0  0  0  0  0  0  0
    9.4173    8.9877    3.1066 C   0  0  0  0  0  0  0  0  0  0  0  0
    8.0138    9.4689    2.8591 C   0  0  0  0  0  0  0  0  0  0  0  0
    7.6251    9.6825    1.6784 O   0  0  0  0  0  0  0  0  0  0  0  0
    7.1449    9.7019    3.9762 N   0  0  0  0  0  0  0  0  0  0  0  0
    5.7828   10.1379    3.8920 C   0  0  0  0  0  0  0  0  0  0  0  0
    5.0632   10.4442    2.7446 C   0  0  0  0  0  0  0  0  0  0  0  0
    3.8226   10.8108    3.2163 C   0  0  0  0  0  0  0  0  0  0  0  0
    3.8279   10.7100    4.5578 N   0  0  0  0  0  0  0  0  0  0  0  0
    2.7163   11.0342    5.4382 C   0  0  0  0  0  0  0  0  0  0  0  0
    5.0147   10.3126    4.9830 N   0  0  0  0  0  0  0  0  0  0  0  0
   10.3986   10.1505    3.0073 C   0  0  0  0  0  0  0  0  0  0  0  0
   11.8330    9.7187    3.3049 C   0  0  0  0  0  0  0  0  0  0  0  0
   15.0005    7.2121    0.7511 H   0  0  0  0  0  0  0  0  0  0  0  0
   13.2929    6.9109    0.3373 H   0  0  0  0  0  0  0  0  0  0  0  0
   13.9881    6.2217    1.8665 H   0  0  0  0  0  0  0  0  0  0  0  0
   13.3809    9.1011    1.1485 H   0  0  0  0  0  0  0  0  0  0  0  0
   15.5295    9.0533    2.0995 H   0  0  0  0  0  0  0  0  0  0  0  0
   14.9956    8.1899    3.4597 H   0  0  0  0  0  0  0  0  0  0  0  0
   14.4932    9.7901    3.1971 H   0  0  0  0  0  0  0  0  0  0  0  0
   12.6598    7.8396    3.7047 H   0  0  0  0  0  0  0  0  0  0  0  0
   11.0050    6.5972    3.2394 H   0  0  0  0  0  0  0  0  0  0  0  0
   11.4440    6.6800    1.5348 H   0  0  0  0  0  0  0  0  0  0  0  0
    9.0384    7.1109    2.0780 H   0  0  0  0  0  0  0  0  0  0  0  0
    9.8338    8.3598    1.0608 H   0  0  0  0  0  0  0  0  0  0  0  0
    9.4757    8.5442    4.1263 H   0  0  0  0  0  0  0  0  0  0  0  0
    7.5257    9.5388    4.9355 H   0  0  0  0  0  0  0  0  0  0  0  0
    5.3655   10.4225    1.7090 H   0  0  0  0  0  0  0  0  0  0  0  0
    2.9765   11.1294    2.6210 H   0  0  0  0  0  0  0  0  0  0  0  0
    2.6385   12.1361    5.5478 H   0  0  0  0  0  0  0  0  0  0  0  0
    1.7686   10.6392    5.0146 H   0  0  0  0  0  0  0  0  0  0  0  0
    2.8761   10.5796    6.4389 H   0  0  0  0  0  0  0  0  0  0  0  0
   10.3575   10.5865    1.9833 H   0  0  0  0  0  0  0  0  0  0  0  0
   10.1057   10.9524    3.7212 H   0  0  0  0  0  0  0  0  0  0  0  0
   11.9663    9.7490    4.4107 H   0  0  0  0  0  0  0  0  0  0  0  0
   12.4781   10.5258    2.8991 H   0  0  0  0  0  0  0  0  0  0  0  0
  1  2  1  0
  2  3  1  0
  2  4  1  0
  4  5  1  0
  5  6  1  0
  6  7  1  0
  7  8  1  0
  8  9  2  0
  8 10  1  0
 10 11  1  0
 11 12  1  0
 12 13  2  0
 13 14  1  0
 14 15  1  0
 14 16  1  0
  7 17  1  0
 17 18  1  0
 18  4  1  0
 16 11  2  0
  1 19  1  0
  1 20  1  0
  1 21  1  0
  2 22  1  0
  3 23  1  0
  3 24  1  0
  3 25  1  0
  4 26  1  0
  5 27  1  0
  5 28  1  0
  6 29  1  0
  6 30  1  0
  7 31  1  0
 10 32  1  0
 12 33  1  0
 13 34  1  0
 15 35  1  0
 15 36  1  0
 15 37  1  0
 17 38  1  0
 17 39  1  0
 18 40  1  0
 18 41  1  0
M  CHG  1   3   1
M  END
>  <EmbedRMS>  (191) 
0.20203882927987918

$$$$

     RDKit          3D

 40 41  0  0  0  0  0  0  0  0999 V2000
   14.0092    7.0506    1.2533 C   0  0  0  0  0  0  0  0  0  0  0  0
   13.5986    8.3245    1.9900 C   0  0  0  0  0  0  0  0  0  0  0  0
   14.7008    8.8919    2.7696 N   0  0  0  0  0  4  0  0  0  0  0  0
   12.2587    8.3280    2.7675 C   0  0  0  0  0  0  0  0  0  0  0  0
   11.1754    7.4414    2.1356 C   0  0  0  0  0  0  0  0  0  0  0  0
    9.7394    7.7279    2.5470 C   0  0  0  0  0  0  0  0  0  0  0  0
    9.4434    9.2038    2.6465 C   0  0  0  0  0  0  0  0  0  0  0  0
    7.9789    9.5345    2.7319 C   0  0  0  0  0  0  0  0  0  0  0  0
    7.4306    9.7485    1.6249 O   0  0  0  0  0  0  0  0  0  0  0  0
    7.1983    9.6523    3.9397 N   0  0  0  0  0  0  0  0  0  0  0  0
    5.7594    9.8221    3.9027 C   0  0  0  0  0  0  0  0  0  0  0  0
    5.0867   10.6481    4.7314 N   0  0  0  0  0  0  0  0  0  0  0  0
    3.8003   10.4497    4.3579 C   0  0  0  0  0  0  0  0  0  0  0  0
    3.6839    9.5415    3.3695 N   0  0  0  0  0  0  0  0  0  0  0  0
    4.9135    9.1464    3.0926 N   0  0  0  0  0  0  0  0  0  0  0  0
    5.2083    8.0709    2.1518 C   0  0  0  0  0  0  0  0  0  0  0  0
   10.3839   10.0206    3.4879 C   0  0  0  0  0  0  0  0  0  0  0  0
   11.8469    9.7816    3.1206 C   0  0  0  0  0  0  0  0  0  0  0  0
   13.2638    6.7634    0.4836 H   0  0  0  0  0  0  0  0  0  0  0  0
   14.9797    7.1934    0.7320 H   0  0  0  0  0  0  0  0  0  0  0  0
   14.1169    6.2183    1.9803 H   0  0  0  0  0  0  0  0  0  0  0  0
   13.4346    9.0284    1.1411 H   0  0  0  0  0  0  0  0  0  0  0  0
   14.5195    9.8931    3.0058 H   0  0  0  0  0  0  0  0  0  0  0  0
   15.5906    8.8656    2.2202 H   0  0  0  0  0  0  0  0  0  0  0  0
   14.8353    8.3431    3.6495 H   0  0  0  0  0  0  0  0  0  0  0  0
   12.4657    7.8417    3.7475 H   0  0  0  0  0  0  0  0  0  0  0  0
   11.4018    6.3685    2.3233 H   0  0  0  0  0  0  0  0  0  0  0  0
   11.2083    7.5943    1.0347 H   0  0  0  0  0  0  0  0  0  0  0  0
    9.0478    7.2416    1.8227 H   0  0  0  0  0  0  0  0  0  0  0  0
    9.5561    7.2685    3.5428 H   0  0  0  0  0  0  0  0  0  0  0  0
    9.7180    9.5615    1.6228 H   0  0  0  0  0  0  0  0  0  0  0  0
    7.6954    9.7719    4.8498 H   0  0  0  0  0  0  0  0  0  0  0  0
    2.9587   10.9571    4.8095 H   0  0  0  0  0  0  0  0  0  0  0  0
    6.1335    7.5316    2.4442 H   0  0  0  0  0  0  0  0  0  0  0  0
    4.3765    7.3351    2.1552 H   0  0  0  0  0  0  0  0  0  0  0  0
    5.3026    8.4810    1.1253 H   0  0  0  0  0  0  0  0  0  0  0  0
   10.2349    9.7353    4.5520 H   0  0  0  0  0  0  0  0  0  0  0  0
   10.1464   11.1039    3.3936 H   0  0  0  0  0  0  0  0  0  0  0  0
   12.0589   10.4399    2.2493 H   0  0  0  0  0  0  0  0  0  0  0  0
   12.4709   10.1551    3.9616 H   0  0  0  0  0  0  0  0  0  0  0  0
  1  2  1  0
  2  3  1  0
  2  4  1  0
  4  5  1  0
  5  6  1  0
  6  7  1  0
  7  8  1  0
  8  9  2  0
  8 10  1  0
 10 11  1  0
 11 12  2  0
 12 13  1  0
 13 14  2  0
 14 15  1  0
 15 16  1  0
  7 17  1  0
 17 18  1  0
 18  4  1  0
 15 11  1  0
  1 19  1  0
  1 20  1  0
  1 21  1  0
  2 22  1  0
  3 23  1  0
  3 24  1  0
  3 25  1  0
  4 26  1  0
  5 27  1  0
  5 28  1  0
  6 29  1  0
  6 30  1  0
  7 31  1  0
 10 32  1  0
 13 33  1  0
 16 34  1  0
 16 35  1  0
 16 36  1  0
 17 37  1  0
 17 38  1  0
 18 39  1  0
 18 40  1  0
M  CHG  1   3   1
M  END
>  <EmbedRMS>  (192) 
0.293000697254303

$$$$

     RDKit          3D

 44 45  0  0  0  0  0  0  0  0999 V2000
   14.0491    7.2192    1.1051 C   0  0  0  0  0  0  0  0  0  0  0  0
   13.6499    7.9554    2.3993 C   0  0  0  0  0  0  0  0  0  0  0  0
   14.6293    9.0155    2.6715 N   0  0  0  0  0  4  0  0  0  0  0  0
   12.2007    8.5120    2.2736 C   0  0  0  0  0  0  0  0  0  0  0  0
   11.1807    7.3658    2.4346 C   0  0  0  0  0  0  0  0  0  0  0  0
    9.7726    7.8720    2.1539 C   0  0  0  0  0  0  0  0  0  0  0  0
    9.4099    8.9946    3.1307 C   0  0  0  0  0  0  0  0  0  0  0  0
    8.0144    9.4819    2.8685 C   0  0  0  0  0  0  0  0  0  0  0  0
    7.6163    9.6899    1.6878 O   0  0  0  0  0  0  0  0  0  0  0  0
    7.1421    9.7123    3.9750 N   0  0  0  0  0  0  0  0  0  0  0  0
    5.7615   10.1355    3.7870 C   0  0  0  0  0  0  0  0  0  0  0  0
    5.0980   10.2938    5.1182 C   0  0  0  0  0  0  0  0  0  0  0  0
    4.3917    9.3155    5.7845 C   0  0  0  0  0  0  0  0  0  0  0  0
    4.0621    9.8968    6.9943 C   0  0  0  0  0  0  0  0  0  0  0  0
    4.5655   11.1466    7.0524 N   0  0  0  0  0  0  0  0  0  0  0  0
    5.2022   11.3746    5.9156 N   0  0  0  0  0  0  0  0  0  0  0  0
    5.8996   12.6191    5.6126 C   0  0  0  0  0  0  0  0  0  0  0  0
   10.4244   10.1488    3.0655 C   0  0  0  0  0  0  0  0  0  0  0  0
   11.8589    9.6374    3.2816 C   0  0  0  0  0  0  0  0  0  0  0  0
   15.0965    6.8576    1.1812 H   0  0  0  0  0  0  0  0  0  0  0  0
   13.4183    6.3265    0.9275 H   0  0  0  0  0  0  0  0  0  0  0  0
   13.9788    7.8972    0.2277 H   0  0  0  0  0  0  0  0  0  0  0  0
   13.6913    7.2248    3.2394 H   0  0  0  0  0  0  0  0  0  0  0  0
   14.5438    9.7862    1.9690 H   0  0  0  0  0  0  0  0  0  0  0  0
   15.6007    8.6296    2.6307 H   0  0  0  0  0  0  0  0  0  0  0  0
   14.4966    9.3930    3.6373 H   0  0  0  0  0  0  0  0  0  0  0  0
   12.0890    8.9476    1.2538 H   0  0  0  0  0  0  0  0  0  0  0  0
   11.2335    6.9397    3.4615 H   0  0  0  0  0  0  0  0  0  0  0  0
   11.3829    6.5448    1.7186 H   0  0  0  0  0  0  0  0  0  0  0  0
    9.7117    8.2308    1.1019 H   0  0  0  0  0  0  0  0  0  0  0  0
    9.0568    7.0288    2.2728 H   0  0  0  0  0  0  0  0  0  0  0  0
    9.4450    8.5671    4.1584 H   0  0  0  0  0  0  0  0  0  0  0  0
    7.5143    9.5749    4.9433 H   0  0  0  0  0  0  0  0  0  0  0  0
    5.2177    9.3738    3.1876 H   0  0  0  0  0  0  0  0  0  0  0  0
    5.7355   11.0991    3.2352 H   0  0  0  0  0  0  0  0  0  0  0  0
    4.1557    8.3159    5.4443 H   0  0  0  0  0  0  0  0  0  0  0  0
    3.4981    9.4307    7.7909 H   0  0  0  0  0  0  0  0  0  0  0  0
    5.8854   13.2918    6.4963 H   0  0  0  0  0  0  0  0  0  0  0  0
    6.9558   12.4043    5.3455 H   0  0  0  0  0  0  0  0  0  0  0  0
    5.3997   13.1315    4.7642 H   0  0  0  0  0  0  0  0  0  0  0  0
   10.1851   10.8999    3.8499 H   0  0  0  0  0  0  0  0  0  0  0  0
   10.3600   10.6536    2.0757 H   0  0  0  0  0  0  0  0  0  0  0  0
   12.5384   10.5044    3.1429 H   0  0  0  0  0  0  0  0  0  0  0  0
   11.9731    9.2648    4.3236 H   0  0  0  0  0  0  0  0  0  0  0  0
  1  2  1  0
  2  3  1  0
  2  4  1  0
  4  5  1  0
  5  6  1  0
  6  7  1  0
  7  8  1  0
  8  9  2  0
  8 10  1  0
 10 11  1  0
 11 12  1  0
 12 13  2  0
 13 14  1  0
 14 15  2  0
 15 16  1  0
 16 17  1  0
  7 18  1  0
 18 19  1  0
 19  4  1  0
 16 12  1  0
  1 20  1  0
  1 21  1  0
  1 22  1  0
  2 23  1  0
  3 24  1  0
  3 25  1  0
  3 26  1  0
  4 27  1  0
  5 28  1  0
  5 29  1  0
  6 30  1  0
  6 31  1  0
  7 32  1  0
 10 33  1  0
 11 34  1  0
 11 35  1  0
 13 36  1  0
 14 37  1  0
 17 38  1  0
 17 39  1  0
 17 40  1  0
 18 41  1  0
 18 42  1  0
 19 43  1  0
 19 44  1  0
M  CHG  1   3   1
M  END
>  <EmbedRMS>  (193) 
0.027804703519808214

$$$$

     RDKit          3D

 43 43  0  0  0  0  0  0  0  0999 V2000
    3.6711   10.6275    5.0210 C   0  0  0  0  0  0  0  0  0  0  0  0
    4.9918   10.0337    4.8478 N   0  0  0  0  0  0  0  0  0  0  0  0
    5.8609   10.3374    3.9251 C   0  0  0  0  0  0  0  0  0  0  0  0
    7.1438    9.6971    3.9877 N   0  0  0  0  0  0  0  0  0  0  0  0
    8.0084    9.4738    2.8649 C   0  0  0  0  0  0  0  0  0  0  0  0
    7.5990    9.6719    1.6869 O   0  0  0  0  0  0  0  0  0  0  0  0
    9.4145    8.9906    3.1048 C   0  0  0  0  0  0  0  0  0  0  0  0
    9.7980    7.9237    2.0817 C   0  0  0  0  0  0  0  0  0  0  0  0
   11.1572    7.3132    2.3941 C   0  0  0  0  0  0  0  0  0  0  0  0
   12.2748    8.3220    2.7727 C   0  0  0  0  0  0  0  0  0  0  0  0
   13.5804    8.3570    1.9537 C   0  0  0  0  0  0  0  0  0  0  0  0
   13.9835    7.0983    1.1856 C   0  0  0  0  0  0  0  0  0  0  0  0
   14.7108    8.8835    2.7307 N   0  0  0  0  0  4  0  0  0  0  0  0
   11.8313    9.7199    3.3032 C   0  0  0  0  0  0  0  0  0  0  0  0
   10.3967   10.1525    3.0053 C   0  0  0  0  0  0  0  0  0  0  0  0
    5.5916   11.3984    2.9170 C   0  0  0  0  0  0  0  0  0  0  0  0
    6.6474   12.4065    2.5690 C   0  0  0  0  0  0  0  0  0  0  0  0
    4.4398   11.4546    2.3261 N   0  0  0  0  0  0  0  0  0  0  0  0
    3.2295   10.2542    5.9676 H   0  0  0  0  0  0  0  0  0  0  0  0
    3.7496   11.7340    5.0805 H   0  0  0  0  0  0  0  0  0  0  0  0
    3.0036   10.3293    4.1859 H   0  0  0  0  0  0  0  0  0  0  0  0
    7.4328    9.3004    4.9106 H   0  0  0  0  0  0  0  0  0  0  0  0
    9.4778    8.5472    4.1241 H   0  0  0  0  0  0  0  0  0  0  0  0
    9.0342    7.1141    2.0770 H   0  0  0  0  0  0  0  0  0  0  0  0
    9.8285    8.3631    1.0592 H   0  0  0  0  0  0  0  0  0  0  0  0
   11.4409    6.6839    1.5306 H   0  0  0  0  0  0  0  0  0  0  0  0
   11.0022    6.5975    3.2351 H   0  0  0  0  0  0  0  0  0  0  0  0
   12.6562    7.8399    3.7039 H   0  0  0  0  0  0  0  0  0  0  0  0
   13.3810    9.1009    1.1483 H   0  0  0  0  0  0  0  0  0  0  0  0
   15.0002    7.2111    0.7526 H   0  0  0  0  0  0  0  0  0  0  0  0
   13.9858    6.2213    1.8668 H   0  0  0  0  0  0  0  0  0  0  0  0
   13.2928    6.9110    0.3369 H   0  0  0  0  0  0  0  0  0  0  0  0
   14.9935    8.1895    3.4607 H   0  0  0  0  0  0  0  0  0  0  0  0
   15.5288    9.0526    2.1007 H   0  0  0  0  0  0  0  0  0  0  0  0
   14.4917    9.7898    3.1975 H   0  0  0  0  0  0  0  0  0  0  0  0
   11.9646    9.7506    4.4091 H   0  0  0  0  0  0  0  0  0  0  0  0
   12.4767   10.5264    2.8971 H   0  0  0  0  0  0  0  0  0  0  0  0
   10.3549   10.5887    1.9815 H   0  0  0  0  0  0  0  0  0  0  0  0
   10.1039   10.9549    3.7189 H   0  0  0  0  0  0  0  0  0  0  0  0
    6.2354   13.4311    2.6836 H   0  0  0  0  0  0  0  0  0  0  0  0
    7.5288   12.3136    3.2381 H   0  0  0  0  0  0  0  0  0  0  0  0
    6.9718   12.2669    1.5169 H   0  0  0  0  0  0  0  0  0  0  0  0
    4.2201   12.1851    1.6121 H   0  0  0  0  0  0  0  0  0  0  0  0
  1  2  1  0
  2  3  2  3
  3  4  1  0
  4  5  1  0
  5  6  2  0
  5  7  1  0
  7  8  1  0
  8  9  1  0
  9 10  1  0
 10 11  1  0
 11 12  1  0
 11 13  1  0
 10 14  1  0
 14 15  1  0
  3 16  1  0
 16 17  1  0
 16 18  2  3
 15  7  1  0
  1 19  1  0
  1 20  1  0
  1 21  1  0
  4 22  1  0
  7 23  1  0
  8 24  1  0
  8 25  1  0
  9 26  1  0
  9 27  1  0
 10 28  1  0
 11 29  1  0
 12 30  1  0
 12 31  1  0
 12 32  1  0
 13 33  1  0
 13 34  1  0
 13 35  1  0
 14 36  1  0
 14 37  1  0
 15 38  1  0
 15 39  1  0
 17 40  1  0
 17 41  1  0
 17 42  1  0
 18 43  1  0
M  CHG  1  13   1
M  END
>  <EmbedRMS>  (194) 
0.20210563071247709

$$$$

     RDKit          3D

 46 46  0  0  0  0  0  0  0  0999 V2000
    5.8558   11.3120    5.9668 C   0  0  0  0  0  0  0  0  0  0  0  0
    5.1177   10.6611    4.8382 C   0  0  0  0  0  0  0  0  0  0  0  0
    5.7249    9.9147    3.8975 C   0  0  0  0  0  0  0  0  0  0  0  0
    7.1422    9.6696    3.9952 N   0  0  0  0  0  0  0  0  0  0  0  0
    8.0080    9.4645    2.8745 C   0  0  0  0  0  0  0  0  0  0  0  0
    7.6091    9.7127    1.7015 O   0  0  0  0  0  0  0  0  0  0  0  0
    9.4194    8.9853    3.1129 C   0  0  0  0  0  0  0  0  0  0  0  0
    9.7824    7.9370    2.0690 C   0  0  0  0  0  0  0  0  0  0  0  0
   11.1453    7.3164    2.3174 C   0  0  0  0  0  0  0  0  0  0  0  0
   12.2313    8.2994    2.7946 C   0  0  0  0  0  0  0  0  0  0  0  0
   13.7090    7.9155    2.4297 C   0  0  0  0  0  0  0  0  0  0  0  0
   13.9325    7.3325    1.0261 C   0  0  0  0  0  0  0  0  0  0  0  0
   14.6471    9.0172    2.6731 N   0  0  0  0  0  4  0  0  0  0  0  0
   11.8837    9.7896    2.9948 C   0  0  0  0  0  0  0  0  0  0  0  0
   10.3913   10.1691    3.0589 C   0  0  0  0  0  0  0  0  0  0  0  0
    4.9384    9.2886    2.8547 N   0  0  0  0  0  0  0  0  0  0  0  0
    5.2736    7.9508    2.3618 C   0  0  0  0  0  0  0  0  0  0  0  0
    3.7113    9.9147    2.3539 C   0  0  0  0  0  0  0  0  0  0  0  0
    5.1576   11.9476    6.5507 H   0  0  0  0  0  0  0  0  0  0  0  0
    6.2742   10.5415    6.6477 H   0  0  0  0  0  0  0  0  0  0  0  0
    6.6711   11.9553    5.5729 H   0  0  0  0  0  0  0  0  0  0  0  0
    4.0487   10.8213    4.8039 H   0  0  0  0  0  0  0  0  0  0  0  0
    7.5829    9.6341    4.9414 H   0  0  0  0  0  0  0  0  0  0  0  0
    9.4835    8.5122    4.1185 H   0  0  0  0  0  0  0  0  0  0  0  0
    9.7859    8.4059    1.0585 H   0  0  0  0  0  0  0  0  0  0  0  0
    9.0169    7.1287    2.0605 H   0  0  0  0  0  0  0  0  0  0  0  0
   11.4300    6.8345    1.3636 H   0  0  0  0  0  0  0  0  0  0  0  0
   11.0292    6.4819    3.0479 H   0  0  0  0  0  0  0  0  0  0  0  0
   12.2339    8.0289    3.8789 H   0  0  0  0  0  0  0  0  0  0  0  0
   14.0058    7.0859    3.1161 H   0  0  0  0  0  0  0  0  0  0  0  0
   15.0170    7.2744    0.7931 H   0  0  0  0  0  0  0  0  0  0  0  0
   13.5363    6.2978    0.9565 H   0  0  0  0  0  0  0  0  0  0  0  0
   13.4426    7.9749    0.2640 H   0  0  0  0  0  0  0  0  0  0  0  0
   15.6305    8.6706    2.5853 H   0  0  0  0  0  0  0  0  0  0  0  0
   14.5382    9.3822    3.6465 H   0  0  0  0  0  0  0  0  0  0  0  0
   14.5084    9.7866    1.9792 H   0  0  0  0  0  0  0  0  0  0  0  0
   12.3146   10.3485    2.1371 H   0  0  0  0  0  0  0  0  0  0  0  0
   12.3878   10.1917    3.9034 H   0  0  0  0  0  0  0  0  0  0  0  0
   10.1519   10.7906    2.1657 H   0  0  0  0  0  0  0  0  0  0  0  0
   10.2151   10.8157    3.9471 H   0  0  0  0  0  0  0  0  0  0  0  0
    6.0813    7.4840    2.9638 H   0  0  0  0  0  0  0  0  0  0  0  0
    4.3830    7.2910    2.4339 H   0  0  0  0  0  0  0  0  0  0  0  0
    5.5911    8.0085    1.2997 H   0  0  0  0  0  0  0  0  0  0  0  0
    3.4006    9.4570    1.3899 H   0  0  0  0  0  0  0  0  0  0  0  0
    3.8819   10.9980    2.1775 H   0  0  0  0  0  0  0  0  0  0  0  0
    2.8877    9.7763    3.0851 H   0  0  0  0  0  0  0  0  0  0  0  0
  1  2  1  0
  2  3  2  3
  3  4  1  0
  4  5  1  0
  5  6  2  0
  5  7  1  0
  7  8  1  0
  8  9  1  0
  9 10  1  0
 10 11  1  0
 11 12  1  0
 11 13  1  0
 10 14  1  0
 14 15  1  0
  3 16  1  0
 16 17  1  0
 16 18  1  0
 15  7  1  0
  1 19  1  0
  1 20  1  0
  1 21  1  0
  2 22  1  0
  4 23  1  0
  7 24  1  0
  8 25  1  0
  8 26  1  0
  9 27  1  0
  9 28  1  0
 10 29  1  0
 11 30  1  0
 12 31  1  0
 12 32  1  0
 12 33  1  0
 13 34  1  0
 13 35  1  0
 13 36  1  0
 14 37  1  0
 14 38  1  0
 15 39  1  0
 15 40  1  0
 17 41  1  0
 17 42  1  0
 17 43  1  0
 18 44  1  0
 18 45  1  0
 18 46  1  0
M  CHG  1  13   1
M  END
>  <EmbedRMS>  (195) 
0.16484252671190003

$$$$

     RDKit          3D

 38 39  0  0  0  0  0  0  0  0999 V2000
   14.0142    7.0451    1.2245 C   0  0  0  0  0  0  0  0  0  0  0  0
   13.6557    8.3401    1.9337 C   0  0  0  0  0  0  0  0  0  0  0  0
   14.6190    8.7738    2.9398 N   0  0  0  0  0  4  0  0  0  0  0  0
   12.1451    8.5868    2.2344 C   0  0  0  0  0  0  0  0  0  0  0  0
   11.2669    7.3638    2.5428 C   0  0  0  0  0  0  0  0  0  0  0  0
    9.7689    7.7135    2.4365 C   0  0  0  0  0  0  0  0  0  0  0  0
    9.4482    9.1916    2.6730 C   0  0  0  0  0  0  0  0  0  0  0  0
    7.9854    9.5168    2.7280 C   0  0  0  0  0  0  0  0  0  0  0  0
    7.4476    9.6497    1.6042 O   0  0  0  0  0  0  0  0  0  0  0  0
    7.1967    9.6902    3.9238 N   0  0  0  0  0  0  0  0  0  0  0  0
    5.8140   10.1260    3.8868 C   0  0  0  0  0  0  0  0  0  0  0  0
    5.0545   10.4496    2.7664 C   0  0  0  0  0  0  0  0  0  0  0  0
    3.8271   10.8081    3.2755 C   0  0  0  0  0  0  0  0  0  0  0  0
    3.8482   10.7101    4.6184 N   0  0  0  0  0  0  0  0  0  0  0  0
    5.0530   10.2974    4.9825 N   0  0  0  0  0  0  0  0  0  0  0  0
   10.4083   10.0800    3.4444 C   0  0  0  0  0  0  0  0  0  0  0  0
   11.8930    9.6854    3.2885 C   0  0  0  0  0  0  0  0  0  0  0  0
   13.3404    6.8744    0.3573 H   0  0  0  0  0  0  0  0  0  0  0  0
   13.9255    6.1936    1.9314 H   0  0  0  0  0  0  0  0  0  0  0  0
   15.0589    7.0794    0.8469 H   0  0  0  0  0  0  0  0  0  0  0  0
   13.8452    9.0657    1.1037 H   0  0  0  0  0  0  0  0  0  0  0  0
   14.5671    9.8047    3.1032 H   0  0  0  0  0  0  0  0  0  0  0  0
   14.4362    8.2650    3.8345 H   0  0  0  0  0  0  0  0  0  0  0  0
   15.5942    8.5560    2.6301 H   0  0  0  0  0  0  0  0  0  0  0  0
   11.7520    8.9796    1.2676 H   0  0  0  0  0  0  0  0  0  0  0  0
   11.4983    7.0008    3.5684 H   0  0  0  0  0  0  0  0  0  0  0  0
   11.4763    6.5312    1.8399 H   0  0  0  0  0  0  0  0  0  0  0  0
    9.2177    7.1062    3.1872 H   0  0  0  0  0  0  0  0  0  0  0  0
    9.3892    7.4027    1.4360 H   0  0  0  0  0  0  0  0  0  0  0  0
    9.6988    9.5859    1.6580 H   0  0  0  0  0  0  0  0  0  0  0  0
    7.6443    9.5144    4.8506 H   0  0  0  0  0  0  0  0  0  0  0  0
    5.3043   10.4566    1.7182 H   0  0  0  0  0  0  0  0  0  0  0  0
    2.9678   11.1283    2.7017 H   0  0  0  0  0  0  0  0  0  0  0  0
    5.3462   10.1380    5.9717 H   0  0  0  0  0  0  0  0  0  0  0  0
   10.2663   11.1438    3.1439 H   0  0  0  0  0  0  0  0  0  0  0  0
   10.1405   10.0203    4.5214 H   0  0  0  0  0  0  0  0  0  0  0  0
   12.2805    9.3441    4.2736 H   0  0  0  0  0  0  0  0  0  0  0  0
   12.4551   10.6011    3.0042 H   0  0  0  0  0  0  0  0  0  0  0  0
  1  2  1  0
  2  3  1  0
  2  4  1  0
  4  5  1  0
  5  6  1  0
  6  7  1  0
  7  8  1  0
  8  9  2  0
  8 10  1  0
 10 11  1  0
 11 12  2  0
 12 13  1  0
 13 14  2  0
 14 15  1  0
  7 16  1  0
 16 17  1  0
 17  4  1  0
 15 11  1  0
  1 18  1  0
  1 19  1  0
  1 20  1  0
  2 21  1  0
  3 22  1  0
  3 23  1  0
  3 24  1  0
  4 25  1  0
  5 26  1  0
  5 27  1  0
  6 28  1  0
  6 29  1  0
  7 30  1  0
 10 31  1  0
 12 32  1  0
 13 33  1  0
 15 34  1  0
 16 35  1  0
 16 36  1  0
 17 37  1  0
 17 38  1  0
M  CHG  1   3   1
M  END
>  <EmbedRMS>  (196) 
0.2562538106174641

$$$$

     RDKit          3D

 42 43  0  0  0  0  0  0  0  0999 V2000
   14.0094    7.0504    1.2533 C   0  0  0  0  0  0  0  0  0  0  0  0
   13.5988    8.3244    1.9900 C   0  0  0  0  0  0  0  0  0  0  0  0
   14.7011    8.8919    2.7695 N   0  0  0  0  0  4  0  0  0  0  0  0
   12.2591    8.3279    2.7674 C   0  0  0  0  0  0  0  0  0  0  0  0
   11.1757    7.4412    2.1357 C   0  0  0  0  0  0  0  0  0  0  0  0
    9.7398    7.7282    2.5466 C   0  0  0  0  0  0  0  0  0  0  0  0
    9.4445    9.2042    2.6453 C   0  0  0  0  0  0  0  0  0  0  0  0
    7.9808    9.5349    2.7314 C   0  0  0  0  0  0  0  0  0  0  0  0
    7.4308    9.7480    1.6249 O   0  0  0  0  0  0  0  0  0  0  0  0
    7.2020    9.6521    3.9398 N   0  0  0  0  0  0  0  0  0  0  0  0
    5.7636    9.8229    3.9010 C   0  0  0  0  0  0  0  0  0  0  0  0
    5.0451   10.6690    4.7275 C   0  0  0  0  0  0  0  0  0  0  0  0
    3.7119   10.5044    4.3882 C   0  0  0  0  0  0  0  0  0  0  0  0
    3.6686    9.5589    3.3830 C   0  0  0  0  0  0  0  0  0  0  0  0
    4.9155    9.1348    3.0973 N   0  0  0  0  0  0  0  0  0  0  0  0
    5.2230    8.0500    2.1686 C   0  0  0  0  0  0  0  0  0  0  0  0
   10.3845   10.0206    3.4875 C   0  0  0  0  0  0  0  0  0  0  0  0
   11.8475    9.7816    3.1206 C   0  0  0  0  0  0  0  0  0  0  0  0
   13.2643    6.7636    0.4832 H   0  0  0  0  0  0  0  0  0  0  0  0
   14.9802    7.1930    0.7324 H   0  0  0  0  0  0  0  0  0  0  0  0
   14.1164    6.2181    1.9802 H   0  0  0  0  0  0  0  0  0  0  0  0
   13.4348    9.0283    1.1410 H   0  0  0  0  0  0  0  0  0  0  0  0
   14.5198    9.8931    3.0054 H   0  0  0  0  0  0  0  0  0  0  0  0
   15.5909    8.8653    2.2203 H   0  0  0  0  0  0  0  0  0  0  0  0
   14.8353    8.3432    3.6496 H   0  0  0  0  0  0  0  0  0  0  0  0
   12.4661    7.8416    3.7475 H   0  0  0  0  0  0  0  0  0  0  0  0
   11.2089    7.5937    1.0347 H   0  0  0  0  0  0  0  0  0  0  0  0
   11.4019    6.3683    2.3238 H   0  0  0  0  0  0  0  0  0  0  0  0
    9.0482    7.2418    1.8223 H   0  0  0  0  0  0  0  0  0  0  0  0
    9.5561    7.2692    3.5425 H   0  0  0  0  0  0  0  0  0  0  0  0
    9.7190    9.5618    1.6216 H   0  0  0  0  0  0  0  0  0  0  0  0
    7.7005    9.7694    4.8497 H   0  0  0  0  0  0  0  0  0  0  0  0
    5.4436   11.3286    5.4867 H   0  0  0  0  0  0  0  0  0  0  0  0
    2.8662   11.0094    4.8351 H   0  0  0  0  0  0  0  0  0  0  0  0
    2.7693    9.1808    2.9134 H   0  0  0  0  0  0  0  0  0  0  0  0
    4.4056    7.2977    2.1821 H   0  0  0  0  0  0  0  0  0  0  0  0
    6.1567    7.5280    2.4648 H   0  0  0  0  0  0  0  0  0  0  0  0
    5.3103    8.4483    1.1367 H   0  0  0  0  0  0  0  0  0  0  0  0
   10.1472   11.1040    3.3934 H   0  0  0  0  0  0  0  0  0  0  0  0
   10.2352    9.7350    4.5515 H   0  0  0  0  0  0  0  0  0  0  0  0
   12.0598   10.4400    2.2494 H   0  0  0  0  0  0  0  0  0  0  0  0
   12.4713   10.1548    3.9619 H   0  0  0  0  0  0  0  0  0  0  0  0
  1  2  1  0
  2  3  1  0
  2  4  1  0
  4  5  1  0
  5  6  1  0
  6  7  1  0
  7  8  1  0
  8  9  2  0
  8 10  1  0
 10 11  1  0
 11 12  2  0
 12 13  1  0
 13 14  2  0
 14 15  1  0
 15 16  1  0
  7 17  1  0
 17 18  1  0
 18  4  1  0
 15 11  1  0
  1 19  1  0
  1 20  1  0
  1 21  1  0
  2 22  1  0
  3 23  1  0
  3 24  1  0
  3 25  1  0
  4 26  1  0
  5 27  1  0
  5 28  1  0
  6 29  1  0
  6 30  1  0
  7 31  1  0
 10 32  1  0
 12 33  1  0
 13 34  1  0
 14 35  1  0
 16 36  1  0
 16 37  1  0
 16 38  1  0
 17 39  1  0
 17 40  1  0
 18 41  1  0
 18 42  1  0
M  CHG  1   3   1
M  END
>  <EmbedRMS>  (197) 
0.293041831892948

$$$$

     RDKit          3D

 43 44  0  0  0  0  0  0  0  0999 V2000
   14.0276    7.2301    1.0858 C   0  0  0  0  0  0  0  0  0  0  0  0
   13.6459    7.9626    2.3850 C   0  0  0  0  0  0  0  0  0  0  0  0
   14.6273    9.0243    2.6470 N   0  0  0  0  0  4  0  0  0  0  0  0
   12.1819    8.5085    2.2960 C   0  0  0  0  0  0  0  0  0  0  0  0
   11.1978    7.3499    2.5409 C   0  0  0  0  0  0  0  0  0  0  0  0
    9.7345    7.7437    2.3739 C   0  0  0  0  0  0  0  0  0  0  0  0
    9.4500    9.2139    2.6409 C   0  0  0  0  0  0  0  0  0  0  0  0
    7.9871    9.5385    2.7237 C   0  0  0  0  0  0  0  0  0  0  0  0
    7.4165    9.6879    1.6153 O   0  0  0  0  0  0  0  0  0  0  0  0
    7.2149    9.6895    3.9283 N   0  0  0  0  0  0  0  0  0  0  0  0
    5.8138   10.1222    3.8054 C   0  0  0  0  0  0  0  0  0  0  0  0
    5.1472   10.2607    5.1400 C   0  0  0  0  0  0  0  0  0  0  0  0
    4.4718    9.1754    5.7134 C   0  0  0  0  0  0  0  0  0  0  0  0
    3.8687    9.3139    6.9637 C   0  0  0  0  0  0  0  0  0  0  0  0
    3.9494   10.5386    7.6297 C   0  0  0  0  0  0  0  0  0  0  0  0
    4.6077   11.5829    7.0597 N   0  0  0  0  0  0  0  0  0  0  0  0
    5.2027   11.4727    5.8424 C   0  0  0  0  0  0  0  0  0  0  0  0
   10.4185   10.0737    3.4302 C   0  0  0  0  0  0  0  0  0  0  0  0
   11.8964    9.6377    3.3188 C   0  0  0  0  0  0  0  0  0  0  0  0
   13.3803    6.3499    0.9044 H   0  0  0  0  0  0  0  0  0  0  0  0
   13.9572    7.9169    0.2153 H   0  0  0  0  0  0  0  0  0  0  0  0
   15.0709    6.8548    1.1517 H   0  0  0  0  0  0  0  0  0  0  0  0
   13.7144    7.2277    3.2199 H   0  0  0  0  0  0  0  0  0  0  0  0
   15.5990    8.6418    2.5845 H   0  0  0  0  0  0  0  0  0  0  0  0
   14.5149    9.3994    3.6159 H   0  0  0  0  0  0  0  0  0  0  0  0
   14.5263    9.7976    1.9494 H   0  0  0  0  0  0  0  0  0  0  0  0
   12.0112    8.9222    1.2764 H   0  0  0  0  0  0  0  0  0  0  0  0
   11.3979    6.4997    1.8580 H   0  0  0  0  0  0  0  0  0  0  0  0
   11.3436    6.9702    3.5775 H   0  0  0  0  0  0  0  0  0  0  0  0
    9.3957    7.4730    1.3468 H   0  0  0  0  0  0  0  0  0  0  0  0
    9.1283    7.1284    3.0751 H   0  0  0  0  0  0  0  0  0  0  0  0
    9.7095    9.6218    1.6318 H   0  0  0  0  0  0  0  0  0  0  0  0
    7.6566    9.5244    4.8608 H   0  0  0  0  0  0  0  0  0  0  0  0
    5.2544    9.3860    3.1871 H   0  0  0  0  0  0  0  0  0  0  0  0
    5.7751   11.0969    3.2707 H   0  0  0  0  0  0  0  0  0  0  0  0
    4.4175    8.2247    5.1974 H   0  0  0  0  0  0  0  0  0  0  0  0
    3.3461    8.4800    7.4142 H   0  0  0  0  0  0  0  0  0  0  0  0
    3.4872   10.6595    8.6003 H   0  0  0  0  0  0  0  0  0  0  0  0
    5.7224   12.3263    5.4264 H   0  0  0  0  0  0  0  0  0  0  0  0
   10.1212   10.0281    4.5004 H   0  0  0  0  0  0  0  0  0  0  0  0
   10.3159   11.1407    3.1251 H   0  0  0  0  0  0  0  0  0  0  0  0
   12.2359    9.3018    4.3242 H   0  0  0  0  0  0  0  0  0  0  0  0
   12.4950   10.5353    3.0521 H   0  0  0  0  0  0  0  0  0  0  0  0
  1  2  1  0
  2  3  1  0
  2  4  1  0
  4  5  1  0
  5  6  1  0
  6  7  1  0
  7  8  1  0
  8  9  2  0
  8 10  1  0
 10 11  1  0
 11 12  1  0
 12 13  2  0
 13 14  1  0
 14 15  2  0
 15 16  1  0
 16 17  2  0
  7 18  1  0
 18 19  1  0
 19  4  1  0
 17 12  1  0
  1 20  1  0
  1 21  1  0
  1 22  1  0
  2 23  1  0
  3 24  1  0
  3 25  1  0
  3 26  1  0
  4 27  1  0
  5 28  1  0
  5 29  1  0
  6 30  1  0
  6 31  1  0
  7 32  1  0
 10 33  1  0
 11 34  1  0
 11 35  1  0
 13 36  1  0
 14 37  1  0
 15 38  1  0
 17 39  1  0
 18 40  1  0
 18 41  1  0
 19 42  1  0
 19 43  1  0
M  CHG  1   3   1
M  END
>  <EmbedRMS>  (198) 
0.17084101544492625

$$$$

     RDKit          3D

 45 45  0  0  0  0  0  0  0  0999 V2000
    6.6426   12.2821    2.6516 C   0  0  0  0  0  0  0  0  0  0  0  0
    5.6157   11.5113    3.0196 C   0  0  0  0  0  0  0  0  0  0  0  0
    4.2139   11.9100    2.6324 C   0  0  0  0  0  0  0  0  0  0  0  0
    5.8597   10.3523    3.9284 C   0  0  0  0  0  0  0  0  0  0  0  0
    4.8899    9.9517    4.7721 C   0  0  0  0  0  0  0  0  0  0  0  0
    5.0638    8.8198    5.7367 C   0  0  0  0  0  0  0  0  0  0  0  0
    7.1587    9.7297    4.0017 N   0  0  0  0  0  0  0  0  0  0  0  0
    8.0094    9.4770    2.8770 C   0  0  0  0  0  0  0  0  0  0  0  0
    7.5925    9.6699    1.6995 O   0  0  0  0  0  0  0  0  0  0  0  0
    9.4190    8.9882    3.1140 C   0  0  0  0  0  0  0  0  0  0  0  0
    9.7814    7.9392    2.0698 C   0  0  0  0  0  0  0  0  0  0  0  0
   11.1442    7.3173    2.3173 C   0  0  0  0  0  0  0  0  0  0  0  0
   12.2312    8.2990    2.7947 C   0  0  0  0  0  0  0  0  0  0  0  0
   13.7088    7.9146    2.4295 C   0  0  0  0  0  0  0  0  0  0  0  0
   13.9319    7.3320    1.0257 C   0  0  0  0  0  0  0  0  0  0  0  0
   14.6475    9.0159    2.6730 N   0  0  0  0  0  4  0  0  0  0  0  0
   11.8850    9.7892    2.9963 C   0  0  0  0  0  0  0  0  0  0  0  0
   10.3931   10.1701    3.0593 C   0  0  0  0  0  0  0  0  0  0  0  0
    6.5060   13.1634    2.0375 H   0  0  0  0  0  0  0  0  0  0  0  0
    6.5060   13.1634    2.0375 H   0  0  0  0  0  0  0  0  0  0  0  0
    4.2031   12.4754    1.6757 H   0  0  0  0  0  0  0  0  0  0  0  0
    3.5836   11.0078    2.4847 H   0  0  0  0  0  0  0  0  0  0  0  0
    3.7720   12.5450    3.4286 H   0  0  0  0  0  0  0  0  0  0  0  0
    3.9254   10.4428    4.7786 H   0  0  0  0  0  0  0  0  0  0  0  0
    5.3803    7.9015    5.1981 H   0  0  0  0  0  0  0  0  0  0  0  0
    5.8159    9.0848    6.5090 H   0  0  0  0  0  0  0  0  0  0  0  0
    4.0999    8.6139    6.2477 H   0  0  0  0  0  0  0  0  0  0  0  0
    7.5134    9.4348    4.9389 H   0  0  0  0  0  0  0  0  0  0  0  0
    9.4838    8.5152    4.1195 H   0  0  0  0  0  0  0  0  0  0  0  0
    9.7856    8.4081    1.0593 H   0  0  0  0  0  0  0  0  0  0  0  0
    9.0155    7.1315    2.0616 H   0  0  0  0  0  0  0  0  0  0  0  0
   11.4284    6.8358    1.3632 H   0  0  0  0  0  0  0  0  0  0  0  0
   11.0277    6.4824    3.0472 H   0  0  0  0  0  0  0  0  0  0  0  0
   12.2338    8.0276    3.8788 H   0  0  0  0  0  0  0  0  0  0  0  0
   14.0054    7.0847    3.1155 H   0  0  0  0  0  0  0  0  0  0  0  0
   13.5346    6.2977    0.9557 H   0  0  0  0  0  0  0  0  0  0  0  0
   13.4427    7.9752    0.2638 H   0  0  0  0  0  0  0  0  0  0  0  0
   15.0164    7.2729    0.7928 H   0  0  0  0  0  0  0  0  0  0  0  0
   14.5093    9.7854    1.9790 H   0  0  0  0  0  0  0  0  0  0  0  0
   14.5387    9.3811    3.6464 H   0  0  0  0  0  0  0  0  0  0  0  0
   15.6306    8.6688    2.5853 H   0  0  0  0  0  0  0  0  0  0  0  0
   12.3172   10.3488    2.1397 H   0  0  0  0  0  0  0  0  0  0  0  0
   12.3886   10.1897    3.9059 H   0  0  0  0  0  0  0  0  0  0  0  0
   10.1546   10.7911    2.1654 H   0  0  0  0  0  0  0  0  0  0  0  0
   10.2174   10.8183    3.9465 H   0  0  0  0  0  0  0  0  0  0  0  0
  1  2  2  3
  2  3  1  0
  2  4  1  0
  4  5  2  3
  5  6  1  0
  4  7  1  0
  7  8  1  0
  8  9  2  0
  8 10  1  0
 10 11  1  0
 11 12  1  0
 12 13  1  0
 13 14  1  0
 14 15  1  0
 14 16  1  0
 13 17  1  0
 17 18  1  0
 18 10  1  0
  1 19  1  0
  1 20  1  0
  3 21  1  0
  3 22  1  0
  3 23  1  0
  5 24  1  0
  6 25  1  0
  6 26  1  0
  6 27  1  0
  7 28  1  0
 10 29  1  0
 11 30  1  0
 11 31  1  0
 12 32  1  0
 12 33  1  0
 13 34  1  0
 14 35  1  0
 15 36  1  0
 15 37  1  0
 15 38  1  0
 16 39  1  0
 16 40  1  0
 16 41  1  0
 17 42  1  0
 17 43  1  0
 18 44  1  0
 18 45  1  0
M  CHG  1  16   1
M  END
>  <EmbedRMS>  (199) 
0.16480955270904202

$$$$

     RDKit          3D

 38 39  0  0  0  0  0  0  0  0999 V2000
   13.9842    7.0987    1.1853 C   0  0  0  0  0  0  0  0  0  0  0  0
   13.5812    8.3572    1.9537 C   0  0  0  0  0  0  0  0  0  0  0  0
   14.7119    8.8839    2.7302 N   0  0  0  0  0  4  0  0  0  0  0  0
   12.2765    8.3213    2.7737 C   0  0  0  0  0  0  0  0  0  0  0  0
   11.1597    7.3114    2.3967 C   0  0  0  0  0  0  0  0  0  0  0  0
    9.8012    7.9211    2.0835 C   0  0  0  0  0  0  0  0  0  0  0  0
    9.4166    8.9879    3.1066 C   0  0  0  0  0  0  0  0  0  0  0  0
    8.0125    9.4689    2.8599 C   0  0  0  0  0  0  0  0  0  0  0  0
    7.6232    9.6834    1.6795 O   0  0  0  0  0  0  0  0  0  0  0  0
    7.1436    9.7001    3.9777 N   0  0  0  0  0  0  0  0  0  0  0  0
    5.7812   10.1373    3.8965 C   0  0  0  0  0  0  0  0  0  0  0  0
    5.0590   10.4418    2.7529 C   0  0  0  0  0  0  0  0  0  0  0  0
    3.8212   10.8093    3.2325 C   0  0  0  0  0  0  0  0  0  0  0  0
    3.8279   10.7216    4.5742 N   0  0  0  0  0  0  0  0  0  0  0  0
    5.0150   10.3141    4.9886 N   0  0  0  0  0  0  0  0  0  0  0  0
   10.3981   10.1506    3.0073 C   0  0  0  0  0  0  0  0  0  0  0  0
   11.8327    9.7188    3.3047 C   0  0  0  0  0  0  0  0  0  0  0  0
   13.2929    6.9111    0.3372 H   0  0  0  0  0  0  0  0  0  0  0  0
   15.0005    7.2120    0.7515 H   0  0  0  0  0  0  0  0  0  0  0  0
   13.9876    6.2216    1.8665 H   0  0  0  0  0  0  0  0  0  0  0  0
   13.3808    9.1011    1.1485 H   0  0  0  0  0  0  0  0  0  0  0  0
   14.9955    8.1898    3.4595 H   0  0  0  0  0  0  0  0  0  0  0  0
   14.4928    9.7899    3.1975 H   0  0  0  0  0  0  0  0  0  0  0  0
   15.5292    9.0536    2.0996 H   0  0  0  0  0  0  0  0  0  0  0  0
   12.6593    7.8397    3.7046 H   0  0  0  0  0  0  0  0  0  0  0  0
   11.4436    6.6805    1.5344 H   0  0  0  0  0  0  0  0  0  0  0  0
   11.0047    6.5972    3.2389 H   0  0  0  0  0  0  0  0  0  0  0  0
    9.8330    8.3602    1.0608 H   0  0  0  0  0  0  0  0  0  0  0  0
    9.0379    7.1111    2.0779 H   0  0  0  0  0  0  0  0  0  0  0  0
    9.4755    8.5442    4.1262 H   0  0  0  0  0  0  0  0  0  0  0  0
    7.5254    9.5361    4.9365 H   0  0  0  0  0  0  0  0  0  0  0  0
    5.3557   10.4142    1.7158 H   0  0  0  0  0  0  0  0  0  0  0  0
    2.9703   11.1209    2.6412 H   0  0  0  0  0  0  0  0  0  0  0  0
    3.0273   10.9388    5.2077 H   0  0  0  0  0  0  0  0  0  0  0  0
   10.1052   10.9525    3.7212 H   0  0  0  0  0  0  0  0  0  0  0  0
   10.3568   10.5867    1.9833 H   0  0  0  0  0  0  0  0  0  0  0  0
   12.4776   10.5259    2.8988 H   0  0  0  0  0  0  0  0  0  0  0  0
   11.9660    9.7492    4.4105 H   0  0  0  0  0  0  0  0  0  0  0  0
  1  2  1  0
  2  3  1  0
  2  4  1  0
  4  5  1  0
  5  6  1  0
  6  7  1  0
  7  8  1  0
  8  9  2  0
  8 10  1  0
 10 11  1  0
 11 12  1  0
 12 13  2  0
 13 14  1  0
 14 15  1  0
  7 16  1  0
 16 17  1  0
 17  4  1  0
 15 11  2  0
  1 18  1  0
  1 19  1  0
  1 20  1  0
  2 21  1  0
  3 22  1  0
  3 23  1  0
  3 24  1  0
  4 25  1  0
  5 26  1  0
  5 27  1  0
  6 28  1  0
  6 29  1  0
  7 30  1  0
 10 31  1  0
 12 32  1  0
 13 33  1  0
 14 34  1  0
 16 35  1  0
 16 36  1  0
 17 37  1  0
 17 38  1  0
M  CHG  1   3   1
M  END
>  <EmbedRMS>  (200) 
0.20783527019262546

$$$$

     RDKit          3D

 39 39  0  0  0  0  0  0  0  0999 V2000
    5.6600   12.2367    2.5177 C   0  0  0  0  0  0  0  0  0  0  0  0
    5.1570   10.8147    2.7393 C   0  0  0  0  0  0  0  0  0  0  0  0
    5.8307   10.1823    3.9385 C   0  0  0  0  0  0  0  0  0  0  0  0
    5.0169   10.2566    5.3597 S   0  0  0  0  0  0  0  0  0  0  0  0
    7.2011    9.6964    3.9286 N   0  0  0  0  0  0  0  0  0  0  0  0
    7.9824    9.5231    2.7274 C   0  0  0  0  0  0  0  0  0  0  0  0
    7.4408    9.6527    1.6056 O   0  0  0  0  0  0  0  0  0  0  0  0
    9.4457    9.1947    2.6695 C   0  0  0  0  0  0  0  0  0  0  0  0
    9.7661    7.7156    2.4355 C   0  0  0  0  0  0  0  0  0  0  0  0
   11.2644    7.3648    2.5420 C   0  0  0  0  0  0  0  0  0  0  0  0
   12.1438    8.5872    2.2342 C   0  0  0  0  0  0  0  0  0  0  0  0
   13.6546    8.3400    1.9338 C   0  0  0  0  0  0  0  0  0  0  0  0
   14.0132    7.0449    1.2248 C   0  0  0  0  0  0  0  0  0  0  0  0
   14.6180    8.7738    2.9399 N   0  0  0  0  0  4  0  0  0  0  0  0
   11.8915    9.6855    3.2882 C   0  0  0  0  0  0  0  0  0  0  0  0
   10.4069   10.0816    3.4420 C   0  0  0  0  0  0  0  0  0  0  0  0
    5.4635   12.8600    3.4162 H   0  0  0  0  0  0  0  0  0  0  0  0
    6.7503   12.2352    2.3076 H   0  0  0  0  0  0  0  0  0  0  0  0
    5.1329   12.6870    1.6504 H   0  0  0  0  0  0  0  0  0  0  0  0
    4.0614   10.8757    2.9223 H   0  0  0  0  0  0  0  0  0  0  0  0
    5.2369   10.2013    1.8235 H   0  0  0  0  0  0  0  0  0  0  0  0
    7.6510    9.4511    4.8389 H   0  0  0  0  0  0  0  0  0  0  0  0
    9.6953    9.5882    1.6541 H   0  0  0  0  0  0  0  0  0  0  0  0
    9.2146    7.1100    3.1872 H   0  0  0  0  0  0  0  0  0  0  0  0
    9.3859    7.4036    1.4356 H   0  0  0  0  0  0  0  0  0  0  0  0
   11.4734    6.5323    1.8387 H   0  0  0  0  0  0  0  0  0  0  0  0
   11.4953    7.0011    3.5674 H   0  0  0  0  0  0  0  0  0  0  0  0
   11.7509    8.9805    1.2674 H   0  0  0  0  0  0  0  0  0  0  0  0
   13.8442    9.0654    1.1037 H   0  0  0  0  0  0  0  0  0  0  0  0
   15.0580    7.0790    0.8475 H   0  0  0  0  0  0  0  0  0  0  0  0
   13.3396    6.8743    0.3574 H   0  0  0  0  0  0  0  0  0  0  0  0
   13.9239    6.1935    1.9316 H   0  0  0  0  0  0  0  0  0  0  0  0
   14.5662    9.8048    3.1030 H   0  0  0  0  0  0  0  0  0  0  0  0
   15.5932    8.5558    2.6303 H   0  0  0  0  0  0  0  0  0  0  0  0
   14.4350    8.2654    3.8347 H   0  0  0  0  0  0  0  0  0  0  0  0
   12.4548   10.6009    3.0049 H   0  0  0  0  0  0  0  0  0  0  0  0
   12.2775    9.3435    4.2737 H   0  0  0  0  0  0  0  0  0  0  0  0
   10.1377   10.0227    4.5188 H   0  0  0  0  0  0  0  0  0  0  0  0
   10.2664   11.1454    3.1411 H   0  0  0  0  0  0  0  0  0  0  0  0
  1  2  1  0
  2  3  1  0
  3  4  2  0
  3  5  1  0
  5  6  1  0
  6  7  2  0
  6  8  1  0
  8  9  1  0
  9 10  1  0
 10 11  1  0
 11 12  1  0
 12 13  1  0
 12 14  1  0
 11 15  1  0
 15 16  1  0
 16  8  1  0
  1 17  1  0
  1 18  1  0
  1 19  1  0
  2 20  1  0
  2 21  1  0
  5 22  1  0
  8 23  1  0
  9 24  1  0
  9 25  1  0
 10 26  1  0
 10 27  1  0
 11 28  1  0
 12 29  1  0
 13 30  1  0
 13 31  1  0
 13 32  1  0
 14 33  1  0
 14 34  1  0
 14 35  1  0
 15 36  1  0
 15 37  1  0
 16 38  1  0
 16 39  1  0
M  CHG  1  14   1
M  END
>  <EmbedRMS>  (201) 
0.26587366078586644

$$$$

     RDKit          3D

 37 37  0  0  0  0  0  0  0  0999 V2000
   13.9221    7.3285    1.0385 C   0  0  0  0  0  0  0  0  0  0  0  0
   13.7076    7.9210    2.4415 C   0  0  0  0  0  0  0  0  0  0  0  0
   14.6427    9.0267    2.6699 N   0  0  0  0  0  4  0  0  0  0  0  0
   12.2298    8.2935    2.8227 C   0  0  0  0  0  0  0  0  0  0  0  0
   11.1735    7.4162    2.1521 C   0  0  0  0  0  0  0  0  0  0  0  0
    9.7354    7.7244    2.5407 C   0  0  0  0  0  0  0  0  0  0  0  0
    9.4522    9.2048    2.6377 C   0  0  0  0  0  0  0  0  0  0  0  0
    7.9904    9.5435    2.7176 C   0  0  0  0  0  0  0  0  0  0  0  0
    7.4423    9.6720    1.6001 O   0  0  0  0  0  0  0  0  0  0  0  0
    7.2114    9.7063    3.9231 N   0  0  0  0  0  0  0  0  0  0  0  0
    5.8409   10.1958    3.9359 C   0  0  0  0  0  0  0  0  0  0  0  0
    5.0243   10.2629    5.3562 S   0  0  0  0  0  0  0  0  0  0  0  0
    5.1729   10.8418    2.7438 C   0  0  0  0  0  0  0  0  0  0  0  0
    5.8007   12.5323    2.5133 S   0  0  0  0  0  0  0  0  0  0  0  0
   10.4261   10.0516    3.4237 C   0  0  0  0  0  0  0  0  0  0  0  0
   11.8800    9.7844    3.0012 C   0  0  0  0  0  0  0  0  0  0  0  0
   13.5722    8.0452    0.2658 H   0  0  0  0  0  0  0  0  0  0  0  0
   14.9990    7.1182    0.8650 H   0  0  0  0  0  0  0  0  0  0  0  0
   13.3771    6.3681    0.9250 H   0  0  0  0  0  0  0  0  0  0  0  0
   14.0118    7.0967    3.1298 H   0  0  0  0  0  0  0  0  0  0  0  0
   15.6233    8.7091    2.4908 H   0  0  0  0  0  0  0  0  0  0  0  0
   14.5998    9.3359    3.6676 H   0  0  0  0  0  0  0  0  0  0  0  0
   14.4327    9.8277    2.0314 H   0  0  0  0  0  0  0  0  0  0  0  0
   12.1640    7.9493    3.8821 H   0  0  0  0  0  0  0  0  0  0  0  0
   11.3801    6.3428    2.3599 H   0  0  0  0  0  0  0  0  0  0  0  0
   11.2451    7.5649    1.0530 H   0  0  0  0  0  0  0  0  0  0  0  0
    9.0496    7.2437    1.8072 H   0  0  0  0  0  0  0  0  0  0  0  0
    9.5314    7.2692    3.5344 H   0  0  0  0  0  0  0  0  0  0  0  0
    9.7141    9.5370    1.6017 H   0  0  0  0  0  0  0  0  0  0  0  0
    7.6639    9.4565    4.8309 H   0  0  0  0  0  0  0  0  0  0  0  0
    4.0799   10.9240    2.9290 H   0  0  0  0  0  0  0  0  0  0  0  0
    5.2455   10.2414    1.8195 H   0  0  0  0  0  0  0  0  0  0  0  0
    4.9597   12.7639    1.4083 H   0  0  0  0  0  0  0  0  0  0  0  0
   10.3125    9.8094    4.5026 H   0  0  0  0  0  0  0  0  0  0  0  0
   10.1939   11.1315    3.2903 H   0  0  0  0  0  0  0  0  0  0  0  0
   12.5408   10.2598    3.7565 H   0  0  0  0  0  0  0  0  0  0  0  0
   12.0572   10.2971    2.0308 H   0  0  0  0  0  0  0  0  0  0  0  0
  1  2  1  0
  2  3  1  0
  2  4  1  0
  4  5  1  0
  5  6  1  0
  6  7  1  0
  7  8  1  0
  8  9  2  0
  8 10  1  0
 10 11  1  0
 11 12  2  0
 11 13  1  0
 13 14  1  0
  7 15  1  0
 15 16  1  0
 16  4  1  0
  1 17  1  0
  1 18  1  0
  1 19  1  0
  2 20  1  0
  3 21  1  0
  3 22  1  0
  3 23  1  0
  4 24  1  0
  5 25  1  0
  5 26  1  0
  6 27  1  0
  6 28  1  0
  7 29  1  0
 10 30  1  0
 13 31  1  0
 13 32  1  0
 14 33  1  0
 15 34  1  0
 15 35  1  0
 16 36  1  0
 16 37  1  0
M  CHG  1   3   1
M  END
>  <EmbedRMS>  (202) 
0.2776559693615689

$$$$

     RDKit          3D

 41 42  0  0  0  0  0  0  0  0999 V2000
   14.0155    7.0452    1.2243 C   0  0  0  0  0  0  0  0  0  0  0  0
   13.6577    8.3402    1.9340 C   0  0  0  0  0  0  0  0  0  0  0  0
   14.6213    8.7734    2.9399 N   0  0  0  0  0  4  0  0  0  0  0  0
   12.1479    8.5868    2.2358 C   0  0  0  0  0  0  0  0  0  0  0  0
   11.2708    7.3634    2.5450 C   0  0  0  0  0  0  0  0  0  0  0  0
    9.7738    7.7130    2.4384 C   0  0  0  0  0  0  0  0  0  0  0  0
    9.4545    9.1902    2.6817 C   0  0  0  0  0  0  0  0  0  0  0  0
    7.9930    9.5119    2.7236 C   0  0  0  0  0  0  0  0  0  0  0  0
    7.4746    9.6077    1.5899 O   0  0  0  0  0  0  0  0  0  0  0  0
    7.1920    9.7025    3.9130 N   0  0  0  0  0  0  0  0  0  0  0  0
    5.8002   10.1396    3.9098 C   0  0  0  0  0  0  0  0  0  0  0  0
    5.1136   10.2622    5.1332 C   0  0  0  0  0  0  0  0  0  0  0  0
    3.7791   10.6918    5.1678 C   0  0  0  0  0  0  0  0  0  0  0  0
    3.1050   10.9965    3.9846 C   0  0  0  0  0  0  0  0  0  0  0  0
    3.7620   10.8848    2.7663 C   0  0  0  0  0  0  0  0  0  0  0  0
    5.0915   10.4774    2.7238 C   0  0  0  0  0  0  0  0  0  0  0  0
   10.4123   10.0785    3.4530 C   0  0  0  0  0  0  0  0  0  0  0  0
   11.8967    9.6862    3.2904 C   0  0  0  0  0  0  0  0  0  0  0  0
   13.3412    6.8748    0.3575 H   0  0  0  0  0  0  0  0  0  0  0  0
   15.0600    7.0795    0.8460 H   0  0  0  0  0  0  0  0  0  0  0  0
   13.9272    6.1936    1.9310 H   0  0  0  0  0  0  0  0  0  0  0  0
   13.8472    9.0661    1.1041 H   0  0  0  0  0  0  0  0  0  0  0  0
   14.4394    8.2635    3.8342 H   0  0  0  0  0  0  0  0  0  0  0  0
   14.5690    9.8041    3.1044 H   0  0  0  0  0  0  0  0  0  0  0  0
   15.5964    8.5564    2.6293 H   0  0  0  0  0  0  0  0  0  0  0  0
   11.7549    8.9789    1.2687 H   0  0  0  0  0  0  0  0  0  0  0  0
   11.4801    6.5302    1.8427 H   0  0  0  0  0  0  0  0  0  0  0  0
   11.5022    7.0014    3.5710 H   0  0  0  0  0  0  0  0  0  0  0  0
    9.3960    7.4069    1.4357 H   0  0  0  0  0  0  0  0  0  0  0  0
    9.2216    7.1022    3.1855 H   0  0  0  0  0  0  0  0  0  0  0  0
    9.7131    9.5882    1.6698 H   0  0  0  0  0  0  0  0  0  0  0  0
    7.6559    9.5263    4.8324 H   0  0  0  0  0  0  0  0  0  0  0  0
    5.6153   10.0259    6.0630 H   0  0  0  0  0  0  0  0  0  0  0  0
    3.2672   10.7820    6.1172 H   0  0  0  0  0  0  0  0  0  0  0  0
    2.0739   11.3242    4.0170 H   0  0  0  0  0  0  0  0  0  0  0  0
    3.2415   11.1383    1.8510 H   0  0  0  0  0  0  0  0  0  0  0  0
    5.5040   10.4952    1.7386 H   0  0  0  0  0  0  0  0  0  0  0  0
   10.1475   10.0136    4.5305 H   0  0  0  0  0  0  0  0  0  0  0  0
   10.2671   11.1433    3.1573 H   0  0  0  0  0  0  0  0  0  0  0  0
   12.4562   10.6027    3.0029 H   0  0  0  0  0  0  0  0  0  0  0  0
   12.2889    9.3466    4.2742 H   0  0  0  0  0  0  0  0  0  0  0  0
  1  2  1  0
  2  3  1  0
  2  4  1  0
  4  5  1  0
  5  6  1  0
  6  7  1  0
  7  8  1  0
  8  9  2  0
  8 10  1  0
 10 11  1  0
 11 12  2  0
 12 13  1  0
 13 14  2  0
 14 15  1  0
 15 16  2  0
  7 17  1  0
 17 18  1  0
 18  4  1  0
 16 11  1  0
  1 19  1  0
  1 20  1  0
  1 21  1  0
  2 22  1  0
  3 23  1  0
  3 24  1  0
  3 25  1  0
  4 26  1  0
  5 27  1  0
  5 28  1  0
  6 29  1  0
  6 30  1  0
  7 31  1  0
 10 32  1  0
 12 33  1  0
 13 34  1  0
 14 35  1  0
 15 36  1  0
 16 37  1  0
 17 38  1  0
 17 39  1  0
 18 40  1  0
 18 41  1  0
M  CHG  1   3   1
M  END
>  <EmbedRMS>  (203) 
0.24964892458419108

$$$$

     RDKit          3D

 42 42  0  0  0  0  0  0  0  0999 V2000
    8.6750    8.1658    7.0703 C   0  0  0  0  0  0  0  0  0  0  0  0
    8.3763    8.4580    5.8022 C   0  0  0  0  0  0  0  0  0  0  0  0
    7.3143    9.3915    5.3537 C   0  0  0  0  0  0  0  0  0  0  0  0
    6.4078    9.8578    6.2465 C   0  0  0  0  0  0  0  0  0  0  0  0
    5.2565   10.7471    5.8877 C   0  0  0  0  0  0  0  0  0  0  0  0
    7.1493    9.7152    3.9495 N   0  0  0  0  0  0  0  0  0  0  0  0
    7.9765    9.4983    2.7821 C   0  0  0  0  0  0  0  0  0  0  0  0
    7.4301    9.6608    1.6607 O   0  0  0  0  0  0  0  0  0  0  0  0
    9.4445    9.1811    2.6937 C   0  0  0  0  0  0  0  0  0  0  0  0
    9.7537    7.7156    2.4382 C   0  0  0  0  0  0  0  0  0  0  0  0
   11.2038    7.4507    2.0892 C   0  0  0  0  0  0  0  0  0  0  0  0
   12.2683    8.3270    2.7571 C   0  0  0  0  0  0  0  0  0  0  0  0
   13.6145    8.3244    1.9914 C   0  0  0  0  0  0  0  0  0  0  0  0
   14.0289    7.0506    1.2546 C   0  0  0  0  0  0  0  0  0  0  0  0
   14.7105    8.8911    2.7788 N   0  0  0  0  0  4  0  0  0  0  0  0
   11.8580    9.7797    3.1035 C   0  0  0  0  0  0  0  0  0  0  0  0
   10.4067   10.0105    3.5026 C   0  0  0  0  0  0  0  0  0  0  0  0
    9.4522    7.4407    7.2763 H   0  0  0  0  0  0  0  0  0  0  0  0
    8.2207    8.6429    7.9236 H   0  0  0  0  0  0  0  0  0  0  0  0
    8.9290    7.9270    5.0689 H   0  0  0  0  0  0  0  0  0  0  0  0
    6.4522    9.5905    7.2899 H   0  0  0  0  0  0  0  0  0  0  0  0
    5.6232   11.6730    5.3961 H   0  0  0  0  0  0  0  0  0  0  0  0
    4.7085   11.0385    6.8086 H   0  0  0  0  0  0  0  0  0  0  0  0
    4.5465   10.2109    5.2233 H   0  0  0  0  0  0  0  0  0  0  0  0
    6.2337   10.1339    3.6758 H   0  0  0  0  0  0  0  0  0  0  0  0
    9.6986    9.5966    1.6856 H   0  0  0  0  0  0  0  0  0  0  0  0
    9.1148    7.3426    1.6051 H   0  0  0  0  0  0  0  0  0  0  0  0
    9.4972    7.0769    3.2974 H   0  0  0  0  0  0  0  0  0  0  0  0
   11.2718    7.6249    0.9927 H   0  0  0  0  0  0  0  0  0  0  0  0
   11.4331    6.3748    2.2587 H   0  0  0  0  0  0  0  0  0  0  0  0
   12.4573    7.8339    3.7373 H   0  0  0  0  0  0  0  0  0  0  0  0
   13.4588    9.0294    1.1415 H   0  0  0  0  0  0  0  0  0  0  0  0
   14.1162    6.2135    1.9787 H   0  0  0  0  0  0  0  0  0  0  0  0
   13.3003    6.7723    0.4659 H   0  0  0  0  0  0  0  0  0  0  0  0
   15.0110    7.1880    0.7539 H   0  0  0  0  0  0  0  0  0  0  0  0
   14.5373    9.8979    2.9966 H   0  0  0  0  0  0  0  0  0  0  0  0
   15.6086    8.8475    2.2446 H   0  0  0  0  0  0  0  0  0  0  0  0
   14.8256    8.3542    3.6688 H   0  0  0  0  0  0  0  0  0  0  0  0
   12.4979   10.1655    3.9267 H   0  0  0  0  0  0  0  0  0  0  0  0
   12.0458   10.4293    2.2200 H   0  0  0  0  0  0  0  0  0  0  0  0
   10.1603   11.0919    3.4053 H   0  0  0  0  0  0  0  0  0  0  0  0
   10.3056    9.7529    4.5738 H   0  0  0  0  0  0  0  0  0  0  0  0
  1  2  2  3
  2  3  1  0
  3  4  2  3
  4  5  1  0
  3  6  1  0
  6  7  1  0
  7  8  2  0
  7  9  1  0
  9 10  1  0
 10 11  1  0
 11 12  1  0
 12 13  1  0
 13 14  1  0
 13 15  1  0
 12 16  1  0
 16 17  1  0
 17  9  1  0
  1 18  1  0
  1 19  1  0
  2 20  1  0
  4 21  1  0
  5 22  1  0
  5 23  1  0
  5 24  1  0
  6 25  1  0
  9 26  1  0
 10 27  1  0
 10 28  1  0
 11 29  1  0
 11 30  1  0
 12 31  1  0
 13 32  1  0
 14 33  1  0
 14 34  1  0
 14 35  1  0
 15 36  1  0
 15 37  1  0
 15 38  1  0
 16 39  1  0
 16 40  1  0
 17 41  1  0
 17 42  1  0
M  CHG  1  15   1
M  END
>  <EmbedRMS>  (204) 
0.29216731409503444

$$$$

     RDKit          3D

 43 43  0  0  0  0  0  0  0  0999 V2000
    5.1668   10.8957    4.9912 C   0  0  0  0  0  0  0  0  0  0  0  0
    5.8564    9.7580    4.2807 C   0  0  0  0  0  0  0  0  0  0  0  0
    4.9783    8.9456    3.3204 C   0  0  0  0  0  0  0  0  0  0  0  0
    4.7804    7.6252    3.9182 N   0  0  0  0  0  4  0  0  0  0  0  0
    7.2447   10.0138    3.9239 N   0  0  0  0  0  0  0  0  0  0  0  0
    8.0000    9.4904    2.8323 C   0  0  0  0  0  0  0  0  0  0  0  0
    7.5842    9.6383    1.6525 O   0  0  0  0  0  0  0  0  0  0  0  0
    9.4014    8.9926    3.0914 C   0  0  0  0  0  0  0  0  0  0  0  0
    9.7947    7.9198    2.0778 C   0  0  0  0  0  0  0  0  0  0  0  0
   11.1535    7.3108    2.4002 C   0  0  0  0  0  0  0  0  0  0  0  0
   12.2723    8.3197    2.7746 C   0  0  0  0  0  0  0  0  0  0  0  0
   13.5774    8.3573    1.9538 C   0  0  0  0  0  0  0  0  0  0  0  0
   13.9808    7.0995    1.1846 C   0  0  0  0  0  0  0  0  0  0  0  0
   14.7089    8.8835    2.7299 N   0  0  0  0  0  4  0  0  0  0  0  0
   11.8264    9.7140    3.3094 C   0  0  0  0  0  0  0  0  0  0  0  0
   10.3953   10.1493    2.9997 C   0  0  0  0  0  0  0  0  0  0  0  0
    4.2075   10.5564    5.4401 H   0  0  0  0  0  0  0  0  0  0  0  0
    5.8088   11.3084    5.7999 H   0  0  0  0  0  0  0  0  0  0  0  0
    4.9520   11.7071    4.2645 H   0  0  0  0  0  0  0  0  0  0  0  0
    6.0022    9.1004    5.1700 H   0  0  0  0  0  0  0  0  0  0  0  0
    5.4277    8.8350    2.3161 H   0  0  0  0  0  0  0  0  0  0  0  0
    3.9901    9.4381    3.1800 H   0  0  0  0  0  0  0  0  0  0  0  0
    4.1963    7.0514    3.2679 H   0  0  0  0  0  0  0  0  0  0  0  0
    5.6960    7.1337    4.0459 H   0  0  0  0  0  0  0  0  0  0  0  0
    4.2675    7.6990    4.8280 H   0  0  0  0  0  0  0  0  0  0  0  0
    7.8180   10.4539    4.6803 H   0  0  0  0  0  0  0  0  0  0  0  0
    9.4356    8.5554    4.1150 H   0  0  0  0  0  0  0  0  0  0  0  0
    9.0308    7.1105    2.0724 H   0  0  0  0  0  0  0  0  0  0  0  0
    9.8316    8.3538    1.0532 H   0  0  0  0  0  0  0  0  0  0  0  0
   10.9935    6.6036    3.2475 H   0  0  0  0  0  0  0  0  0  0  0  0
   11.4402    6.6723    1.5444 H   0  0  0  0  0  0  0  0  0  0  0  0
   12.6576    7.8367    3.7038 H   0  0  0  0  0  0  0  0  0  0  0  0
   13.3761    9.1020    1.1497 H   0  0  0  0  0  0  0  0  0  0  0  0
   13.2861    6.9098    0.3396 H   0  0  0  0  0  0  0  0  0  0  0  0
   14.9950    7.2152    0.7465 H   0  0  0  0  0  0  0  0  0  0  0  0
   13.9888    6.2228    1.8662 H   0  0  0  0  0  0  0  0  0  0  0  0
   14.9930    8.1889    3.4587 H   0  0  0  0  0  0  0  0  0  0  0  0
   14.4905    9.7892    3.1981 H   0  0  0  0  0  0  0  0  0  0  0  0
   15.5258    9.0535    2.0989 H   0  0  0  0  0  0  0  0  0  0  0  0
   12.4765   10.5226    2.9154 H   0  0  0  0  0  0  0  0  0  0  0  0
   11.9475    9.7370    4.4168 H   0  0  0  0  0  0  0  0  0  0  0  0
   10.3649   10.5830    1.9744 H   0  0  0  0  0  0  0  0  0  0  0  0
   10.1043   10.9570    3.7074 H   0  0  0  0  0  0  0  0  0  0  0  0
  1  2  1  0
  2  3  1  0
  3  4  1  0
  2  5  1  0
  5  6  1  0
  6  7  2  0
  6  8  1  0
  8  9  1  0
  9 10  1  0
 10 11  1  0
 11 12  1  0
 12 13  1  0
 12 14  1  0
 11 15  1  0
 15 16  1  0
 16  8  1  0
  1 17  1  0
  1 18  1  0
  1 19  1  0
  2 20  1  0
  3 21  1  0
  3 22  1  0
  4 23  1  0
  4 24  1  0
  4 25  1  0
  5 26  1  0
  8 27  1  0
  9 28  1  0
  9 29  1  0
 10 30  1  0
 10 31  1  0
 11 32  1  0
 12 33  1  0
 13 34  1  0
 13 35  1  0
 13 36  1  0
 14 37  1  0
 14 38  1  0
 14 39  1  0
 15 40  1  0
 15 41  1  0
 16 42  1  0
 16 43  1  0
M  CHG  2   4   1  14   1
M  END
>  <EmbedRMS>  (205) 
0.3005344476337905

$$$$

     RDKit          3D

 41 42  0  0  0  0  0  0  0  0999 V2000
    6.4175   12.2575    2.1892 C   0  0  0  0  0  0  0  0  0  0  0  0
    5.5732   11.5014    3.1639 C   0  0  0  0  0  0  0  0  0  0  0  0
    4.2995   11.8454    3.5664 C   0  0  0  0  0  0  0  0  0  0  0  0
    3.9146   10.9976    4.5372 N   0  0  0  0  0  0  0  0  0  0  0  0
    4.8777   10.1227    4.7785 N   0  0  0  0  0  0  0  0  0  0  0  0
    5.8928   10.3929    3.9367 C   0  0  0  0  0  0  0  0  0  0  0  0
    7.1447    9.6986    3.9971 N   0  0  0  0  0  0  0  0  0  0  0  0
    8.0110    9.4734    2.8795 C   0  0  0  0  0  0  0  0  0  0  0  0
    7.5992    9.6623    1.7003 O   0  0  0  0  0  0  0  0  0  0  0  0
    9.4200    8.9875    3.1193 C   0  0  0  0  0  0  0  0  0  0  0  0
    9.7817    7.9373    2.0749 C   0  0  0  0  0  0  0  0  0  0  0  0
   11.1452    7.3168    2.3190 C   0  0  0  0  0  0  0  0  0  0  0  0
   12.2318    8.2992    2.7952 C   0  0  0  0  0  0  0  0  0  0  0  0
   13.7092    7.9149    2.4296 C   0  0  0  0  0  0  0  0  0  0  0  0
   13.9319    7.3321    1.0258 C   0  0  0  0  0  0  0  0  0  0  0  0
   14.6478    9.0162    2.6728 N   0  0  0  0  0  4  0  0  0  0  0  0
   11.8851    9.7894    2.9973 C   0  0  0  0  0  0  0  0  0  0  0  0
   10.3931   10.1700    3.0593 C   0  0  0  0  0  0  0  0  0  0  0  0
    6.2967   11.8271    1.1740 H   0  0  0  0  0  0  0  0  0  0  0  0
    6.0996   13.3210    2.1597 H   0  0  0  0  0  0  0  0  0  0  0  0
    7.4842   12.2274    2.4941 H   0  0  0  0  0  0  0  0  0  0  0  0
    3.7078   12.6764    3.2049 H   0  0  0  0  0  0  0  0  0  0  0  0
    3.0048   11.0238    5.0480 H   0  0  0  0  0  0  0  0  0  0  0  0
    7.3935    9.2514    4.9079 H   0  0  0  0  0  0  0  0  0  0  0  0
    9.4850    8.5186    4.1266 H   0  0  0  0  0  0  0  0  0  0  0  0
    9.0167    7.1287    2.0691 H   0  0  0  0  0  0  0  0  0  0  0  0
    9.7835    8.4048    1.0638 H   0  0  0  0  0  0  0  0  0  0  0  0
   11.0313    6.4809    3.0482 H   0  0  0  0  0  0  0  0  0  0  0  0
   11.4283    6.8369    1.3637 H   0  0  0  0  0  0  0  0  0  0  0  0
   12.2351    8.0280    3.8794 H   0  0  0  0  0  0  0  0  0  0  0  0
   14.0061    7.0850    3.1156 H   0  0  0  0  0  0  0  0  0  0  0  0
   13.4426    7.9754    0.2640 H   0  0  0  0  0  0  0  0  0  0  0  0
   13.5344    6.2979    0.9559 H   0  0  0  0  0  0  0  0  0  0  0  0
   15.0164    7.2729    0.7927 H   0  0  0  0  0  0  0  0  0  0  0  0
   14.5390    9.3817    3.6461 H   0  0  0  0  0  0  0  0  0  0  0  0
   15.6309    8.6691    2.5852 H   0  0  0  0  0  0  0  0  0  0  0  0
   14.5096    9.7855    1.9786 H   0  0  0  0  0  0  0  0  0  0  0  0
   12.3180   10.3498    2.1416 H   0  0  0  0  0  0  0  0  0  0  0  0
   12.3878   10.1895    3.9077 H   0  0  0  0  0  0  0  0  0  0  0  0
   10.1540   10.7871    2.1627 H   0  0  0  0  0  0  0  0  0  0  0  0
   10.2173   10.8220    3.9437 H   0  0  0  0  0  0  0  0  0  0  0  0
  1  2  1  0
  2  3  2  0
  3  4  1  0
  4  5  1  0
  5  6  2  0
  6  7  1  0
  7  8  1  0
  8  9  2  0
  8 10  1  0
 10 11  1  0
 11 12  1  0
 12 13  1  0
 13 14  1  0
 14 15  1  0
 14 16  1  0
 13 17  1  0
 17 18  1  0
  6  2  1  0
 18 10  1  0
  1 19  1  0
  1 20  1  0
  1 21  1  0
  3 22  1  0
  4 23  1  0
  7 24  1  0
 10 25  1  0
 11 26  1  0
 11 27  1  0
 12 28  1  0
 12 29  1  0
 13 30  1  0
 14 31  1  0
 15 32  1  0
 15 33  1  0
 15 34  1  0
 16 35  1  0
 16 36  1  0
 16 37  1  0
 17 38  1  0
 17 39  1  0
 18 40  1  0
 18 41  1  0
M  CHG  1  16   1
M  END
>  <EmbedRMS>  (206) 
0.16376755241934868

$$$$

     RDKit          3D

 40 41  0  0  0  0  0  0  0  0999 V2000
   13.9332    7.3332    1.0251 C   0  0  0  0  0  0  0  0  0  0  0  0
   13.7125    7.9146    2.4297 C   0  0  0  0  0  0  0  0  0  0  0  0
   14.6504    9.0165    2.6726 N   0  0  0  0  0  4  0  0  0  0  0  0
   12.2364    8.2979    2.7979 C   0  0  0  0  0  0  0  0  0  0  0  0
   11.1515    7.3120    2.3262 C   0  0  0  0  0  0  0  0  0  0  0  0
    9.7912    7.9324    2.0765 C   0  0  0  0  0  0  0  0  0  0  0  0
    9.4261    8.9806    3.1220 C   0  0  0  0  0  0  0  0  0  0  0  0
    8.0225    9.4639    2.8667 C   0  0  0  0  0  0  0  0  0  0  0  0
    7.6546    9.6768    1.6802 O   0  0  0  0  0  0  0  0  0  0  0  0
    7.1435    9.7011    3.9767 N   0  0  0  0  0  0  0  0  0  0  0  0
    5.7719   10.1423    3.9218 C   0  0  0  0  0  0  0  0  0  0  0  0
    5.0682   10.2866    5.1272 C   0  0  0  0  0  0  0  0  0  0  0  0
    3.7425   10.7162    5.1245 C   0  0  0  0  0  0  0  0  0  0  0  0
    3.1199   11.0021    3.9115 C   0  0  0  0  0  0  0  0  0  0  0  0
    3.8030   10.8612    2.7487 N   0  0  0  0  0  0  0  0  0  0  0  0
    5.0935   10.4449    2.7201 C   0  0  0  0  0  0  0  0  0  0  0  0
   10.3969   10.1658    3.0679 C   0  0  0  0  0  0  0  0  0  0  0  0
   11.8884    9.7884    2.9926 C   0  0  0  0  0  0  0  0  0  0  0  0
   13.4390    7.9746    0.2649 H   0  0  0  0  0  0  0  0  0  0  0  0
   13.5402    6.2972    0.9560 H   0  0  0  0  0  0  0  0  0  0  0  0
   15.0172    7.2785    0.7884 H   0  0  0  0  0  0  0  0  0  0  0  0
   14.0108    7.0845    3.1148 H   0  0  0  0  0  0  0  0  0  0  0  0
   14.5446    9.3791    3.6472 H   0  0  0  0  0  0  0  0  0  0  0  0
   14.5091    9.7874    1.9809 H   0  0  0  0  0  0  0  0  0  0  0  0
   15.6338    8.6709    2.5809 H   0  0  0  0  0  0  0  0  0  0  0  0
   12.2424    8.0318    3.8833 H   0  0  0  0  0  0  0  0  0  0  0  0
   11.4353    6.8245    1.3751 H   0  0  0  0  0  0  0  0  0  0  0  0
   11.0353    6.4818    3.0616 H   0  0  0  0  0  0  0  0  0  0  0  0
    9.8005    8.4008    1.0657 H   0  0  0  0  0  0  0  0  0  0  0  0
    9.0262    7.1237    2.0652 H   0  0  0  0  0  0  0  0  0  0  0  0
    9.4833    8.5087    4.1284 H   0  0  0  0  0  0  0  0  0  0  0  0
    7.5457    9.5319    4.9268 H   0  0  0  0  0  0  0  0  0  0  0  0
    5.5478   10.0665    6.0729 H   0  0  0  0  0  0  0  0  0  0  0  0
    3.2017   10.8271    6.0555 H   0  0  0  0  0  0  0  0  0  0  0  0
    2.0913   11.3366    3.8945 H   0  0  0  0  0  0  0  0  0  0  0  0
    5.5409   10.3704    1.7502 H   0  0  0  0  0  0  0  0  0  0  0  0
   10.1534   10.7936    2.1801 H   0  0  0  0  0  0  0  0  0  0  0  0
   10.2256   10.8070    3.9610 H   0  0  0  0  0  0  0  0  0  0  0  0
   12.3112   10.3420    2.1274 H   0  0  0  0  0  0  0  0  0  0  0  0
   12.4001   10.1967    3.8942 H   0  0  0  0  0  0  0  0  0  0  0  0
  1  2  1  0
  2  3  1  0
  2  4  1  0
  4  5  1  0
  5  6  1  0
  6  7  1  0
  7  8  1  0
  8  9  2  0
  8 10  1  0
 10 11  1  0
 11 12  2  0
 12 13  1  0
 13 14  2  0
 14 15  1  0
 15 16  2  0
  7 17  1  0
 17 18  1  0
 18  4  1  0
 16 11  1  0
  1 19  1  0
  1 20  1  0
  1 21  1  0
  2 22  1  0
  3 23  1  0
  3 24  1  0
  3 25  1  0
  4 26  1  0
  5 27  1  0
  5 28  1  0
  6 29  1  0
  6 30  1  0
  7 31  1  0
 10 32  1  0
 12 33  1  0
 13 34  1  0
 14 35  1  0
 16 36  1  0
 17 37  1  0
 17 38  1  0
 18 39  1  0
 18 40  1  0
M  CHG  1   3   1
M  END
>  <EmbedRMS>  (207) 
0.16496192233382964

$$$$

     RDKit          3D

 44 45  0  0  0  0  0  0  0  0999 V2000
    5.7363    9.9715    6.4656 C   0  0  0  0  0  0  0  0  0  0  0  0
    5.0873   10.2728    5.1444 C   0  0  0  0  0  0  0  0  0  0  0  0
    3.7465   10.7056    5.1401 C   0  0  0  0  0  0  0  0  0  0  0  0
    3.0948   11.0014    3.9462 C   0  0  0  0  0  0  0  0  0  0  0  0
    3.7702   10.8834    2.7433 C   0  0  0  0  0  0  0  0  0  0  0  0
    5.0985   10.4784    2.7242 C   0  0  0  0  0  0  0  0  0  0  0  0
    5.7984   10.1434    3.9177 C   0  0  0  0  0  0  0  0  0  0  0  0
    7.1984    9.7105    3.9068 N   0  0  0  0  0  0  0  0  0  0  0  0
    7.9986    9.5333    2.7122 C   0  0  0  0  0  0  0  0  0  0  0  0
    7.4773    9.6168    1.5804 O   0  0  0  0  0  0  0  0  0  0  0  0
    9.4604    9.2111    2.6585 C   0  0  0  0  0  0  0  0  0  0  0  0
    9.7421    7.7424    2.3801 C   0  0  0  0  0  0  0  0  0  0  0  0
   11.2036    7.3487    2.5455 C   0  0  0  0  0  0  0  0  0  0  0  0
   12.1857    8.5085    2.2995 C   0  0  0  0  0  0  0  0  0  0  0  0
   13.6492    7.9628    2.3856 C   0  0  0  0  0  0  0  0  0  0  0  0
   14.0287    7.2306    1.0856 C   0  0  0  0  0  0  0  0  0  0  0  0
   14.6304    9.0249    2.6460 N   0  0  0  0  0  4  0  0  0  0  0  0
   11.9025    9.6387    3.3237 C   0  0  0  0  0  0  0  0  0  0  0  0
   10.4244   10.0710    3.4473 C   0  0  0  0  0  0  0  0  0  0  0  0
    6.5949   10.6566    6.6268 H   0  0  0  0  0  0  0  0  0  0  0  0
    6.0907    8.9193    6.4792 H   0  0  0  0  0  0  0  0  0  0  0  0
    5.0315   10.1021    7.3144 H   0  0  0  0  0  0  0  0  0  0  0  0
    3.1987   10.8112    6.0685 H   0  0  0  0  0  0  0  0  0  0  0  0
    2.0633   11.3295    3.9585 H   0  0  0  0  0  0  0  0  0  0  0  0
    3.2645   11.1332    1.8185 H   0  0  0  0  0  0  0  0  0  0  0  0
    5.5182   10.5025    1.7436 H   0  0  0  0  0  0  0  0  0  0  0  0
    7.6882    9.5294    4.8094 H   0  0  0  0  0  0  0  0  0  0  0  0
    9.7401    9.6220    1.6549 H   0  0  0  0  0  0  0  0  0  0  0  0
    9.1350    7.1225    3.0765 H   0  0  0  0  0  0  0  0  0  0  0  0
    9.4050    7.4790    1.3504 H   0  0  0  0  0  0  0  0  0  0  0  0
   11.4030    6.4985    1.8624 H   0  0  0  0  0  0  0  0  0  0  0  0
   11.3506    6.9696    3.5821 H   0  0  0  0  0  0  0  0  0  0  0  0
   12.0138    8.9221    1.2801 H   0  0  0  0  0  0  0  0  0  0  0  0
   13.7197    7.2278    3.2203 H   0  0  0  0  0  0  0  0  0  0  0  0
   13.3822    6.3496    0.9055 H   0  0  0  0  0  0  0  0  0  0  0  0
   13.9560    7.9172    0.2152 H   0  0  0  0  0  0  0  0  0  0  0  0
   15.0726    6.8563    1.1492 H   0  0  0  0  0  0  0  0  0  0  0  0
   14.5275    9.7985    1.9491 H   0  0  0  0  0  0  0  0  0  0  0  0
   14.5204    9.3994    3.6154 H   0  0  0  0  0  0  0  0  0  0  0  0
   15.6022    8.6430    2.5810 H   0  0  0  0  0  0  0  0  0  0  0  0
   12.4967   10.5376    3.0518 H   0  0  0  0  0  0  0  0  0  0  0  0
   12.2502    9.3049    4.3270 H   0  0  0  0  0  0  0  0  0  0  0  0
   10.3162   11.1400    3.1504 H   0  0  0  0  0  0  0  0  0  0  0  0
   10.1323   10.0162    4.5184 H   0  0  0  0  0  0  0  0  0  0  0  0
  1  2  1  0
  2  3  2  0
  3  4  1  0
  4  5  2  0
  5  6  1  0
  6  7  2  0
  7  8  1  0
  8  9  1  0
  9 10  2  0
  9 11  1  0
 11 12  1  0
 12 13  1  0
 13 14  1  0
 14 15  1  0
 15 16  1  0
 15 17  1  0
 14 18  1  0
 18 19  1  0
  7  2  1  0
 19 11  1  0
  1 20  1  0
  1 21  1  0
  1 22  1  0
  3 23  1  0
  4 24  1  0
  5 25  1  0
  6 26  1  0
  8 27  1  0
 11 28  1  0
 12 29  1  0
 12 30  1  0
 13 31  1  0
 13 32  1  0
 14 33  1  0
 15 34  1  0
 16 35  1  0
 16 36  1  0
 16 37  1  0
 17 38  1  0
 17 39  1  0
 17 40  1  0
 18 41  1  0
 18 42  1  0
 19 43  1  0
 19 44  1  0
M  CHG  1  17   1
M  END
>  <EmbedRMS>  (208) 
0.17064538222927092

$$$$

     RDKit          3D

 40 41  0  0  0  0  0  0  0  0999 V2000
   14.0290    7.0399    1.2338 C   0  0  0  0  0  0  0  0  0  0  0  0
   13.6704    8.3365    1.9394 C   0  0  0  0  0  0  0  0  0  0  0  0
   14.6146    8.7684    2.9621 N   0  0  0  0  0  4  0  0  0  0  0  0
   12.1593    8.5893    2.2125 C   0  0  0  0  0  0  0  0  0  0  0  0
   11.2439    7.3757    2.4544 C   0  0  0  0  0  0  0  0  0  0  0  0
    9.7921    7.8212    2.2160 C   0  0  0  0  0  0  0  0  0  0  0  0
    9.4155    8.9809    3.1572 C   0  0  0  0  0  0  0  0  0  0  0  0
    8.0216    9.4614    2.8746 C   0  0  0  0  0  0  0  0  0  0  0  0
    7.6551    9.6697    1.6858 O   0  0  0  0  0  0  0  0  0  0  0  0
    7.1397    9.7023    3.9770 N   0  0  0  0  0  0  0  0  0  0  0  0
    5.7810   10.1375    3.8746 C   0  0  0  0  0  0  0  0  0  0  0  0
    4.9524   10.3361    4.9568 C   0  0  0  0  0  0  0  0  0  0  0  0
    3.7766   10.7495    4.3710 C   0  0  0  0  0  0  0  0  0  0  0  0
    2.5848   11.0894    5.0706 N   0  0  0  0  0  0  0  0  0  0  0  0
    3.8915   10.7962    3.0312 N   0  0  0  0  0  0  0  0  0  0  0  0
    5.1215   10.4200    2.7309 N   0  0  0  0  0  0  0  0  0  0  0  0
   10.4086   10.1569    3.0897 C   0  0  0  0  0  0  0  0  0  0  0  0
   11.8580    9.6804    3.2548 C   0  0  0  0  0  0  0  0  0  0  0  0
   15.0839    7.0609    0.8845 H   0  0  0  0  0  0  0  0  0  0  0  0
   13.3775    6.8823    0.3472 H   0  0  0  0  0  0  0  0  0  0  0  0
   13.9096    6.1868    1.9341 H   0  0  0  0  0  0  0  0  0  0  0  0
   13.8838    9.0586    1.1114 H   0  0  0  0  0  0  0  0  0  0  0  0
   14.5975    9.8057    3.0882 H   0  0  0  0  0  0  0  0  0  0  0  0
   15.5907    8.5021    2.6969 H   0  0  0  0  0  0  0  0  0  0  0  0
   14.3791    8.3016    3.8673 H   0  0  0  0  0  0  0  0  0  0  0  0
   11.8031    9.0076    1.2379 H   0  0  0  0  0  0  0  0  0  0  0  0
   11.4662    6.5551    1.7420 H   0  0  0  0  0  0  0  0  0  0  0  0
   11.3748    6.9860    3.4877 H   0  0  0  0  0  0  0  0  0  0  0  0
    9.1176    6.9580    2.4079 H   0  0  0  0  0  0  0  0  0  0  0  0
    9.6619    8.1184    1.1513 H   0  0  0  0  0  0  0  0  0  0  0  0
    9.4494    8.5767    4.1940 H   0  0  0  0  0  0  0  0  0  0  0  0
    7.5097    9.5475    4.9422 H   0  0  0  0  0  0  0  0  0  0  0  0
    5.1710   10.2023    6.0081 H   0  0  0  0  0  0  0  0  0  0  0  0
    1.7358   11.3946    4.5453 H   0  0  0  0  0  0  0  0  0  0  0  0
    2.5488   11.0363    6.1128 H   0  0  0  0  0  0  0  0  0  0  0  0
    5.4649   10.3729    1.7501 H   0  0  0  0  0  0  0  0  0  0  0  0
   10.3043   10.6847    2.1150 H   0  0  0  0  0  0  0  0  0  0  0  0
   10.1746   10.8869    3.8954 H   0  0  0  0  0  0  0  0  0  0  0  0
   12.5101   10.5642    3.0942 H   0  0  0  0  0  0  0  0  0  0  0  0
   12.0246    9.2949    4.2846 H   0  0  0  0  0  0  0  0  0  0  0  0
  1  2  1  0
  2  3  1  0
  2  4  1  0
  4  5  1  0
  5  6  1  0
  6  7  1  0
  7  8  1  0
  8  9  2  0
  8 10  1  0
 10 11  1  0
 11 12  2  0
 12 13  1  0
 13 14  1  0
 13 15  2  0
 15 16  1  0
  7 17  1  0
 17 18  1  0
 18  4  1  0
 16 11  1  0
  1 19  1  0
  1 20  1  0
  1 21  1  0
  2 22  1  0
  3 23  1  0
  3 24  1  0
  3 25  1  0
  4 26  1  0
  5 27  1  0
  5 28  1  0
  6 29  1  0
  6 30  1  0
  7 31  1  0
 10 32  1  0
 12 33  1  0
 14 34  1  0
 14 35  1  0
 16 36  1  0
 17 37  1  0
 17 38  1  0
 18 39  1  0
 18 40  1  0
M  CHG  1   3   1
M  END
>  <EmbedRMS>  (209) 
0.18315233489621047

$$$$

     RDKit          3D

 40 40  0  0  0  0  0  0  0  0999 V2000
   14.0287    7.0398    1.2342 C   0  0  0  0  0  0  0  0  0  0  0  0
   13.6699    8.3365    1.9395 C   0  0  0  0  0  0  0  0  0  0  0  0
   14.6136    8.7686    2.9625 N   0  0  0  0  0  4  0  0  0  0  0  0
   12.1585    8.5898    2.2115 C   0  0  0  0  0  0  0  0  0  0  0  0
   11.2415    7.3768    2.4513 C   0  0  0  0  0  0  0  0  0  0  0  0
    9.7898    7.8235    2.2099 C   0  0  0  0  0  0  0  0  0  0  0  0
    9.4128    8.9828    3.1500 C   0  0  0  0  0  0  0  0  0  0  0  0
    8.0146    9.4612    2.8744 C   0  0  0  0  0  0  0  0  0  0  0  0
    7.6264    9.6812    1.6923 O   0  0  0  0  0  0  0  0  0  0  0  0
    7.1347    9.6807    3.9764 N   0  0  0  0  0  0  0  0  0  0  0  0
    5.7617   10.1339    3.7918 C   0  0  0  0  0  0  0  0  0  0  0  0
    5.0694   10.3139    5.1453 C   0  0  0  0  0  0  0  0  0  0  0  0
    5.6524   11.4275    5.8952 N   0  0  0  0  0  4  0  0  0  0  0  0
   10.4064   10.1584    3.0857 C   0  0  0  0  0  0  0  0  0  0  0  0
   11.8559    9.6810    3.2535 C   0  0  0  0  0  0  0  0  0  0  0  0
   13.9082    6.1867    1.9344 H   0  0  0  0  0  0  0  0  0  0  0  0
   15.0839    7.0604    0.8859 H   0  0  0  0  0  0  0  0  0  0  0  0
   13.3780    6.8825    0.3470 H   0  0  0  0  0  0  0  0  0  0  0  0
   13.8840    9.0583    1.1115 H   0  0  0  0  0  0  0  0  0  0  0  0
   14.3778    8.3019    3.8677 H   0  0  0  0  0  0  0  0  0  0  0  0
   15.5900    8.5023    2.6978 H   0  0  0  0  0  0  0  0  0  0  0  0
   14.5963    9.8059    3.0884 H   0  0  0  0  0  0  0  0  0  0  0  0
   11.8036    9.0087    1.2367 H   0  0  0  0  0  0  0  0  0  0  0  0
   11.3701    6.9867    3.4847 H   0  0  0  0  0  0  0  0  0  0  0  0
   11.4647    6.5564    1.7391 H   0  0  0  0  0  0  0  0  0  0  0  0
    9.1144    6.9609    2.4004 H   0  0  0  0  0  0  0  0  0  0  0  0
    9.6604    8.1225    1.1456 H   0  0  0  0  0  0  0  0  0  0  0  0
    9.4505    8.5772    4.1861 H   0  0  0  0  0  0  0  0  0  0  0  0
    7.4844    9.4644    4.9375 H   0  0  0  0  0  0  0  0  0  0  0  0
    5.7543   11.0948    3.2327 H   0  0  0  0  0  0  0  0  0  0  0  0
    5.2052    9.3770    3.1981 H   0  0  0  0  0  0  0  0  0  0  0  0
    5.1445    9.3759    5.7392 H   0  0  0  0  0  0  0  0  0  0  0  0
    3.9901   10.5179    4.9686 H   0  0  0  0  0  0  0  0  0  0  0  0
    5.1136   11.5562    6.7819 H   0  0  0  0  0  0  0  0  0  0  0  0
    6.6492   11.2328    6.1403 H   0  0  0  0  0  0  0  0  0  0  0  0
    5.5914   12.3102    5.3375 H   0  0  0  0  0  0  0  0  0  0  0  0
   10.1709   10.8878    3.8915 H   0  0  0  0  0  0  0  0  0  0  0  0
   10.3036   10.6867    2.1112 H   0  0  0  0  0  0  0  0  0  0  0  0
   12.5087   10.5645    3.0942 H   0  0  0  0  0  0  0  0  0  0  0  0
   12.0204    9.2953    4.2835 H   0  0  0  0  0  0  0  0  0  0  0  0
  1  2  1  0
  2  3  1  0
  2  4  1  0
  4  5  1  0
  5  6  1  0
  6  7  1  0
  7  8  1  0
  8  9  2  0
  8 10  1  0
 10 11  1  0
 11 12  1  0
 12 13  1  0
  7 14  1  0
 14 15  1  0
 15  4  1  0
  1 16  1  0
  1 17  1  0
  1 18  1  0
  2 19  1  0
  3 20  1  0
  3 21  1  0
  3 22  1  0
  4 23  1  0
  5 24  1  0
  5 25  1  0
  6 26  1  0
  6 27  1  0
  7 28  1  0
 10 29  1  0
 11 30  1  0
 11 31  1  0
 12 32  1  0
 12 33  1  0
 13 34  1  0
 13 35  1  0
 13 36  1  0
 14 37  1  0
 14 38  1  0
 15 39  1  0
 15 40  1  0
M  CHG  2   3   1  13   1
M  END
>  <EmbedRMS>  (210) 
0.20020147470283797

$$$$

     RDKit          3D

 44 45  0  0  0  0  0  0  0  0999 V2000
   14.0105    7.0507    1.2529 C   0  0  0  0  0  0  0  0  0  0  0  0
   13.6000    8.3245    1.9899 C   0  0  0  0  0  0  0  0  0  0  0  0
   14.7021    8.8917    2.7696 N   0  0  0  0  0  4  0  0  0  0  0  0
   12.2606    8.3275    2.7676 C   0  0  0  0  0  0  0  0  0  0  0  0
   11.1783    7.4407    2.1350 C   0  0  0  0  0  0  0  0  0  0  0  0
    9.7434    7.7269    2.5462 C   0  0  0  0  0  0  0  0  0  0  0  0
    9.4479    9.2025    2.6423 C   0  0  0  0  0  0  0  0  0  0  0  0
    7.9856    9.5285    2.7266 C   0  0  0  0  0  0  0  0  0  0  0  0
    7.4173    9.6838    1.6180 O   0  0  0  0  0  0  0  0  0  0  0  0
    7.2153    9.6879    3.9313 N   0  0  0  0  0  0  0  0  0  0  0  0
    5.8125   10.1150    3.8103 C   0  0  0  0  0  0  0  0  0  0  0  0
    5.1581   10.2735    5.1455 C   0  0  0  0  0  0  0  0  0  0  0  0
    4.4142    9.3185    5.8006 C   0  0  0  0  0  0  0  0  0  0  0  0
    4.0184    9.8095    6.9932 N   0  0  0  0  0  0  0  0  0  0  0  0
    4.5338   11.0573    7.0370 C   0  0  0  0  0  0  0  0  0  0  0  0
    5.2367   11.3624    5.9299 N   0  0  0  0  0  0  0  0  0  0  0  0
    5.9108   12.6233    5.6414 C   0  0  0  0  0  0  0  0  0  0  0  0
   10.3850   10.0203    3.4864 C   0  0  0  0  0  0  0  0  0  0  0  0
   11.8487    9.7810    3.1223 C   0  0  0  0  0  0  0  0  0  0  0  0
   14.1171    6.2180    1.9795 H   0  0  0  0  0  0  0  0  0  0  0  0
   14.9817    7.1933    0.7326 H   0  0  0  0  0  0  0  0  0  0  0  0
   13.2659    6.7643    0.4821 H   0  0  0  0  0  0  0  0  0  0  0  0
   13.4358    9.0287    1.1412 H   0  0  0  0  0  0  0  0  0  0  0  0
   14.8372    8.3421    3.6489 H   0  0  0  0  0  0  0  0  0  0  0  0
   15.5917    8.8663    2.2199 H   0  0  0  0  0  0  0  0  0  0  0  0
   14.5203    9.8926    3.0068 H   0  0  0  0  0  0  0  0  0  0  0  0
   12.4679    7.8404    3.7472 H   0  0  0  0  0  0  0  0  0  0  0  0
   11.4049    6.3678    2.3225 H   0  0  0  0  0  0  0  0  0  0  0  0
   11.2113    7.5941    1.0341 H   0  0  0  0  0  0  0  0  0  0  0  0
    9.5610    7.2695    3.5432 H   0  0  0  0  0  0  0  0  0  0  0  0
    9.0524    7.2381    1.8229 H   0  0  0  0  0  0  0  0  0  0  0  0
    9.7203    9.5619    1.6187 H   0  0  0  0  0  0  0  0  0  0  0  0
    7.6617    9.5357    4.8638 H   0  0  0  0  0  0  0  0  0  0  0  0
    5.7633   11.0817    3.2647 H   0  0  0  0  0  0  0  0  0  0  0  0
    5.2487    9.3615    3.2185 H   0  0  0  0  0  0  0  0  0  0  0  0
    4.1788    8.3258    5.4401 H   0  0  0  0  0  0  0  0  0  0  0  0
    4.3948   11.7318    7.8721 H   0  0  0  0  0  0  0  0  0  0  0  0
    5.9498   13.2601    6.5508 H   0  0  0  0  0  0  0  0  0  0  0  0
    5.3604   13.1661    4.8447 H   0  0  0  0  0  0  0  0  0  0  0  0
    6.9500   12.4268    5.3027 H   0  0  0  0  0  0  0  0  0  0  0  0
   10.1474   11.1034    3.3908 H   0  0  0  0  0  0  0  0  0  0  0  0
   10.2327    9.7357    4.5503 H   0  0  0  0  0  0  0  0  0  0  0  0
   12.4711   10.1527    3.9653 H   0  0  0  0  0  0  0  0  0  0  0  0
   12.0631   10.4406    2.2525 H   0  0  0  0  0  0  0  0  0  0  0  0
  1  2  1  0
  2  3  1  0
  2  4  1  0
  4  5  1  0
  5  6  1  0
  6  7  1  0
  7  8  1  0
  8  9  2  0
  8 10  1  0
 10 11  1  0
 11 12  1  0
 12 13  2  0
 13 14  1  0
 14 15  2  0
 15 16  1  0
 16 17  1  0
  7 18  1  0
 18 19  1  0
 19  4  1  0
 16 12  1  0
  1 20  1  0
  1 21  1  0
  1 22  1  0
  2 23  1  0
  3 24  1  0
  3 25  1  0
  3 26  1  0
  4 27  1  0
  5 28  1  0
  5 29  1  0
  6 30  1  0
  6 31  1  0
  7 32  1  0
 10 33  1  0
 11 34  1  0
 11 35  1  0
 13 36  1  0
 15 37  1  0
 17 38  1  0
 17 39  1  0
 17 40  1  0
 18 41  1  0
 18 42  1  0
 19 43  1  0
 19 44  1  0
M  CHG  1   3   1
M  END
>  <EmbedRMS>  (211) 
0.28482549143865477

$$$$

     RDKit          3D

 43 44  0  0  0  0  0  0  0  0999 V2000
   14.0134    7.0450    1.2246 C   0  0  0  0  0  0  0  0  0  0  0  0
   13.6542    8.3401    1.9333 C   0  0  0  0  0  0  0  0  0  0  0  0
   14.6173    8.7741    2.9397 N   0  0  0  0  0  4  0  0  0  0  0  0
   12.1431    8.5871    2.2329 C   0  0  0  0  0  0  0  0  0  0  0  0
   11.2641    7.3646    2.5408 C   0  0  0  0  0  0  0  0  0  0  0  0
    9.7655    7.7147    2.4337 C   0  0  0  0  0  0  0  0  0  0  0  0
    9.4437    9.1939    2.6629 C   0  0  0  0  0  0  0  0  0  0  0  0
    7.9804    9.5185    2.7350 C   0  0  0  0  0  0  0  0  0  0  0  0
    7.4133    9.6743    1.6246 O   0  0  0  0  0  0  0  0  0  0  0  0
    7.2101    9.6866    3.9373 N   0  0  0  0  0  0  0  0  0  0  0  0
    5.8079   10.1133    3.8144 C   0  0  0  0  0  0  0  0  0  0  0  0
    5.1538   10.2714    5.1492 C   0  0  0  0  0  0  0  0  0  0  0  0
    4.4718    9.2849    5.7620 N   0  0  0  0  0  0  0  0  0  0  0  0
    4.1072    9.8685    6.9253 C   0  0  0  0  0  0  0  0  0  0  0  0
    4.5417   11.1409    7.0242 N   0  0  0  0  0  0  0  0  0  0  0  0
    5.2010   11.3813    5.9065 N   0  0  0  0  0  0  0  0  0  0  0  0
    5.8353   12.6534    5.5829 C   0  0  0  0  0  0  0  0  0  0  0  0
   10.4056   10.0818    3.4356 C   0  0  0  0  0  0  0  0  0  0  0  0
   11.8902    9.6850    3.2864 C   0  0  0  0  0  0  0  0  0  0  0  0
   13.3401    6.8741    0.3570 H   0  0  0  0  0  0  0  0  0  0  0  0
   13.9241    6.1936    1.9315 H   0  0  0  0  0  0  0  0  0  0  0  0
   15.0583    7.0793    0.8476 H   0  0  0  0  0  0  0  0  0  0  0  0
   13.8439    9.0655    1.1032 H   0  0  0  0  0  0  0  0  0  0  0  0
   15.5926    8.5556    2.6309 H   0  0  0  0  0  0  0  0  0  0  0  0
   14.4335    8.2663    3.8347 H   0  0  0  0  0  0  0  0  0  0  0  0
   14.5658    9.8051    3.1022 H   0  0  0  0  0  0  0  0  0  0  0  0
   11.7496    8.9805    1.2663 H   0  0  0  0  0  0  0  0  0  0  0  0
   11.4737    6.5320    1.8378 H   0  0  0  0  0  0  0  0  0  0  0  0
   11.4949    7.0012    3.5664 H   0  0  0  0  0  0  0  0  0  0  0  0
    9.3848    7.3993    1.4350 H   0  0  0  0  0  0  0  0  0  0  0  0
    9.2148    7.1108    3.1875 H   0  0  0  0  0  0  0  0  0  0  0  0
    9.6829    9.5863    1.6449 H   0  0  0  0  0  0  0  0  0  0  0  0
    7.6558    9.5381    4.8707 H   0  0  0  0  0  0  0  0  0  0  0  0
    5.2436    9.3553    3.2291 H   0  0  0  0  0  0  0  0  0  0  0  0
    5.7572   11.0764    3.2627 H   0  0  0  0  0  0  0  0  0  0  0  0
    3.5302    9.3698    7.6922 H   0  0  0  0  0  0  0  0  0  0  0  0
    5.2848   13.1450    4.7538 H   0  0  0  0  0  0  0  0  0  0  0  0
    6.8894   12.4828    5.2779 H   0  0  0  0  0  0  0  0  0  0  0  0
    5.8248   13.3227    6.4692 H   0  0  0  0  0  0  0  0  0  0  0  0
   10.1348   10.0263    4.5122 H   0  0  0  0  0  0  0  0  0  0  0  0
   10.2664   11.1448    3.1315 H   0  0  0  0  0  0  0  0  0  0  0  0
   12.2734    9.3423    4.2727 H   0  0  0  0  0  0  0  0  0  0  0  0
   12.4548   10.6000    3.0047 H   0  0  0  0  0  0  0  0  0  0  0  0
  1  2  1  0
  2  3  1  0
  2  4  1  0
  4  5  1  0
  5  6  1  0
  6  7  1  0
  7  8  1  0
  8  9  2  0
  8 10  1  0
 10 11  1  0
 11 12  1  0
 12 13  2  0
 13 14  1  0
 14 15  2  0
 15 16  1  0
 16 17  1  0
  7 18  1  0
 18 19  1  0
 19  4  1  0
 16 12  1  0
  1 20  1  0
  1 21  1  0
  1 22  1  0
  2 23  1  0
  3 24  1  0
  3 25  1  0
  3 26  1  0
  4 27  1  0
  5 28  1  0
  5 29  1  0
  6 30  1  0
  6 31  1  0
  7 32  1  0
 10 33  1  0
 11 34  1  0
 11 35  1  0
 14 36  1  0
 17 37  1  0
 17 38  1  0
 17 39  1  0
 18 40  1  0
 18 41  1  0
 19 42  1  0
 19 43  1  0
M  CHG  1   3   1
M  END
>  <EmbedRMS>  (212) 
0.24309368491659913

$$$$

     RDKit          3D

 41 42  0  0  0  0  0  0  0  0999 V2000
   14.0155    7.0452    1.2243 C   0  0  0  0  0  0  0  0  0  0  0  0
   13.6577    8.3402    1.9340 C   0  0  0  0  0  0  0  0  0  0  0  0
   14.6213    8.7734    2.9399 N   0  0  0  0  0  4  0  0  0  0  0  0
   12.1479    8.5868    2.2358 C   0  0  0  0  0  0  0  0  0  0  0  0
   11.2708    7.3634    2.5450 C   0  0  0  0  0  0  0  0  0  0  0  0
    9.7738    7.7130    2.4384 C   0  0  0  0  0  0  0  0  0  0  0  0
    9.4545    9.1902    2.6817 C   0  0  0  0  0  0  0  0  0  0  0  0
    7.9930    9.5119    2.7236 C   0  0  0  0  0  0  0  0  0  0  0  0
    7.4746    9.6077    1.5899 O   0  0  0  0  0  0  0  0  0  0  0  0
    7.1920    9.7025    3.9130 N   0  0  0  0  0  0  0  0  0  0  0  0
    5.8002   10.1396    3.9098 C   0  0  0  0  0  0  0  0  0  0  0  0
    5.1136   10.2622    5.1332 C   0  0  0  0  0  0  0  0  0  0  0  0
    3.7791   10.6918    5.1678 C   0  0  0  0  0  0  0  0  0  0  0  0
    3.1050   10.9965    3.9846 C   0  0  0  0  0  0  0  0  0  0  0  0
    3.7620   10.8848    2.7663 C   0  0  0  0  0  0  0  0  0  0  0  0
    5.0915   10.4774    2.7238 C   0  0  0  0  0  0  0  0  0  0  0  0
   10.4123   10.0785    3.4530 C   0  0  0  0  0  0  0  0  0  0  0  0
   11.8967    9.6862    3.2904 C   0  0  0  0  0  0  0  0  0  0  0  0
   13.3412    6.8748    0.3575 H   0  0  0  0  0  0  0  0  0  0  0  0
   15.0600    7.0795    0.8460 H   0  0  0  0  0  0  0  0  0  0  0  0
   13.9272    6.1936    1.9310 H   0  0  0  0  0  0  0  0  0  0  0  0
   13.8472    9.0661    1.1041 H   0  0  0  0  0  0  0  0  0  0  0  0
   14.4394    8.2635    3.8342 H   0  0  0  0  0  0  0  0  0  0  0  0
   14.5690    9.8041    3.1044 H   0  0  0  0  0  0  0  0  0  0  0  0
   15.5964    8.5564    2.6293 H   0  0  0  0  0  0  0  0  0  0  0  0
   11.7549    8.9789    1.2687 H   0  0  0  0  0  0  0  0  0  0  0  0
   11.4801    6.5302    1.8427 H   0  0  0  0  0  0  0  0  0  0  0  0
   11.5022    7.0014    3.5710 H   0  0  0  0  0  0  0  0  0  0  0  0
    9.3960    7.4069    1.4357 H   0  0  0  0  0  0  0  0  0  0  0  0
    9.2216    7.1022    3.1855 H   0  0  0  0  0  0  0  0  0  0  0  0
    9.7131    9.5882    1.6698 H   0  0  0  0  0  0  0  0  0  0  0  0
    7.6559    9.5263    4.8324 H   0  0  0  0  0  0  0  0  0  0  0  0
    5.6153   10.0259    6.0630 H   0  0  0  0  0  0  0  0  0  0  0  0
    3.2672   10.7820    6.1172 H   0  0  0  0  0  0  0  0  0  0  0  0
    2.0739   11.3242    4.0170 H   0  0  0  0  0  0  0  0  0  0  0  0
    3.2415   11.1383    1.8510 H   0  0  0  0  0  0  0  0  0  0  0  0
    5.5040   10.4952    1.7386 H   0  0  0  0  0  0  0  0  0  0  0  0
   10.1475   10.0136    4.5305 H   0  0  0  0  0  0  0  0  0  0  0  0
   10.2671   11.1433    3.1573 H   0  0  0  0  0  0  0  0  0  0  0  0
   12.4562   10.6027    3.0029 H   0  0  0  0  0  0  0  0  0  0  0  0
   12.2889    9.3466    4.2742 H   0  0  0  0  0  0  0  0  0  0  0  0
  1  2  1  0
  2  3  1  0
  2  4  1  0
  4  5  1  0
  5  6  1  0
  6  7  1  0
  7  8  1  0
  8  9  2  0
  8 10  1  0
 10 11  1  0
 11 12  2  0
 12 13  1  0
 13 14  2  0
 14 15  1  0
 15 16  2  0
  7 17  1  0
 17 18  1  0
 18  4  1  0
 16 11  1  0
  1 19  1  0
  1 20  1  0
  1 21  1  0
  2 22  1  0
  3 23  1  0
  3 24  1  0
  3 25  1  0
  4 26  1  0
  5 27  1  0
  5 28  1  0
  6 29  1  0
  6 30  1  0
  7 31  1  0
 10 32  1  0
 12 33  1  0
 13 34  1  0
 14 35  1  0
 15 36  1  0
 16 37  1  0
 17 38  1  0
 17 39  1  0
 18 40  1  0
 18 41  1  0
M  CHG  1   3   1
M  END
>  <EmbedRMS>  (213) 
0.24964892458419108

$$$$

     RDKit          3D

 39 40  0  0  0  0  0  0  0  0999 V2000
   14.0110    7.0511    1.2526 C   0  0  0  0  0  0  0  0  0  0  0  0
   13.6007    8.3248    1.9901 C   0  0  0  0  0  0  0  0  0  0  0  0
   14.7033    8.8921    2.7690 N   0  0  0  0  0  4  0  0  0  0  0  0
   12.2625    8.3270    2.7691 C   0  0  0  0  0  0  0  0  0  0  0  0
   11.1802    7.4398    2.1370 C   0  0  0  0  0  0  0  0  0  0  0  0
    9.7464    7.7250    2.5506 C   0  0  0  0  0  0  0  0  0  0  0  0
    9.4528    9.2006    2.6508 C   0  0  0  0  0  0  0  0  0  0  0  0
    7.9907    9.5272    2.7197 C   0  0  0  0  0  0  0  0  0  0  0  0
    7.4511    9.6605    1.5982 O   0  0  0  0  0  0  0  0  0  0  0  0
    7.2032    9.6917    3.9188 N   0  0  0  0  0  0  0  0  0  0  0  0
    5.8190   10.1244    3.8864 C   0  0  0  0  0  0  0  0  0  0  0  0
    5.0492   10.4501    2.7707 C   0  0  0  0  0  0  0  0  0  0  0  0
    3.8118   10.8137    3.2504 C   0  0  0  0  0  0  0  0  0  0  0  0
    3.7917   10.7296    4.5924 N   0  0  0  0  0  0  0  0  0  0  0  0
    5.0092   10.3116    4.9903 C   0  0  0  0  0  0  0  0  0  0  0  0
   10.3879   10.0193    3.4937 C   0  0  0  0  0  0  0  0  0  0  0  0
   11.8511    9.7804    3.1265 C   0  0  0  0  0  0  0  0  0  0  0  0
   13.2659    6.7648    0.4822 H   0  0  0  0  0  0  0  0  0  0  0  0
   14.9817    7.1940    0.7316 H   0  0  0  0  0  0  0  0  0  0  0  0
   14.1182    6.2183    1.9789 H   0  0  0  0  0  0  0  0  0  0  0  0
   13.4353    9.0292    1.1418 H   0  0  0  0  0  0  0  0  0  0  0  0
   14.5218    9.8930    3.0061 H   0  0  0  0  0  0  0  0  0  0  0  0
   15.5925    8.8665    2.2188 H   0  0  0  0  0  0  0  0  0  0  0  0
   14.8389    8.3426    3.6484 H   0  0  0  0  0  0  0  0  0  0  0  0
   12.4711    7.8390    3.7480 H   0  0  0  0  0  0  0  0  0  0  0  0
   11.2117    7.5939    1.0361 H   0  0  0  0  0  0  0  0  0  0  0  0
   11.4077    6.3669    2.3236 H   0  0  0  0  0  0  0  0  0  0  0  0
    9.0547    7.2379    1.8268 H   0  0  0  0  0  0  0  0  0  0  0  0
    9.5649    7.2656    3.5467 H   0  0  0  0  0  0  0  0  0  0  0  0
    9.7356    9.5600    1.6294 H   0  0  0  0  0  0  0  0  0  0  0  0
    7.6552    9.5149    4.8435 H   0  0  0  0  0  0  0  0  0  0  0  0
    5.3065   10.4537    1.7245 H   0  0  0  0  0  0  0  0  0  0  0  0
    2.9693   11.1301    2.6494 H   0  0  0  0  0  0  0  0  0  0  0  0
    2.9817   10.9503    5.2127 H   0  0  0  0  0  0  0  0  0  0  0  0
    5.2923   10.1545    6.0229 H   0  0  0  0  0  0  0  0  0  0  0  0
   10.1492   11.1022    3.3982 H   0  0  0  0  0  0  0  0  0  0  0  0
   10.2369    9.7340    4.5575 H   0  0  0  0  0  0  0  0  0  0  0  0
   12.4748   10.1510    3.9689 H   0  0  0  0  0  0  0  0  0  0  0  0
   12.0642   10.4412    2.2573 H   0  0  0  0  0  0  0  0  0  0  0  0
  1  2  1  0
  2  3  1  0
  2  4  1  0
  4  5  1  0
  5  6  1  0
  6  7  1  0
  7  8  1  0
  8  9  2  0
  8 10  1  0
 10 11  1  0
 11 12  1  0
 12 13  2  0
 13 14  1  0
 14 15  1  0
  7 16  1  0
 16 17  1  0
 17  4  1  0
 15 11  2  0
  1 18  1  0
  1 19  1  0
  1 20  1  0
  2 21  1  0
  3 22  1  0
  3 23  1  0
  3 24  1  0
  4 25  1  0
  5 26  1  0
  5 27  1  0
  6 28  1  0
  6 29  1  0
  7 30  1  0
 10 31  1  0
 12 32  1  0
 13 33  1  0
 14 34  1  0
 15 35  1  0
 16 36  1  0
 16 37  1  0
 17 38  1  0
 17 39  1  0
M  CHG  1   3   1
M  END
>  <EmbedRMS>  (214) 
0.3005329260886256

$$$$

     RDKit          3D

 42 42  0  0  0  0  0  0  0  0999 V2000
    8.6750    8.1658    7.0703 C   0  0  0  0  0  0  0  0  0  0  0  0
    8.3763    8.4580    5.8022 C   0  0  0  0  0  0  0  0  0  0  0  0
    7.3143    9.3915    5.3537 C   0  0  0  0  0  0  0  0  0  0  0  0
    6.4078    9.8578    6.2465 C   0  0  0  0  0  0  0  0  0  0  0  0
    5.2565   10.7471    5.8877 C   0  0  0  0  0  0  0  0  0  0  0  0
    7.1493    9.7152    3.9495 N   0  0  0  0  0  0  0  0  0  0  0  0
    7.9765    9.4983    2.7821 C   0  0  0  0  0  0  0  0  0  0  0  0
    7.4301    9.6608    1.6607 O   0  0  0  0  0  0  0  0  0  0  0  0
    9.4445    9.1811    2.6937 C   0  0  0  0  0  0  0  0  0  0  0  0
    9.7537    7.7156    2.4382 C   0  0  0  0  0  0  0  0  0  0  0  0
   11.2038    7.4507    2.0892 C   0  0  0  0  0  0  0  0  0  0  0  0
   12.2683    8.3270    2.7571 C   0  0  0  0  0  0  0  0  0  0  0  0
   13.6145    8.3244    1.9914 C   0  0  0  0  0  0  0  0  0  0  0  0
   14.0289    7.0506    1.2546 C   0  0  0  0  0  0  0  0  0  0  0  0
   14.7105    8.8911    2.7788 N   0  0  0  0  0  4  0  0  0  0  0  0
   11.8580    9.7797    3.1035 C   0  0  0  0  0  0  0  0  0  0  0  0
   10.4067   10.0105    3.5026 C   0  0  0  0  0  0  0  0  0  0  0  0
    9.4522    7.4407    7.2763 H   0  0  0  0  0  0  0  0  0  0  0  0
    8.2207    8.6429    7.9236 H   0  0  0  0  0  0  0  0  0  0  0  0
    8.9290    7.9270    5.0689 H   0  0  0  0  0  0  0  0  0  0  0  0
    6.4522    9.5905    7.2899 H   0  0  0  0  0  0  0  0  0  0  0  0
    5.6232   11.6730    5.3961 H   0  0  0  0  0  0  0  0  0  0  0  0
    4.7085   11.0385    6.8086 H   0  0  0  0  0  0  0  0  0  0  0  0
    4.5465   10.2109    5.2233 H   0  0  0  0  0  0  0  0  0  0  0  0
    6.2337   10.1339    3.6758 H   0  0  0  0  0  0  0  0  0  0  0  0
    9.6986    9.5966    1.6856 H   0  0  0  0  0  0  0  0  0  0  0  0
    9.1148    7.3426    1.6051 H   0  0  0  0  0  0  0  0  0  0  0  0
    9.4972    7.0769    3.2974 H   0  0  0  0  0  0  0  0  0  0  0  0
   11.2718    7.6249    0.9927 H   0  0  0  0  0  0  0  0  0  0  0  0
   11.4331    6.3748    2.2587 H   0  0  0  0  0  0  0  0  0  0  0  0
   12.4573    7.8339    3.7373 H   0  0  0  0  0  0  0  0  0  0  0  0
   13.4588    9.0294    1.1415 H   0  0  0  0  0  0  0  0  0  0  0  0
   14.1162    6.2135    1.9787 H   0  0  0  0  0  0  0  0  0  0  0  0
   13.3003    6.7723    0.4659 H   0  0  0  0  0  0  0  0  0  0  0  0
   15.0110    7.1880    0.7539 H   0  0  0  0  0  0  0  0  0  0  0  0
   14.5373    9.8979    2.9966 H   0  0  0  0  0  0  0  0  0  0  0  0
   15.6086    8.8475    2.2446 H   0  0  0  0  0  0  0  0  0  0  0  0
   14.8256    8.3542    3.6688 H   0  0  0  0  0  0  0  0  0  0  0  0
   12.4979   10.1655    3.9267 H   0  0  0  0  0  0  0  0  0  0  0  0
   12.0458   10.4293    2.2200 H   0  0  0  0  0  0  0  0  0  0  0  0
   10.1603   11.0919    3.4053 H   0  0  0  0  0  0  0  0  0  0  0  0
   10.3056    9.7529    4.5738 H   0  0  0  0  0  0  0  0  0  0  0  0
  1  2  2  3
  2  3  1  0
  3  4  2  3
  4  5  1  0
  3  6  1  0
  6  7  1  0
  7  8  2  0
  7  9  1  0
  9 10  1  0
 10 11  1  0
 11 12  1  0
 12 13  1  0
 13 14  1  0
 13 15  1  0
 12 16  1  0
 16 17  1  0
 17  9  1  0
  1 18  1  0
  1 19  1  0
  2 20  1  0
  4 21  1  0
  5 22  1  0
  5 23  1  0
  5 24  1  0
  6 25  1  0
  9 26  1  0
 10 27  1  0
 10 28  1  0
 11 29  1  0
 11 30  1  0
 12 31  1  0
 13 32  1  0
 14 33  1  0
 14 34  1  0
 14 35  1  0
 15 36  1  0
 15 37  1  0
 15 38  1  0
 16 39  1  0
 16 40  1  0
 17 41  1  0
 17 42  1  0
M  CHG  1  15   1
M  END
>  <EmbedRMS>  (215) 
0.29216731409503444

$$$$

     RDKit          3D

 41 42  0  0  0  0  0  0  0  0999 V2000
   14.0155    7.0452    1.2243 C   0  0  0  0  0  0  0  0  0  0  0  0
   13.6577    8.3402    1.9340 C   0  0  0  0  0  0  0  0  0  0  0  0
   14.6213    8.7734    2.9399 N   0  0  0  0  0  4  0  0  0  0  0  0
   12.1479    8.5868    2.2358 C   0  0  0  0  0  0  0  0  0  0  0  0
   11.2708    7.3634    2.5450 C   0  0  0  0  0  0  0  0  0  0  0  0
    9.7738    7.7130    2.4384 C   0  0  0  0  0  0  0  0  0  0  0  0
    9.4545    9.1902    2.6817 C   0  0  0  0  0  0  0  0  0  0  0  0
    7.9930    9.5119    2.7236 C   0  0  0  0  0  0  0  0  0  0  0  0
    7.4746    9.6077    1.5899 O   0  0  0  0  0  0  0  0  0  0  0  0
    7.1920    9.7025    3.9130 N   0  0  0  0  0  0  0  0  0  0  0  0
    5.8002   10.1396    3.9098 C   0  0  0  0  0  0  0  0  0  0  0  0
    5.1136   10.2622    5.1332 C   0  0  0  0  0  0  0  0  0  0  0  0
    3.7791   10.6918    5.1678 C   0  0  0  0  0  0  0  0  0  0  0  0
    3.1050   10.9965    3.9846 C   0  0  0  0  0  0  0  0  0  0  0  0
    3.7620   10.8848    2.7663 C   0  0  0  0  0  0  0  0  0  0  0  0
    5.0915   10.4774    2.7238 C   0  0  0  0  0  0  0  0  0  0  0  0
   10.4123   10.0785    3.4530 C   0  0  0  0  0  0  0  0  0  0  0  0
   11.8967    9.6862    3.2904 C   0  0  0  0  0  0  0  0  0  0  0  0
   13.3412    6.8748    0.3575 H   0  0  0  0  0  0  0  0  0  0  0  0
   15.0600    7.0795    0.8460 H   0  0  0  0  0  0  0  0  0  0  0  0
   13.9272    6.1936    1.9310 H   0  0  0  0  0  0  0  0  0  0  0  0
   13.8472    9.0661    1.1041 H   0  0  0  0  0  0  0  0  0  0  0  0
   14.4394    8.2635    3.8342 H   0  0  0  0  0  0  0  0  0  0  0  0
   14.5690    9.8041    3.1044 H   0  0  0  0  0  0  0  0  0  0  0  0
   15.5964    8.5564    2.6293 H   0  0  0  0  0  0  0  0  0  0  0  0
   11.7549    8.9789    1.2687 H   0  0  0  0  0  0  0  0  0  0  0  0
   11.4801    6.5302    1.8427 H   0  0  0  0  0  0  0  0  0  0  0  0
   11.5022    7.0014    3.5710 H   0  0  0  0  0  0  0  0  0  0  0  0
    9.3960    7.4069    1.4357 H   0  0  0  0  0  0  0  0  0  0  0  0
    9.2216    7.1022    3.1855 H   0  0  0  0  0  0  0  0  0  0  0  0
    9.7131    9.5882    1.6698 H   0  0  0  0  0  0  0  0  0  0  0  0
    7.6559    9.5263    4.8324 H   0  0  0  0  0  0  0  0  0  0  0  0
    5.6153   10.0259    6.0630 H   0  0  0  0  0  0  0  0  0  0  0  0
    3.2672   10.7820    6.1172 H   0  0  0  0  0  0  0  0  0  0  0  0
    2.0739   11.3242    4.0170 H   0  0  0  0  0  0  0  0  0  0  0  0
    3.2415   11.1383    1.8510 H   0  0  0  0  0  0  0  0  0  0  0  0
    5.5040   10.4952    1.7386 H   0  0  0  0  0  0  0  0  0  0  0  0
   10.1475   10.0136    4.5305 H   0  0  0  0  0  0  0  0  0  0  0  0
   10.2671   11.1433    3.1573 H   0  0  0  0  0  0  0  0  0  0  0  0
   12.4562   10.6027    3.0029 H   0  0  0  0  0  0  0  0  0  0  0  0
   12.2889    9.3466    4.2742 H   0  0  0  0  0  0  0  0  0  0  0  0
  1  2  1  0
  2  3  1  0
  2  4  1  0
  4  5  1  0
  5  6  1  0
  6  7  1  0
  7  8  1  0
  8  9  2  0
  8 10  1  0
 10 11  1  0
 11 12  2  0
 12 13  1  0
 13 14  2  0
 14 15  1  0
 15 16  2  0
  7 17  1  0
 17 18  1  0
 18  4  1  0
 16 11  1  0
  1 19  1  0
  1 20  1  0
  1 21  1  0
  2 22  1  0
  3 23  1  0
  3 24  1  0
  3 25  1  0
  4 26  1  0
  5 27  1  0
  5 28  1  0
  6 29  1  0
  6 30  1  0
  7 31  1  0
 10 32  1  0
 12 33  1  0
 13 34  1  0
 14 35  1  0
 15 36  1  0
 16 37  1  0
 17 38  1  0
 17 39  1  0
 18 40  1  0
 18 41  1  0
M  CHG  1   3   1
M  END
>  <EmbedRMS>  (216) 
0.24964892458419108

$$$$

     RDKit          3D

 38 39  0  0  0  0  0  0  0  0999 V2000
   13.9322    7.3324    1.0260 C   0  0  0  0  0  0  0  0  0  0  0  0
   13.7092    7.9151    2.4297 C   0  0  0  0  0  0  0  0  0  0  0  0
   14.6476    9.0167    2.6730 N   0  0  0  0  0  4  0  0  0  0  0  0
   12.2318    8.2991    2.7953 C   0  0  0  0  0  0  0  0  0  0  0  0
   11.1456    7.3164    2.3189 C   0  0  0  0  0  0  0  0  0  0  0  0
    9.7825    7.9370    2.0722 C   0  0  0  0  0  0  0  0  0  0  0  0
    9.4192    8.9856    3.1169 C   0  0  0  0  0  0  0  0  0  0  0  0
    8.0088    9.4683    2.8771 C   0  0  0  0  0  0  0  0  0  0  0  0
    7.6065    9.6885    1.6993 O   0  0  0  0  0  0  0  0  0  0  0  0
    7.1456    9.6969    3.9970 N   0  0  0  0  0  0  0  0  0  0  0  0
    5.7865   10.1351    3.8931 C   0  0  0  0  0  0  0  0  0  0  0  0
    5.1642   10.4075    2.7258 N   0  0  0  0  0  0  0  0  0  0  0  0
    3.9252   10.7813    3.1041 C   0  0  0  0  0  0  0  0  0  0  0  0
    3.8256   10.7274    4.4771 C   0  0  0  0  0  0  0  0  0  0  0  0
    5.0031   10.3190    4.9706 N   0  0  0  0  0  0  0  0  0  0  0  0
   10.3922   10.1688    3.0610 C   0  0  0  0  0  0  0  0  0  0  0  0
   11.8844    9.7893    2.9955 C   0  0  0  0  0  0  0  0  0  0  0  0
   13.4423    7.9752    0.2641 H   0  0  0  0  0  0  0  0  0  0  0  0
   15.0166    7.2739    0.7926 H   0  0  0  0  0  0  0  0  0  0  0  0
   13.5356    6.2978    0.9563 H   0  0  0  0  0  0  0  0  0  0  0  0
   14.0063    7.0854    3.1158 H   0  0  0  0  0  0  0  0  0  0  0  0
   14.5392    9.3815    3.6465 H   0  0  0  0  0  0  0  0  0  0  0  0
   14.5085    9.7864    1.9793 H   0  0  0  0  0  0  0  0  0  0  0  0
   15.6308    8.6701    2.5846 H   0  0  0  0  0  0  0  0  0  0  0  0
   12.2349    8.0288    3.8797 H   0  0  0  0  0  0  0  0  0  0  0  0
   11.4295    6.8349    1.3646 H   0  0  0  0  0  0  0  0  0  0  0  0
   11.0303    6.4815    3.0491 H   0  0  0  0  0  0  0  0  0  0  0  0
    9.7861    8.4059    1.0617 H   0  0  0  0  0  0  0  0  0  0  0  0
    9.0176    7.1284    2.0638 H   0  0  0  0  0  0  0  0  0  0  0  0
    9.4825    8.5137    4.1231 H   0  0  0  0  0  0  0  0  0  0  0  0
    7.5245    9.5321    4.9567 H   0  0  0  0  0  0  0  0  0  0  0  0
    3.1416   11.0755    2.4190 H   0  0  0  0  0  0  0  0  0  0  0  0
    2.9557   10.9694    5.0733 H   0  0  0  0  0  0  0  0  0  0  0  0
    5.2533   10.1770    5.9743 H   0  0  0  0  0  0  0  0  0  0  0  0
   10.2173   10.8163    3.9489 H   0  0  0  0  0  0  0  0  0  0  0  0
   10.1522   10.7900    2.1677 H   0  0  0  0  0  0  0  0  0  0  0  0
   12.3146   10.3479    2.1373 H   0  0  0  0  0  0  0  0  0  0  0  0
   12.3895   10.1915    3.9035 H   0  0  0  0  0  0  0  0  0  0  0  0
  1  2  1  0
  2  3  1  0
  2  4  1  0
  4  5  1  0
  5  6  1  0
  6  7  1  0
  7  8  1  0
  8  9  2  0
  8 10  1  0
 10 11  1  0
 11 12  2  0
 12 13  1  0
 13 14  2  0
 14 15  1  0
  7 16  1  0
 16 17  1  0
 17  4  1  0
 15 11  1  0
  1 18  1  0
  1 19  1  0
  1 20  1  0
  2 21  1  0
  3 22  1  0
  3 23  1  0
  3 24  1  0
  4 25  1  0
  5 26  1  0
  5 27  1  0
  6 28  1  0
  6 29  1  0
  7 30  1  0
 10 31  1  0
 13 32  1  0
 14 33  1  0
 15 34  1  0
 16 35  1  0
 16 36  1  0
 17 37  1  0
 17 38  1  0
M  CHG  1   3   1
M  END
>  <EmbedRMS>  (217) 
0.16863194066678772

$$$$

     RDKit          3D

 43 44  0  0  0  0  0  0  0  0999 V2000
    5.2391   10.1540    6.3867 C   0  0  0  0  0  0  0  0  0  0  0  0
    4.9552   10.3323    4.9347 C   0  0  0  0  0  0  0  0  0  0  0  0
    3.7742   10.7459    4.4332 N   0  0  0  0  0  0  0  0  0  0  0  0
    3.9346   10.7896    3.1183 N   0  0  0  0  0  0  0  0  0  0  0  0
    2.8807   11.1633    2.1862 C   0  0  0  0  0  0  0  0  0  0  0  0
    5.1474   10.4132    2.7409 N   0  0  0  0  0  0  0  0  0  0  0  0
    5.8173   10.1233    3.8752 C   0  0  0  0  0  0  0  0  0  0  0  0
    7.1999    9.6919    3.9321 N   0  0  0  0  0  0  0  0  0  0  0  0
    7.9798    9.5400    2.7260 C   0  0  0  0  0  0  0  0  0  0  0  0
    7.4216    9.6823    1.6112 O   0  0  0  0  0  0  0  0  0  0  0  0
    9.4455    9.2140    2.6478 C   0  0  0  0  0  0  0  0  0  0  0  0
    9.7323    7.7446    2.3750 C   0  0  0  0  0  0  0  0  0  0  0  0
   11.1960    7.3508    2.5415 C   0  0  0  0  0  0  0  0  0  0  0  0
   12.1801    8.5092    2.2965 C   0  0  0  0  0  0  0  0  0  0  0  0
   13.6444    7.9631    2.3852 C   0  0  0  0  0  0  0  0  0  0  0  0
   14.0262    7.2305    1.0860 C   0  0  0  0  0  0  0  0  0  0  0  0
   14.6261    9.0246    2.6472 N   0  0  0  0  0  4  0  0  0  0  0  0
   11.8948    9.6382    3.3198 C   0  0  0  0  0  0  0  0  0  0  0  0
   10.4166   10.0745    3.4334 C   0  0  0  0  0  0  0  0  0  0  0  0
    6.0522   10.8440    6.6943 H   0  0  0  0  0  0  0  0  0  0  0  0
    4.3305   10.3750    6.9853 H   0  0  0  0  0  0  0  0  0  0  0  0
    5.5532    9.1070    6.5795 H   0  0  0  0  0  0  0  0  0  0  0  0
    2.3125   10.2581    1.8874 H   0  0  0  0  0  0  0  0  0  0  0  0
    2.1894   11.8884    2.6655 H   0  0  0  0  0  0  0  0  0  0  0  0
    3.3226   11.6337    1.2824 H   0  0  0  0  0  0  0  0  0  0  0  0
    7.6489    9.5131    4.8575 H   0  0  0  0  0  0  0  0  0  0  0  0
    9.7075    9.6228    1.6396 H   0  0  0  0  0  0  0  0  0  0  0  0
    9.3943    7.4770    1.3467 H   0  0  0  0  0  0  0  0  0  0  0  0
    9.1260    7.1264    3.0734 H   0  0  0  0  0  0  0  0  0  0  0  0
   11.3420    6.9709    3.5779 H   0  0  0  0  0  0  0  0  0  0  0  0
   11.3959    6.5008    1.8583 H   0  0  0  0  0  0  0  0  0  0  0  0
   12.0091    8.9231    1.2771 H   0  0  0  0  0  0  0  0  0  0  0  0
   13.7129    7.2282    3.2201 H   0  0  0  0  0  0  0  0  0  0  0  0
   13.9560    7.9173    0.2156 H   0  0  0  0  0  0  0  0  0  0  0  0
   13.3786    6.3505    0.9046 H   0  0  0  0  0  0  0  0  0  0  0  0
   15.0694    6.8550    1.1520 H   0  0  0  0  0  0  0  0  0  0  0  0
   15.5977    8.6420    2.5846 H   0  0  0  0  0  0  0  0  0  0  0  0
   14.5251    9.7980    1.9497 H   0  0  0  0  0  0  0  0  0  0  0  0
   14.5138    9.3996    3.6161 H   0  0  0  0  0  0  0  0  0  0  0  0
   12.2353    9.3020    4.3247 H   0  0  0  0  0  0  0  0  0  0  0  0
   12.4932   10.5358    3.0530 H   0  0  0  0  0  0  0  0  0  0  0  0
   10.3136   11.1414    3.1278 H   0  0  0  0  0  0  0  0  0  0  0  0
   10.1211   10.0303    4.5042 H   0  0  0  0  0  0  0  0  0  0  0  0
  1  2  1  0
  2  3  2  0
  3  4  1  0
  4  5  1  0
  4  6  1  0
  6  7  2  0
  7  8  1  0
  8  9  1  0
  9 10  2  0
  9 11  1  0
 11 12  1  0
 12 13  1  0
 13 14  1  0
 14 15  1  0
 15 16  1  0
 15 17  1  0
 14 18  1  0
 18 19  1  0
  7  2  1  0
 19 11  1  0
  1 20  1  0
  1 21  1  0
  1 22  1  0
  5 23  1  0
  5 24  1  0
  5 25  1  0
  8 26  1  0
 11 27  1  0
 12 28  1  0
 12 29  1  0
 13 30  1  0
 13 31  1  0
 14 32  1  0
 15 33  1  0
 16 34  1  0
 16 35  1  0
 16 36  1  0
 17 37  1  0
 17 38  1  0
 17 39  1  0
 18 40  1  0
 18 41  1  0
 19 42  1  0
 19 43  1  0
M  CHG  1  17   1
M  END
>  <EmbedRMS>  (218) 
0.16952440923283876

$$$$

     RDKit          3D

 40 41  0  0  0  0  0  0  0  0999 V2000
   13.9332    7.3332    1.0251 C   0  0  0  0  0  0  0  0  0  0  0  0
   13.7125    7.9146    2.4297 C   0  0  0  0  0  0  0  0  0  0  0  0
   14.6504    9.0165    2.6726 N   0  0  0  0  0  4  0  0  0  0  0  0
   12.2364    8.2979    2.7979 C   0  0  0  0  0  0  0  0  0  0  0  0
   11.1515    7.3120    2.3262 C   0  0  0  0  0  0  0  0  0  0  0  0
    9.7912    7.9324    2.0765 C   0  0  0  0  0  0  0  0  0  0  0  0
    9.4261    8.9806    3.1220 C   0  0  0  0  0  0  0  0  0  0  0  0
    8.0225    9.4639    2.8667 C   0  0  0  0  0  0  0  0  0  0  0  0
    7.6546    9.6768    1.6802 O   0  0  0  0  0  0  0  0  0  0  0  0
    7.1435    9.7011    3.9767 N   0  0  0  0  0  0  0  0  0  0  0  0
    5.7719   10.1423    3.9218 C   0  0  0  0  0  0  0  0  0  0  0  0
    5.0682   10.2866    5.1272 C   0  0  0  0  0  0  0  0  0  0  0  0
    3.7425   10.7162    5.1245 C   0  0  0  0  0  0  0  0  0  0  0  0
    3.1199   11.0021    3.9115 C   0  0  0  0  0  0  0  0  0  0  0  0
    3.8030   10.8612    2.7487 N   0  0  0  0  0  0  0  0  0  0  0  0
    5.0935   10.4449    2.7201 C   0  0  0  0  0  0  0  0  0  0  0  0
   10.3969   10.1658    3.0679 C   0  0  0  0  0  0  0  0  0  0  0  0
   11.8884    9.7884    2.9926 C   0  0  0  0  0  0  0  0  0  0  0  0
   13.4390    7.9746    0.2649 H   0  0  0  0  0  0  0  0  0  0  0  0
   13.5402    6.2972    0.9560 H   0  0  0  0  0  0  0  0  0  0  0  0
   15.0172    7.2785    0.7884 H   0  0  0  0  0  0  0  0  0  0  0  0
   14.0108    7.0845    3.1148 H   0  0  0  0  0  0  0  0  0  0  0  0
   14.5446    9.3791    3.6472 H   0  0  0  0  0  0  0  0  0  0  0  0
   14.5091    9.7874    1.9809 H   0  0  0  0  0  0  0  0  0  0  0  0
   15.6338    8.6709    2.5809 H   0  0  0  0  0  0  0  0  0  0  0  0
   12.2424    8.0318    3.8833 H   0  0  0  0  0  0  0  0  0  0  0  0
   11.4353    6.8245    1.3751 H   0  0  0  0  0  0  0  0  0  0  0  0
   11.0353    6.4818    3.0616 H   0  0  0  0  0  0  0  0  0  0  0  0
    9.8005    8.4008    1.0657 H   0  0  0  0  0  0  0  0  0  0  0  0
    9.0262    7.1237    2.0652 H   0  0  0  0  0  0  0  0  0  0  0  0
    9.4833    8.5087    4.1284 H   0  0  0  0  0  0  0  0  0  0  0  0
    7.5457    9.5319    4.9268 H   0  0  0  0  0  0  0  0  0  0  0  0
    5.5478   10.0665    6.0729 H   0  0  0  0  0  0  0  0  0  0  0  0
    3.2017   10.8271    6.0555 H   0  0  0  0  0  0  0  0  0  0  0  0
    2.0913   11.3366    3.8945 H   0  0  0  0  0  0  0  0  0  0  0  0
    5.5409   10.3704    1.7502 H   0  0  0  0  0  0  0  0  0  0  0  0
   10.1534   10.7936    2.1801 H   0  0  0  0  0  0  0  0  0  0  0  0
   10.2256   10.8070    3.9610 H   0  0  0  0  0  0  0  0  0  0  0  0
   12.3112   10.3420    2.1274 H   0  0  0  0  0  0  0  0  0  0  0  0
   12.4001   10.1967    3.8942 H   0  0  0  0  0  0  0  0  0  0  0  0
  1  2  1  0
  2  3  1  0
  2  4  1  0
  4  5  1  0
  5  6  1  0
  6  7  1  0
  7  8  1  0
  8  9  2  0
  8 10  1  0
 10 11  1  0
 11 12  2  0
 12 13  1  0
 13 14  2  0
 14 15  1  0
 15 16  2  0
  7 17  1  0
 17 18  1  0
 18  4  1  0
 16 11  1  0
  1 19  1  0
  1 20  1  0
  1 21  1  0
  2 22  1  0
  3 23  1  0
  3 24  1  0
  3 25  1  0
  4 26  1  0
  5 27  1  0
  5 28  1  0
  6 29  1  0
  6 30  1  0
  7 31  1  0
 10 32  1  0
 12 33  1  0
 13 34  1  0
 14 35  1  0
 16 36  1  0
 17 37  1  0
 17 38  1  0
 18 39  1  0
 18 40  1  0
M  CHG  1   3   1
M  END
>  <EmbedRMS>  (219) 
0.16496192233382964

$$$$

     RDKit          3D

 43 44  0  0  0  0  0  0  0  0999 V2000
    6.8182   12.3806    2.6516 C   0  0  0  0  0  0  0  0  0  0  0  0
    5.7027   11.6009    3.2812 C   0  0  0  0  0  0  0  0  0  0  0  0
    4.4564   12.1523    3.2665 N   0  0  0  0  0  0  0  0  0  0  0  0
    3.3939   11.5610    3.8692 C   0  0  0  0  0  0  0  0  0  0  0  0
    3.5604   10.3505    4.5397 C   0  0  0  0  0  0  0  0  0  0  0  0
    4.8224    9.7473    4.5659 C   0  0  0  0  0  0  0  0  0  0  0  0
    5.9136   10.3493    3.9187 C   0  0  0  0  0  0  0  0  0  0  0  0
    7.2137    9.7053    3.9416 N   0  0  0  0  0  0  0  0  0  0  0  0
    7.9755    9.5207    2.7313 C   0  0  0  0  0  0  0  0  0  0  0  0
    7.3985    9.6417    1.6239 O   0  0  0  0  0  0  0  0  0  0  0  0
    9.4408    9.1996    2.6435 C   0  0  0  0  0  0  0  0  0  0  0  0
    9.7414    7.7250    2.5459 C   0  0  0  0  0  0  0  0  0  0  0  0
   11.1767    7.4418    2.1332 C   0  0  0  0  0  0  0  0  0  0  0  0
   12.2584    8.3277    2.7672 C   0  0  0  0  0  0  0  0  0  0  0  0
   13.5986    8.3248    1.9903 C   0  0  0  0  0  0  0  0  0  0  0  0
   14.0095    7.0513    1.2529 C   0  0  0  0  0  0  0  0  0  0  0  0
   14.7005    8.8917    2.7704 N   0  0  0  0  0  4  0  0  0  0  0  0
   11.8449    9.7807    3.1215 C   0  0  0  0  0  0  0  0  0  0  0  0
   10.3801   10.0198    3.4848 C   0  0  0  0  0  0  0  0  0  0  0  0
    6.9137   12.1158    1.5792 H   0  0  0  0  0  0  0  0  0  0  0  0
    7.7791   12.2104    3.1798 H   0  0  0  0  0  0  0  0  0  0  0  0
    6.5979   13.4673    2.7156 H   0  0  0  0  0  0  0  0  0  0  0  0
    2.4221   12.0350    3.8350 H   0  0  0  0  0  0  0  0  0  0  0  0
    2.7192    9.8781    5.0303 H   0  0  0  0  0  0  0  0  0  0  0  0
    4.9509    8.8020    5.0779 H   0  0  0  0  0  0  0  0  0  0  0  0
    7.5523    9.2594    4.8232 H   0  0  0  0  0  0  0  0  0  0  0  0
    9.7081    9.5612    1.6196 H   0  0  0  0  0  0  0  0  0  0  0  0
    9.0512    7.2347    1.8231 H   0  0  0  0  0  0  0  0  0  0  0  0
    9.5611    7.2665    3.5427 H   0  0  0  0  0  0  0  0  0  0  0  0
   11.4045    6.3686    2.3181 H   0  0  0  0  0  0  0  0  0  0  0  0
   11.2091    7.5978    1.0327 H   0  0  0  0  0  0  0  0  0  0  0  0
   12.4649    7.8404    3.7469 H   0  0  0  0  0  0  0  0  0  0  0  0
   13.4348    9.0294    1.1417 H   0  0  0  0  0  0  0  0  0  0  0  0
   14.1161    6.2184    1.9793 H   0  0  0  0  0  0  0  0  0  0  0  0
   13.2649    6.7650    0.4821 H   0  0  0  0  0  0  0  0  0  0  0  0
   14.9807    7.1942    0.7328 H   0  0  0  0  0  0  0  0  0  0  0  0
   15.5898    8.8682    2.2203 H   0  0  0  0  0  0  0  0  0  0  0  0
   14.5177    9.8919    3.0097 H   0  0  0  0  0  0  0  0  0  0  0  0
   14.8364    8.3406    3.6487 H   0  0  0  0  0  0  0  0  0  0  0  0
   12.4667   10.1533    3.9645 H   0  0  0  0  0  0  0  0  0  0  0  0
   12.0592   10.4400    2.2515 H   0  0  0  0  0  0  0  0  0  0  0  0
   10.2267    9.7387    4.5495 H   0  0  0  0  0  0  0  0  0  0  0  0
   10.1429   11.1026    3.3861 H   0  0  0  0  0  0  0  0  0  0  0  0
  1  2  1  0
  2  3  2  0
  3  4  1  0
  4  5  2  0
  5  6  1  0
  6  7  2  0
  7  8  1  0
  8  9  1  0
  9 10  2  0
  9 11  1  0
 11 12  1  0
 12 13  1  0
 13 14  1  0
 14 15  1  0
 15 16  1  0
 15 17  1  0
 14 18  1  0
 18 19  1  0
  7  2  1  0
 19 11  1  0
  1 20  1  0
  1 21  1  0
  1 22  1  0
  4 23  1  0
  5 24  1  0
  6 25  1  0
  8 26  1  0
 11 27  1  0
 12 28  1  0
 12 29  1  0
 13 30  1  0
 13 31  1  0
 14 32  1  0
 15 33  1  0
 16 34  1  0
 16 35  1  0
 16 36  1  0
 17 37  1  0
 17 38  1  0
 17 39  1  0
 18 40  1  0
 18 41  1  0
 19 42  1  0
 19 43  1  0
M  CHG  1  17   1
M  END
>  <EmbedRMS>  (220) 
0.2853630319469779

$$$$

     RDKit          3D

 43 43  0  0  0  0  0  0  0  0999 V2000
   13.9328    7.3327    1.0256 C   0  0  0  0  0  0  0  0  0  0  0  0
   13.7106    7.9150    2.4296 C   0  0  0  0  0  0  0  0  0  0  0  0
   14.6487    9.0167    2.6729 N   0  0  0  0  0  4  0  0  0  0  0  0
   12.2335    8.2987    2.7960 C   0  0  0  0  0  0  0  0  0  0  0  0
   11.1478    7.3148    2.3210 C   0  0  0  0  0  0  0  0  0  0  0  0
    9.7861    7.9355    2.0722 C   0  0  0  0  0  0  0  0  0  0  0  0
    9.4221    8.9837    3.1170 C   0  0  0  0  0  0  0  0  0  0  0  0
    8.0145    9.4662    2.8713 C   0  0  0  0  0  0  0  0  0  0  0  0
    7.6210    9.6843    1.6909 O   0  0  0  0  0  0  0  0  0  0  0  0
    7.1437    9.6979    3.9867 N   0  0  0  0  0  0  0  0  0  0  0  0
    5.7457   10.1462    3.8800 C   0  0  0  0  0  0  0  0  0  0  0  0
    4.9165    9.1275    3.0776 C   0  0  0  0  0  0  0  0  0  0  0  0
    5.1534   10.2537    5.2959 C   0  0  0  0  0  0  0  0  0  0  0  0
    5.6801   11.5317    3.2137 C   0  0  0  0  0  0  0  0  0  0  0  0
   10.3939   10.1678    3.0629 C   0  0  0  0  0  0  0  0  0  0  0  0
   11.8859    9.7890    2.9942 C   0  0  0  0  0  0  0  0  0  0  0  0
   13.4412    7.9749    0.2643 H   0  0  0  0  0  0  0  0  0  0  0  0
   13.5378    6.2975    0.9561 H   0  0  0  0  0  0  0  0  0  0  0  0
   15.0171    7.2758    0.7911 H   0  0  0  0  0  0  0  0  0  0  0  0
   14.0080    7.0851    3.1154 H   0  0  0  0  0  0  0  0  0  0  0  0
   14.5411    9.3807    3.6468 H   0  0  0  0  0  0  0  0  0  0  0  0
   14.5089    9.7867    1.9799 H   0  0  0  0  0  0  0  0  0  0  0  0
   15.6320    8.6704    2.5834 H   0  0  0  0  0  0  0  0  0  0  0  0
   12.2375    8.0299    3.8807 H   0  0  0  0  0  0  0  0  0  0  0  0
   11.4321    6.8306    1.3683 H   0  0  0  0  0  0  0  0  0  0  0  0
   11.0316    6.4819    3.0534 H   0  0  0  0  0  0  0  0  0  0  0  0
    9.7922    8.4045    1.0617 H   0  0  0  0  0  0  0  0  0  0  0  0
    9.0209    7.1271    2.0623 H   0  0  0  0  0  0  0  0  0  0  0  0
    9.4831    8.5112    4.1229 H   0  0  0  0  0  0  0  0  0  0  0  0
    7.5444    9.5331    4.9389 H   0  0  0  0  0  0  0  0  0  0  0  0
    3.8395    9.4025    3.0917 H   0  0  0  0  0  0  0  0  0  0  0  0
    5.0261    8.1122    3.5158 H   0  0  0  0  0  0  0  0  0  0  0  0
    5.2343    9.0851    2.0162 H   0  0  0  0  0  0  0  0  0  0  0  0
    5.1892    9.2679    5.8084 H   0  0  0  0  0  0  0  0  0  0  0  0
    4.0943   10.5901    5.2604 H   0  0  0  0  0  0  0  0  0  0  0  0
    5.7304   10.9832    5.9047 H   0  0  0  0  0  0  0  0  0  0  0  0
    5.9946   11.4920    2.1513 H   0  0  0  0  0  0  0  0  0  0  0  0
    6.3424   12.2468    3.7476 H   0  0  0  0  0  0  0  0  0  0  0  0
    4.6419   11.9283    3.2382 H   0  0  0  0  0  0  0  0  0  0  0  0
   10.2197   10.8123    3.9529 H   0  0  0  0  0  0  0  0  0  0  0  0
   10.1527   10.7919    2.1718 H   0  0  0  0  0  0  0  0  0  0  0  0
   12.3135   10.3458    2.1334 H   0  0  0  0  0  0  0  0  0  0  0  0
   12.3931   10.1935    3.8999 H   0  0  0  0  0  0  0  0  0  0  0  0
  1  2  1  0
  2  3  1  0
  2  4  1  0
  4  5  1  0
  5  6  1  0
  6  7  1  0
  7  8  1  0
  8  9  2  0
  8 10  1  0
 10 11  1  0
 11 12  1  0
 11 13  1  0
 11 14  1  0
  7 15  1  0
 15 16  1  0
 16  4  1  0
  1 17  1  0
  1 18  1  0
  1 19  1  0
  2 20  1  0
  3 21  1  0
  3 22  1  0
  3 23  1  0
  4 24  1  0
  5 25  1  0
  5 26  1  0
  6 27  1  0
  6 28  1  0
  7 29  1  0
 10 30  1  0
 12 31  1  0
 12 32  1  0
 12 33  1  0
 13 34  1  0
 13 35  1  0
 13 36  1  0
 14 37  1  0
 14 38  1  0
 14 39  1  0
 15 40  1  0
 15 41  1  0
 16 42  1  0
 16 43  1  0
M  CHG  1   3   1
M  END
>  <EmbedRMS>  (221) 
0.17423024192686873

$$$$

     RDKit          3D

 37 37  0  0  0  0  0  0  0  0999 V2000
    4.9010    8.9493    3.3214 C   0  0  0  0  0  0  0  0  0  0  0  0
    5.7477   10.1185    3.8091 C   0  0  0  0  0  0  0  0  0  0  0  0
    7.1378    9.7075    3.9757 N   0  0  0  0  0  0  0  0  0  0  0  0
    8.0091    9.4709    2.8632 C   0  0  0  0  0  0  0  0  0  0  0  0
    7.6090    9.6877    1.6849 O   0  0  0  0  0  0  0  0  0  0  0  0
    9.4140    8.9898    3.1084 C   0  0  0  0  0  0  0  0  0  0  0  0
    9.7981    7.9225    2.0853 C   0  0  0  0  0  0  0  0  0  0  0  0
   11.1578    7.3127    2.3960 C   0  0  0  0  0  0  0  0  0  0  0  0
   12.2752    8.3218    2.7734 C   0  0  0  0  0  0  0  0  0  0  0  0
   13.5805    8.3571    1.9538 C   0  0  0  0  0  0  0  0  0  0  0  0
   13.9836    7.0985    1.1857 C   0  0  0  0  0  0  0  0  0  0  0  0
   14.7111    8.8839    2.7305 N   0  0  0  0  0  4  0  0  0  0  0  0
   11.8317    9.7194    3.3044 C   0  0  0  0  0  0  0  0  0  0  0  0
   10.3968   10.1516    3.0079 C   0  0  0  0  0  0  0  0  0  0  0  0
    4.9738    8.1023    4.0363 H   0  0  0  0  0  0  0  0  0  0  0  0
    5.2401    8.6114    2.3200 H   0  0  0  0  0  0  0  0  0  0  0  0
    3.8390    9.2647    3.2475 H   0  0  0  0  0  0  0  0  0  0  0  0
    5.6836   10.9644    3.0910 H   0  0  0  0  0  0  0  0  0  0  0  0
    5.3476   10.4660    4.7862 H   0  0  0  0  0  0  0  0  0  0  0  0
    7.5181    9.6307    4.9461 H   0  0  0  0  0  0  0  0  0  0  0  0
    9.4709    8.5475    4.1287 H   0  0  0  0  0  0  0  0  0  0  0  0
    9.8276    8.3613    1.0624 H   0  0  0  0  0  0  0  0  0  0  0  0
    9.0349    7.1124    2.0811 H   0  0  0  0  0  0  0  0  0  0  0  0
   11.0040    6.5968    3.2371 H   0  0  0  0  0  0  0  0  0  0  0  0
   11.4410    6.6836    1.5321 H   0  0  0  0  0  0  0  0  0  0  0  0
   12.6575    7.8399    3.7045 H   0  0  0  0  0  0  0  0  0  0  0  0
   13.3805    9.1010    1.1485 H   0  0  0  0  0  0  0  0  0  0  0  0
   15.0000    7.2116    0.7521 H   0  0  0  0  0  0  0  0  0  0  0  0
   13.2924    6.9108    0.3375 H   0  0  0  0  0  0  0  0  0  0  0  0
   13.9867    6.2216    1.8670 H   0  0  0  0  0  0  0  0  0  0  0  0
   14.9942    8.1900    3.4603 H   0  0  0  0  0  0  0  0  0  0  0  0
   14.4920    9.7901    3.1973 H   0  0  0  0  0  0  0  0  0  0  0  0
   15.5287    9.0531    2.1001 H   0  0  0  0  0  0  0  0  0  0  0  0
   12.4766   10.5261    2.8979 H   0  0  0  0  0  0  0  0  0  0  0  0
   11.9658    9.7500    4.4102 H   0  0  0  0  0  0  0  0  0  0  0  0
   10.3549   10.5873    1.9838 H   0  0  0  0  0  0  0  0  0  0  0  0
   10.1049   10.9541    3.7216 H   0  0  0  0  0  0  0  0  0  0  0  0
  1  2  1  0
  2  3  1  0
  3  4  1  0
  4  5  2  0
  4  6  1  0
  6  7  1  0
  7  8  1  0
  8  9  1  0
  9 10  1  0
 10 11  1  0
 10 12  1  0
  9 13  1  0
 13 14  1  0
 14  6  1  0
  1 15  1  0
  1 16  1  0
  1 17  1  0
  2 18  1  0
  2 19  1  0
  3 20  1  0
  6 21  1  0
  7 22  1  0
  7 23  1  0
  8 24  1  0
  8 25  1  0
  9 26  1  0
 10 27  1  0
 11 28  1  0
 11 29  1  0
 11 30  1  0
 12 31  1  0
 12 32  1  0
 12 33  1  0
 13 34  1  0
 13 35  1  0
 14 36  1  0
 14 37  1  0
M  CHG  1  12   1
M  END
>  <EmbedRMS>  (222) 
0.22880006867790334

$$$$

     RDKit          3D

 45 45  0  0  0  0  0  0  0  0999 V2000
    6.6426   12.2821    2.6516 C   0  0  0  0  0  0  0  0  0  0  0  0
    5.6157   11.5113    3.0196 C   0  0  0  0  0  0  0  0  0  0  0  0
    4.2139   11.9100    2.6324 C   0  0  0  0  0  0  0  0  0  0  0  0
    5.8597   10.3523    3.9284 C   0  0  0  0  0  0  0  0  0  0  0  0
    4.8899    9.9517    4.7721 C   0  0  0  0  0  0  0  0  0  0  0  0
    5.0638    8.8198    5.7367 C   0  0  0  0  0  0  0  0  0  0  0  0
    7.1587    9.7297    4.0017 N   0  0  0  0  0  0  0  0  0  0  0  0
    8.0094    9.4770    2.8770 C   0  0  0  0  0  0  0  0  0  0  0  0
    7.5925    9.6699    1.6995 O   0  0  0  0  0  0  0  0  0  0  0  0
    9.4190    8.9882    3.1140 C   0  0  0  0  0  0  0  0  0  0  0  0
    9.7814    7.9392    2.0698 C   0  0  0  0  0  0  0  0  0  0  0  0
   11.1442    7.3173    2.3173 C   0  0  0  0  0  0  0  0  0  0  0  0
   12.2312    8.2990    2.7947 C   0  0  0  0  0  0  0  0  0  0  0  0
   13.7088    7.9146    2.4295 C   0  0  0  0  0  0  0  0  0  0  0  0
   13.9319    7.3320    1.0257 C   0  0  0  0  0  0  0  0  0  0  0  0
   14.6475    9.0159    2.6730 N   0  0  0  0  0  4  0  0  0  0  0  0
   11.8850    9.7892    2.9963 C   0  0  0  0  0  0  0  0  0  0  0  0
   10.3931   10.1701    3.0593 C   0  0  0  0  0  0  0  0  0  0  0  0
    6.5060   13.1634    2.0375 H   0  0  0  0  0  0  0  0  0  0  0  0
    6.5060   13.1634    2.0375 H   0  0  0  0  0  0  0  0  0  0  0  0
    4.2031   12.4754    1.6757 H   0  0  0  0  0  0  0  0  0  0  0  0
    3.5836   11.0078    2.4847 H   0  0  0  0  0  0  0  0  0  0  0  0
    3.7720   12.5450    3.4286 H   0  0  0  0  0  0  0  0  0  0  0  0
    3.9254   10.4428    4.7786 H   0  0  0  0  0  0  0  0  0  0  0  0
    5.3803    7.9015    5.1981 H   0  0  0  0  0  0  0  0  0  0  0  0
    5.8159    9.0848    6.5090 H   0  0  0  0  0  0  0  0  0  0  0  0
    4.0999    8.6139    6.2477 H   0  0  0  0  0  0  0  0  0  0  0  0
    7.5134    9.4348    4.9389 H   0  0  0  0  0  0  0  0  0  0  0  0
    9.4838    8.5152    4.1195 H   0  0  0  0  0  0  0  0  0  0  0  0
    9.7856    8.4081    1.0593 H   0  0  0  0  0  0  0  0  0  0  0  0
    9.0155    7.1315    2.0616 H   0  0  0  0  0  0  0  0  0  0  0  0
   11.4284    6.8358    1.3632 H   0  0  0  0  0  0  0  0  0  0  0  0
   11.0277    6.4824    3.0472 H   0  0  0  0  0  0  0  0  0  0  0  0
   12.2338    8.0276    3.8788 H   0  0  0  0  0  0  0  0  0  0  0  0
   14.0054    7.0847    3.1155 H   0  0  0  0  0  0  0  0  0  0  0  0
   13.5346    6.2977    0.9557 H   0  0  0  0  0  0  0  0  0  0  0  0
   13.4427    7.9752    0.2638 H   0  0  0  0  0  0  0  0  0  0  0  0
   15.0164    7.2729    0.7928 H   0  0  0  0  0  0  0  0  0  0  0  0
   14.5093    9.7854    1.9790 H   0  0  0  0  0  0  0  0  0  0  0  0
   14.5387    9.3811    3.6464 H   0  0  0  0  0  0  0  0  0  0  0  0
   15.6306    8.6688    2.5853 H   0  0  0  0  0  0  0  0  0  0  0  0
   12.3172   10.3488    2.1397 H   0  0  0  0  0  0  0  0  0  0  0  0
   12.3886   10.1897    3.9059 H   0  0  0  0  0  0  0  0  0  0  0  0
   10.1546   10.7911    2.1654 H   0  0  0  0  0  0  0  0  0  0  0  0
   10.2174   10.8183    3.9465 H   0  0  0  0  0  0  0  0  0  0  0  0
  1  2  2  3
  2  3  1  0
  2  4  1  0
  4  5  2  3
  5  6  1  0
  4  7  1  0
  7  8  1  0
  8  9  2  0
  8 10  1  0
 10 11  1  0
 11 12  1  0
 12 13  1  0
 13 14  1  0
 14 15  1  0
 14 16  1  0
 13 17  1  0
 17 18  1  0
 18 10  1  0
  1 19  1  0
  1 20  1  0
  3 21  1  0
  3 22  1  0
  3 23  1  0
  5 24  1  0
  6 25  1  0
  6 26  1  0
  6 27  1  0
  7 28  1  0
 10 29  1  0
 11 30  1  0
 11 31  1  0
 12 32  1  0
 12 33  1  0
 13 34  1  0
 14 35  1  0
 15 36  1  0
 15 37  1  0
 15 38  1  0
 16 39  1  0
 16 40  1  0
 16 41  1  0
 17 42  1  0
 17 43  1  0
 18 44  1  0
 18 45  1  0
M  CHG  1  16   1
M  END
>  <EmbedRMS>  (223) 
0.16480955270904202

$$$$

     RDKit          3D

 38 39  0  0  0  0  0  0  0  0999 V2000
   14.0142    7.0451    1.2245 C   0  0  0  0  0  0  0  0  0  0  0  0
   13.6557    8.3401    1.9337 C   0  0  0  0  0  0  0  0  0  0  0  0
   14.6190    8.7738    2.9398 N   0  0  0  0  0  4  0  0  0  0  0  0
   12.1451    8.5868    2.2344 C   0  0  0  0  0  0  0  0  0  0  0  0
   11.2669    7.3638    2.5428 C   0  0  0  0  0  0  0  0  0  0  0  0
    9.7689    7.7135    2.4365 C   0  0  0  0  0  0  0  0  0  0  0  0
    9.4482    9.1916    2.6730 C   0  0  0  0  0  0  0  0  0  0  0  0
    7.9854    9.5168    2.7280 C   0  0  0  0  0  0  0  0  0  0  0  0
    7.4476    9.6497    1.6042 O   0  0  0  0  0  0  0  0  0  0  0  0
    7.1967    9.6902    3.9238 N   0  0  0  0  0  0  0  0  0  0  0  0
    5.8140   10.1260    3.8868 C   0  0  0  0  0  0  0  0  0  0  0  0
    5.0545   10.4496    2.7664 C   0  0  0  0  0  0  0  0  0  0  0  0
    3.8271   10.8081    3.2755 C   0  0  0  0  0  0  0  0  0  0  0  0
    3.8482   10.7101    4.6184 N   0  0  0  0  0  0  0  0  0  0  0  0
    5.0530   10.2974    4.9825 N   0  0  0  0  0  0  0  0  0  0  0  0
   10.4083   10.0800    3.4444 C   0  0  0  0  0  0  0  0  0  0  0  0
   11.8930    9.6854    3.2885 C   0  0  0  0  0  0  0  0  0  0  0  0
   13.3404    6.8744    0.3573 H   0  0  0  0  0  0  0  0  0  0  0  0
   13.9255    6.1936    1.9314 H   0  0  0  0  0  0  0  0  0  0  0  0
   15.0589    7.0794    0.8469 H   0  0  0  0  0  0  0  0  0  0  0  0
   13.8452    9.0657    1.1037 H   0  0  0  0  0  0  0  0  0  0  0  0
   14.5671    9.8047    3.1032 H   0  0  0  0  0  0  0  0  0  0  0  0
   14.4362    8.2650    3.8345 H   0  0  0  0  0  0  0  0  0  0  0  0
   15.5942    8.5560    2.6301 H   0  0  0  0  0  0  0  0  0  0  0  0
   11.7520    8.9796    1.2676 H   0  0  0  0  0  0  0  0  0  0  0  0
   11.4983    7.0008    3.5684 H   0  0  0  0  0  0  0  0  0  0  0  0
   11.4763    6.5312    1.8399 H   0  0  0  0  0  0  0  0  0  0  0  0
    9.2177    7.1062    3.1872 H   0  0  0  0  0  0  0  0  0  0  0  0
    9.3892    7.4027    1.4360 H   0  0  0  0  0  0  0  0  0  0  0  0
    9.6988    9.5859    1.6580 H   0  0  0  0  0  0  0  0  0  0  0  0
    7.6443    9.5144    4.8506 H   0  0  0  0  0  0  0  0  0  0  0  0
    5.3043   10.4566    1.7182 H   0  0  0  0  0  0  0  0  0  0  0  0
    2.9678   11.1283    2.7017 H   0  0  0  0  0  0  0  0  0  0  0  0
    5.3462   10.1380    5.9717 H   0  0  0  0  0  0  0  0  0  0  0  0
   10.2663   11.1438    3.1439 H   0  0  0  0  0  0  0  0  0  0  0  0
   10.1405   10.0203    4.5214 H   0  0  0  0  0  0  0  0  0  0  0  0
   12.2805    9.3441    4.2736 H   0  0  0  0  0  0  0  0  0  0  0  0
   12.4551   10.6011    3.0042 H   0  0  0  0  0  0  0  0  0  0  0  0
  1  2  1  0
  2  3  1  0
  2  4  1  0
  4  5  1  0
  5  6  1  0
  6  7  1  0
  7  8  1  0
  8  9  2  0
  8 10  1  0
 10 11  1  0
 11 12  2  0
 12 13  1  0
 13 14  2  0
 14 15  1  0
  7 16  1  0
 16 17  1  0
 17  4  1  0
 15 11  1  0
  1 18  1  0
  1 19  1  0
  1 20  1  0
  2 21  1  0
  3 22  1  0
  3 23  1  0
  3 24  1  0
  4 25  1  0
  5 26  1  0
  5 27  1  0
  6 28  1  0
  6 29  1  0
  7 30  1  0
 10 31  1  0
 12 32  1  0
 13 33  1  0
 15 34  1  0
 16 35  1  0
 16 36  1  0
 17 37  1  0
 17 38  1  0
M  CHG  1   3   1
M  END
>  <EmbedRMS>  (224) 
0.2562538106174641

$$$$

     RDKit          3D

 34 34  0  0  0  0  0  0  0  0999 V2000
    5.8329   10.1084    3.8848 C   0  0  0  0  0  0  0  0  0  0  0  0
    7.2300    9.6721    3.9456 N   0  0  0  0  0  0  0  0  0  0  0  0
    7.9825    9.5176    2.7336 C   0  0  0  0  0  0  0  0  0  0  0  0
    7.4038    9.6808    1.6309 O   0  0  0  0  0  0  0  0  0  0  0  0
    9.4450    9.1949    2.6523 C   0  0  0  0  0  0  0  0  0  0  0  0
    9.7659    7.7145    2.4310 C   0  0  0  0  0  0  0  0  0  0  0  0
   11.2645    7.3643    2.5394 C   0  0  0  0  0  0  0  0  0  0  0  0
   12.1440    8.5865    2.2316 C   0  0  0  0  0  0  0  0  0  0  0  0
   13.6550    8.3396    1.9330 C   0  0  0  0  0  0  0  0  0  0  0  0
   14.0142    7.0445    1.2245 C   0  0  0  0  0  0  0  0  0  0  0  0
   14.6175    8.7737    2.9400 N   0  0  0  0  0  4  0  0  0  0  0  0
   11.8902    9.6847    3.2842 C   0  0  0  0  0  0  0  0  0  0  0  0
   10.4057   10.0818    3.4290 C   0  0  0  0  0  0  0  0  0  0  0  0
    5.7674   11.1015    3.3922 H   0  0  0  0  0  0  0  0  0  0  0  0
    5.4215   10.1915    4.9127 H   0  0  0  0  0  0  0  0  0  0  0  0
    5.2299    9.3684    3.3173 H   0  0  0  0  0  0  0  0  0  0  0  0
    7.6848    9.4991    4.8697 H   0  0  0  0  0  0  0  0  0  0  0  0
    9.6804    9.5858    1.6329 H   0  0  0  0  0  0  0  0  0  0  0  0
    9.2153    7.1145    3.1879 H   0  0  0  0  0  0  0  0  0  0  0  0
    9.3849    7.3947    1.4340 H   0  0  0  0  0  0  0  0  0  0  0  0
   11.4945    7.0012    3.5653 H   0  0  0  0  0  0  0  0  0  0  0  0
   11.4746    6.5314    1.8369 H   0  0  0  0  0  0  0  0  0  0  0  0
   11.7511    8.9795    1.2646 H   0  0  0  0  0  0  0  0  0  0  0  0
   13.8453    9.0650    1.1029 H   0  0  0  0  0  0  0  0  0  0  0  0
   15.0594    7.0787    0.8480 H   0  0  0  0  0  0  0  0  0  0  0  0
   13.3413    6.8737    0.3566 H   0  0  0  0  0  0  0  0  0  0  0  0
   13.9245    6.1932    1.9314 H   0  0  0  0  0  0  0  0  0  0  0  0
   15.5929    8.5546    2.6319 H   0  0  0  0  0  0  0  0  0  0  0  0
   14.5663    9.8048    3.1021 H   0  0  0  0  0  0  0  0  0  0  0  0
   14.4328    8.2662    3.8350 H   0  0  0  0  0  0  0  0  0  0  0  0
   12.2711    9.3420    4.2714 H   0  0  0  0  0  0  0  0  0  0  0  0
   12.4559   10.5993    3.0033 H   0  0  0  0  0  0  0  0  0  0  0  0
   10.1327   10.0263    4.5050 H   0  0  0  0  0  0  0  0  0  0  0  0
   10.2681   11.1447    3.1242 H   0  0  0  0  0  0  0  0  0  0  0  0
  1  2  1  0
  2  3  1  0
  3  4  2  0
  3  5  1  0
  5  6  1  0
  6  7  1  0
  7  8  1  0
  8  9  1  0
  9 10  1  0
  9 11  1  0
  8 12  1  0
 12 13  1  0
 13  5  1  0
  1 14  1  0
  1 15  1  0
  1 16  1  0
  2 17  1  0
  5 18  1  0
  6 19  1  0
  6 20  1  0
  7 21  1  0
  7 22  1  0
  8 23  1  0
  9 24  1  0
 10 25  1  0
 10 26  1  0
 10 27  1  0
 11 28  1  0
 11 29  1  0
 11 30  1  0
 12 31  1  0
 12 32  1  0
 13 33  1  0
 13 34  1  0
M  CHG  1  11   1
M  END
>  <EmbedRMS>  (225) 
0.29639754771625826

$$$$

     RDKit          3D

 37 38  0  0  0  0  0  0  0  0999 V2000
   13.9235    7.3287    1.0383 C   0  0  0  0  0  0  0  0  0  0  0  0
   13.7098    7.9211    2.4415 C   0  0  0  0  0  0  0  0  0  0  0  0
   14.6443    9.0272    2.6694 N   0  0  0  0  0  4  0  0  0  0  0  0
   12.2325    8.2929    2.8236 C   0  0  0  0  0  0  0  0  0  0  0  0
   11.1771    7.4148    2.1531 C   0  0  0  0  0  0  0  0  0  0  0  0
    9.7401    7.7207    2.5441 C   0  0  0  0  0  0  0  0  0  0  0  0
    9.4572    9.2004    2.6440 C   0  0  0  0  0  0  0  0  0  0  0  0
    7.9962    9.5344    2.7137 C   0  0  0  0  0  0  0  0  0  0  0  0
    7.4604    9.6567    1.5906 O   0  0  0  0  0  0  0  0  0  0  0  0
    7.2001    9.7023    3.9071 N   0  0  0  0  0  0  0  0  0  0  0  0
    5.8435   10.1214    3.8525 N   0  0  0  0  0  0  0  0  0  0  0  0
    5.0825   10.4462    2.7798 C   0  0  0  0  0  0  0  0  0  0  0  0
    3.8482   10.8133    3.1585 N   0  0  0  0  0  0  0  0  0  0  0  0
    3.8053   10.7315    4.4798 N   0  0  0  0  0  0  0  0  0  0  0  0
    5.0182   10.3131    4.8968 C   0  0  0  0  0  0  0  0  0  0  0  0
   10.4286   10.0498    3.4285 C   0  0  0  0  0  0  0  0  0  0  0  0
   11.8822    9.7839    3.0040 C   0  0  0  0  0  0  0  0  0  0  0  0
   15.0004    7.1195    0.8638 H   0  0  0  0  0  0  0  0  0  0  0  0
   13.3795    6.3678    0.9251 H   0  0  0  0  0  0  0  0  0  0  0  0
   13.5723    8.0453    0.2658 H   0  0  0  0  0  0  0  0  0  0  0  0
   14.0150    7.0969    3.1295 H   0  0  0  0  0  0  0  0  0  0  0  0
   15.6249    8.7102    2.4892 H   0  0  0  0  0  0  0  0  0  0  0  0
   14.6024    9.3360    3.6673 H   0  0  0  0  0  0  0  0  0  0  0  0
   14.4334    9.8284    2.0313 H   0  0  0  0  0  0  0  0  0  0  0  0
   12.1676    7.9479    3.8829 H   0  0  0  0  0  0  0  0  0  0  0  0
   11.2471    7.5647    1.0541 H   0  0  0  0  0  0  0  0  0  0  0  0
   11.3852    6.3414    2.3596 H   0  0  0  0  0  0  0  0  0  0  0  0
    9.5379    7.2639    3.5375 H   0  0  0  0  0  0  0  0  0  0  0  0
    9.0540    7.2402    1.8107 H   0  0  0  0  0  0  0  0  0  0  0  0
    9.7241    9.5327    1.6088 H   0  0  0  0  0  0  0  0  0  0  0  0
    7.6472    9.5316    4.8355 H   0  0  0  0  0  0  0  0  0  0  0  0
    5.3730   10.4515    1.7450 H   0  0  0  0  0  0  0  0  0  0  0  0
    5.2883   10.1560    5.9328 H   0  0  0  0  0  0  0  0  0  0  0  0
   10.3163    9.8079    4.5076 H   0  0  0  0  0  0  0  0  0  0  0  0
   10.1946   11.1292    3.2942 H   0  0  0  0  0  0  0  0  0  0  0  0
   12.5435   10.2587    3.7593 H   0  0  0  0  0  0  0  0  0  0  0  0
   12.0584   10.2977    2.0341 H   0  0  0  0  0  0  0  0  0  0  0  0
  1  2  1  0
  2  3  1  0
  2  4  1  0
  4  5  1  0
  5  6  1  0
  6  7  1  0
  7  8  1  0
  8  9  2  0
  8 10  1  0
 10 11  1  0
 11 12  1  0
 12 13  2  0
 13 14  1  0
 14 15  2  0
  7 16  1  0
 16 17  1  0
 17  4  1  0
 15 11  1  0
  1 18  1  0
  1 19  1  0
  1 20  1  0
  2 21  1  0
  3 22  1  0
  3 23  1  0
  3 24  1  0
  4 25  1  0
  5 26  1  0
  5 27  1  0
  6 28  1  0
  6 29  1  0
  7 30  1  0
 10 31  1  0
 12 32  1  0
 15 33  1  0
 16 34  1  0
 16 35  1  0
 17 36  1  0
 17 37  1  0
M  CHG  1   3   1
M  END
>  <EmbedRMS>  (226) 
0.2678703586981328

$$$$

     RDKit          3D

 43 43  0  0  0  0  0  0  0  0999 V2000
    5.1668   10.8957    4.9912 C   0  0  0  0  0  0  0  0  0  0  0  0
    5.8564    9.7580    4.2807 C   0  0  0  0  0  0  0  0  0  0  0  0
    4.9783    8.9456    3.3204 C   0  0  0  0  0  0  0  0  0  0  0  0
    4.7804    7.6252    3.9182 N   0  0  0  0  0  4  0  0  0  0  0  0
    7.2447   10.0138    3.9239 N   0  0  0  0  0  0  0  0  0  0  0  0
    8.0000    9.4904    2.8323 C   0  0  0  0  0  0  0  0  0  0  0  0
    7.5842    9.6383    1.6525 O   0  0  0  0  0  0  0  0  0  0  0  0
    9.4014    8.9926    3.0914 C   0  0  0  0  0  0  0  0  0  0  0  0
    9.7947    7.9198    2.0778 C   0  0  0  0  0  0  0  0  0  0  0  0
   11.1535    7.3108    2.4002 C   0  0  0  0  0  0  0  0  0  0  0  0
   12.2723    8.3197    2.7746 C   0  0  0  0  0  0  0  0  0  0  0  0
   13.5774    8.3573    1.9538 C   0  0  0  0  0  0  0  0  0  0  0  0
   13.9808    7.0995    1.1846 C   0  0  0  0  0  0  0  0  0  0  0  0
   14.7089    8.8835    2.7299 N   0  0  0  0  0  4  0  0  0  0  0  0
   11.8264    9.7140    3.3094 C   0  0  0  0  0  0  0  0  0  0  0  0
   10.3953   10.1493    2.9997 C   0  0  0  0  0  0  0  0  0  0  0  0
    4.2075   10.5564    5.4401 H   0  0  0  0  0  0  0  0  0  0  0  0
    5.8088   11.3084    5.7999 H   0  0  0  0  0  0  0  0  0  0  0  0
    4.9520   11.7071    4.2645 H   0  0  0  0  0  0  0  0  0  0  0  0
    6.0022    9.1004    5.1700 H   0  0  0  0  0  0  0  0  0  0  0  0
    5.4277    8.8350    2.3161 H   0  0  0  0  0  0  0  0  0  0  0  0
    3.9901    9.4381    3.1800 H   0  0  0  0  0  0  0  0  0  0  0  0
    4.1963    7.0514    3.2679 H   0  0  0  0  0  0  0  0  0  0  0  0
    5.6960    7.1337    4.0459 H   0  0  0  0  0  0  0  0  0  0  0  0
    4.2675    7.6990    4.8280 H   0  0  0  0  0  0  0  0  0  0  0  0
    7.8180   10.4539    4.6803 H   0  0  0  0  0  0  0  0  0  0  0  0
    9.4356    8.5554    4.1150 H   0  0  0  0  0  0  0  0  0  0  0  0
    9.0308    7.1105    2.0724 H   0  0  0  0  0  0  0  0  0  0  0  0
    9.8316    8.3538    1.0532 H   0  0  0  0  0  0  0  0  0  0  0  0
   10.9935    6.6036    3.2475 H   0  0  0  0  0  0  0  0  0  0  0  0
   11.4402    6.6723    1.5444 H   0  0  0  0  0  0  0  0  0  0  0  0
   12.6576    7.8367    3.7038 H   0  0  0  0  0  0  0  0  0  0  0  0
   13.3761    9.1020    1.1497 H   0  0  0  0  0  0  0  0  0  0  0  0
   13.2861    6.9098    0.3396 H   0  0  0  0  0  0  0  0  0  0  0  0
   14.9950    7.2152    0.7465 H   0  0  0  0  0  0  0  0  0  0  0  0
   13.9888    6.2228    1.8662 H   0  0  0  0  0  0  0  0  0  0  0  0
   14.9930    8.1889    3.4587 H   0  0  0  0  0  0  0  0  0  0  0  0
   14.4905    9.7892    3.1981 H   0  0  0  0  0  0  0  0  0  0  0  0
   15.5258    9.0535    2.0989 H   0  0  0  0  0  0  0  0  0  0  0  0
   12.4765   10.5226    2.9154 H   0  0  0  0  0  0  0  0  0  0  0  0
   11.9475    9.7370    4.4168 H   0  0  0  0  0  0  0  0  0  0  0  0
   10.3649   10.5830    1.9744 H   0  0  0  0  0  0  0  0  0  0  0  0
   10.1043   10.9570    3.7074 H   0  0  0  0  0  0  0  0  0  0  0  0
  1  2  1  0
  2  3  1  0
  3  4  1  0
  2  5  1  0
  5  6  1  0
  6  7  2  0
  6  8  1  0
  8  9  1  0
  9 10  1  0
 10 11  1  0
 11 12  1  0
 12 13  1  0
 12 14  1  0
 11 15  1  0
 15 16  1  0
 16  8  1  0
  1 17  1  0
  1 18  1  0
  1 19  1  0
  2 20  1  0
  3 21  1  0
  3 22  1  0
  4 23  1  0
  4 24  1  0
  4 25  1  0
  5 26  1  0
  8 27  1  0
  9 28  1  0
  9 29  1  0
 10 30  1  0
 10 31  1  0
 11 32  1  0
 12 33  1  0
 13 34  1  0
 13 35  1  0
 13 36  1  0
 14 37  1  0
 14 38  1  0
 14 39  1  0
 15 40  1  0
 15 41  1  0
 16 42  1  0
 16 43  1  0
M  CHG  2   4   1  14   1
M  END
>  <EmbedRMS>  (227) 
0.3005344476337905

$$$$

     RDKit          3D

 41 41  0  0  0  0  0  0  0  0999 V2000
    5.6637   11.5141    5.8986 C   0  0  0  0  0  0  0  0  0  0  0  0
    5.1208   10.2845    5.1719 C   0  0  0  0  0  0  0  0  0  0  0  0
    3.3231   10.4802    4.9168 S   0  0  0  0  0  0  0  0  0  0  0  0
    5.8045   10.0983    3.8148 C   0  0  0  0  0  0  0  0  0  0  0  0
    7.2122    9.6835    3.9371 N   0  0  0  0  0  0  0  0  0  0  0  0
    7.9816    9.5187    2.7342 C   0  0  0  0  0  0  0  0  0  0  0  0
    7.4140    9.6757    1.6243 O   0  0  0  0  0  0  0  0  0  0  0  0
    9.4445    9.1939    2.6618 C   0  0  0  0  0  0  0  0  0  0  0  0
    9.7658    7.7145    2.4336 C   0  0  0  0  0  0  0  0  0  0  0  0
   11.2644    7.3644    2.5406 C   0  0  0  0  0  0  0  0  0  0  0  0
   12.1435    8.5869    2.2328 C   0  0  0  0  0  0  0  0  0  0  0  0
   13.6545    8.3400    1.9333 C   0  0  0  0  0  0  0  0  0  0  0  0
   14.0136    7.0449    1.2245 C   0  0  0  0  0  0  0  0  0  0  0  0
   14.6175    8.7740    2.9398 N   0  0  0  0  0  4  0  0  0  0  0  0
   11.8904    9.6848    3.2863 C   0  0  0  0  0  0  0  0  0  0  0  0
   10.4059   10.0816    3.4352 C   0  0  0  0  0  0  0  0  0  0  0  0
    5.1631   11.6240    6.8838 H   0  0  0  0  0  0  0  0  0  0  0  0
    5.4826   12.4339    5.3021 H   0  0  0  0  0  0  0  0  0  0  0  0
    6.7543   11.4121    6.0792 H   0  0  0  0  0  0  0  0  0  0  0  0
    5.2896    9.3801    5.7963 H   0  0  0  0  0  0  0  0  0  0  0  0
    3.0332   10.3754    6.2909 H   0  0  0  0  0  0  0  0  0  0  0  0
    5.7438   11.0461    3.2349 H   0  0  0  0  0  0  0  0  0  0  0  0
    5.2576    9.3146    3.2456 H   0  0  0  0  0  0  0  0  0  0  0  0
    7.6555    9.5107    4.8670 H   0  0  0  0  0  0  0  0  0  0  0  0
    9.6838    9.5860    1.6436 H   0  0  0  0  0  0  0  0  0  0  0  0
    9.3850    7.3986    1.4352 H   0  0  0  0  0  0  0  0  0  0  0  0
    9.2152    7.1113    3.1879 H   0  0  0  0  0  0  0  0  0  0  0  0
   11.4952    7.0009    3.5662 H   0  0  0  0  0  0  0  0  0  0  0  0
   11.4740    6.5319    1.8376 H   0  0  0  0  0  0  0  0  0  0  0  0
   11.7501    8.9804    1.2662 H   0  0  0  0  0  0  0  0  0  0  0  0
   13.8443    9.0654    1.1032 H   0  0  0  0  0  0  0  0  0  0  0  0
   13.9242    6.1935    1.9314 H   0  0  0  0  0  0  0  0  0  0  0  0
   13.3404    6.8741    0.3569 H   0  0  0  0  0  0  0  0  0  0  0  0
   15.0586    7.0791    0.8477 H   0  0  0  0  0  0  0  0  0  0  0  0
   14.4337    8.2660    3.8347 H   0  0  0  0  0  0  0  0  0  0  0  0
   14.5659    9.8050    3.1025 H   0  0  0  0  0  0  0  0  0  0  0  0
   15.5928    8.5555    2.6310 H   0  0  0  0  0  0  0  0  0  0  0  0
   12.2735    9.3421    4.2727 H   0  0  0  0  0  0  0  0  0  0  0  0
   12.4551   10.5999    3.0047 H   0  0  0  0  0  0  0  0  0  0  0  0
   10.2669   11.1446    3.1312 H   0  0  0  0  0  0  0  0  0  0  0  0
   10.1346   10.0257    4.5117 H   0  0  0  0  0  0  0  0  0  0  0  0
  1  2  1  0
  2  3  1  0
  2  4  1  0
  4  5  1  0
  5  6  1  0
  6  7  2  0
  6  8  1  0
  8  9  1  0
  9 10  1  0
 10 11  1  0
 11 12  1  0
 12 13  1  0
 12 14  1  0
 11 15  1  0
 15 16  1  0
 16  8  1  0
  1 17  1  0
  1 18  1  0
  1 19  1  0
  2 20  1  0
  3 21  1  0
  4 22  1  0
  4 23  1  0
  5 24  1  0
  8 25  1  0
  9 26  1  0
  9 27  1  0
 10 28  1  0
 10 29  1  0
 11 30  1  0
 12 31  1  0
 13 32  1  0
 13 33  1  0
 13 34  1  0
 14 35  1  0
 14 36  1  0
 14 37  1  0
 15 38  1  0
 15 39  1  0
 16 40  1  0
 16 41  1  0
M  CHG  1  14   1
M  END
>  <EmbedRMS>  (228) 
0.26514690107460426

$$$$

     RDKit          3D

 40 41  0  0  0  0  0  0  0  0999 V2000
    2.6583   11.2404    2.4951 C   0  0  0  0  0  0  0  0  0  0  0  0
    3.8386   10.7880    3.2875 C   0  0  0  0  0  0  0  0  0  0  0  0
    5.0597   10.4456    2.7644 C   0  0  0  0  0  0  0  0  0  0  0  0
    5.8177   10.1284    3.8853 C   0  0  0  0  0  0  0  0  0  0  0  0
    7.2008    9.6935    3.9209 N   0  0  0  0  0  0  0  0  0  0  0  0
    7.9903    9.5270    2.7221 C   0  0  0  0  0  0  0  0  0  0  0  0
    7.4520    9.6593    1.5997 O   0  0  0  0  0  0  0  0  0  0  0  0
    9.4525    9.2004    2.6532 C   0  0  0  0  0  0  0  0  0  0  0  0
    9.7464    7.7249    2.5514 C   0  0  0  0  0  0  0  0  0  0  0  0
   11.1802    7.4401    2.1370 C   0  0  0  0  0  0  0  0  0  0  0  0
   12.2625    8.3270    2.7692 C   0  0  0  0  0  0  0  0  0  0  0  0
   13.6007    8.3248    1.9901 C   0  0  0  0  0  0  0  0  0  0  0  0
   14.0109    7.0512    1.2525 C   0  0  0  0  0  0  0  0  0  0  0  0
   14.7033    8.8920    2.7690 N   0  0  0  0  0  4  0  0  0  0  0  0
   11.8512    9.7805    3.1266 C   0  0  0  0  0  0  0  0  0  0  0  0
   10.3882   10.0192    3.4950 C   0  0  0  0  0  0  0  0  0  0  0  0
    5.0695   10.2974    4.9541 O   0  0  0  0  0  0  0  0  0  0  0  0
    3.8715   10.6994    4.6309 N   0  0  0  0  0  0  0  0  0  0  0  0
    2.5396   10.6028    1.5938 H   0  0  0  0  0  0  0  0  0  0  0  0
    1.7366   11.1677    3.1098 H   0  0  0  0  0  0  0  0  0  0  0  0
    2.8045   12.2950    2.1818 H   0  0  0  0  0  0  0  0  0  0  0  0
    5.3069   10.4556    1.7152 H   0  0  0  0  0  0  0  0  0  0  0  0
    7.6479    9.5192    4.8481 H   0  0  0  0  0  0  0  0  0  0  0  0
    9.7351    9.5602    1.6319 H   0  0  0  0  0  0  0  0  0  0  0  0
    9.5653    7.2645    3.5471 H   0  0  0  0  0  0  0  0  0  0  0  0
    9.0546    7.2384    1.8273 H   0  0  0  0  0  0  0  0  0  0  0  0
   11.4078    6.3671    2.3229 H   0  0  0  0  0  0  0  0  0  0  0  0
   11.2113    7.5947    1.0362 H   0  0  0  0  0  0  0  0  0  0  0  0
   12.4711    7.8390    3.7480 H   0  0  0  0  0  0  0  0  0  0  0  0
   13.4353    9.0293    1.1419 H   0  0  0  0  0  0  0  0  0  0  0  0
   14.9816    7.1940    0.7314 H   0  0  0  0  0  0  0  0  0  0  0  0
   13.2658    6.7648    0.4822 H   0  0  0  0  0  0  0  0  0  0  0  0
   14.1182    6.2184    1.9789 H   0  0  0  0  0  0  0  0  0  0  0  0
   15.5926    8.8661    2.2190 H   0  0  0  0  0  0  0  0  0  0  0  0
   14.8387    8.3428    3.6486 H   0  0  0  0  0  0  0  0  0  0  0  0
   14.5221    9.8931    3.0058 H   0  0  0  0  0  0  0  0  0  0  0  0
   12.0636   10.4411    2.2571 H   0  0  0  0  0  0  0  0  0  0  0  0
   12.4755   10.1512    3.9685 H   0  0  0  0  0  0  0  0  0  0  0  0
   10.2381    9.7341    4.5591 H   0  0  0  0  0  0  0  0  0  0  0  0
   10.1494   11.1021    3.3996 H   0  0  0  0  0  0  0  0  0  0  0  0
  1  2  1  0
  2  3  1  0
  3  4  2  0
  4  5  1  0
  5  6  1  0
  6  7  2  0
  6  8  1  0
  8  9  1  0
  9 10  1  0
 10 11  1  0
 11 12  1  0
 12 13  1  0
 12 14  1  0
 11 15  1  0
 15 16  1  0
  4 17  1  0
 17 18  1  0
 18  2  2  0
 16  8  1  0
  1 19  1  0
  1 20  1  0
  1 21  1  0
  3 22  1  0
  5 23  1  0
  8 24  1  0
  9 25  1  0
  9 26  1  0
 10 27  1  0
 10 28  1  0
 11 29  1  0
 12 30  1  0
 13 31  1  0
 13 32  1  0
 13 33  1  0
 14 34  1  0
 14 35  1  0
 14 36  1  0
 15 37  1  0
 15 38  1  0
 16 39  1  0
 16 40  1  0
M  CHG  1  14   1
M  END
>  <EmbedRMS>  (229) 
0.2917556722988064

$$$$
